data_str_m3_o1_o5_pcu_sym.15
_audit_creation_date              2020-01-03
_audit_creation_method            'Materials Studio'
_symmetry_space_group_name_H-M    'P1'
_symmetry_Int_Tables_number       1
_symmetry_cell_setting            triclinic
loop_
_symmetry_equiv_pos_as_xyz
  x,y,z
_cell_length_a                    32.0202
_cell_length_b                    29.8725
_cell_length_c                    26.6714
_cell_angle_alpha                 90.1422
_cell_angle_beta                  91.5824
_cell_angle_gamma                 89.4650
loop_
_atom_site_label
_atom_site_type_symbol
_atom_site_fract_x
_atom_site_fract_y
_atom_site_fract_z
_atom_site_U_iso_or_equiv
_atom_site_adp_type
_atom_site_occupancy
C1     C     0.08686   0.16701   0.16607   0.00000  Uiso   1.00
C2     C     0.02254   0.19001   0.20478   0.00000  Uiso   1.00
C3     C     0.29075   0.16509   0.16803   0.00000  Uiso   1.00
C4     C     0.04258   0.16825   0.16530   0.00000  Uiso   1.00
C5     C     0.18897   0.02385   0.20233   0.00000  Uiso   1.00
C6     C     0.14436   0.30948   0.13100   0.00000  Uiso   1.00
C7     C     0.14483   0.02395   0.13057   0.00000  Uiso   1.00
C8     C     0.18850   0.30939   0.20277   0.00000  Uiso   1.00
C9     C     0.05295   0.16170   0.04759   0.00000  Uiso   1.00
C10    C     0.28039   0.17165   0.28575   0.00000  Uiso   1.00
C11    C     0.28113   0.07391   0.09664   0.00000  Uiso   1.00
C12    C     0.24648   0.16632   0.16726   0.00000  Uiso   1.00
C13    C     0.05219   0.25943   0.23667   0.00000  Uiso   1.00
C14    C     0.21379   0.04741   0.23962   0.00000  Uiso   1.00
C15    C     0.11954   0.28592   0.09372   0.00000  Uiso   1.00
C16    C     0.12364   0.04734   0.09000   0.00000  Uiso   1.00
C17    C     0.20969   0.28599   0.24333   0.00000  Uiso   1.00
C18    C     0.16681   0.16663   0.07301   0.00000  Uiso   1.00
C19    C     0.16652   0.16670   0.26032   0.00000  Uiso   1.00
C20    C     0.16674   0.16661   0.02183   0.00000  Uiso   1.00
C21    C     0.16660   0.16672   0.31150   0.00000  Uiso   1.00
C22    C     0.02070   0.14626   0.12628   0.00000  Uiso   1.00
C23    C     0.31264   0.18708   0.20705   0.00000  Uiso   1.00
C24    C     0.31079   0.14332   0.12855   0.00000  Uiso   1.00
H25    H     0.02944   0.10045   0.06829   0.00000  Uiso   1.00
H26    H     0.31038   0.05515   0.08925   0.00000  Uiso   1.00
H27    H     0.25631   0.06202   0.07008   0.00000  Uiso   1.00
H28    H     0.27165   0.06624   0.13537   0.00000  Uiso   1.00
H29    H     0.03811   0.20376   0.27940   0.00000  Uiso   1.00
H30    H     0.02294   0.27819   0.24405   0.00000  Uiso   1.00
H31    H     0.06168   0.26710   0.19794   0.00000  Uiso   1.00
H32    H     0.07701   0.27134   0.26323   0.00000  Uiso   1.00
H33    H     0.02444   0.17963   0.03356   0.00000  Uiso   1.00
H34    H     0.06824   0.14514   0.01550   0.00000  Uiso   1.00
H35    H     0.07511   0.18606   0.06429   0.00000  Uiso   1.00
H36    H     0.30389   0.23289   0.26503   0.00000  Uiso   1.00
H37    H     0.30891   0.15373   0.29979   0.00000  Uiso   1.00
H38    H     0.25825   0.14726   0.26905   0.00000  Uiso   1.00
H39    H     0.26509   0.18821   0.31783   0.00000  Uiso   1.00
H40    H     0.29522   0.12959   0.05393   0.00000  Uiso   1.00
N41    N     0.16667   0.28573   0.16667   0.00000  Uiso   1.00
N42    N     0.22640   0.26820   0.27682   0.00000  Uiso   1.00
N43    N     0.16667   0.04760   0.16667   0.00000  Uiso   1.00
N44    N     0.04230   0.12861   0.08445   0.00000  Uiso   1.00
N45    N     0.29104   0.20473   0.24888   0.00000  Uiso   1.00
N46    N     0.28684   0.12158   0.08980   0.00000  Uiso   1.00
N47    N     0.04649   0.21176   0.24353   0.00000  Uiso   1.00
N48    N     0.23394   0.06550   0.26995   0.00000  Uiso   1.00
N49    N     0.09939   0.26783   0.06339   0.00000  Uiso   1.00
N50    N     0.10693   0.06513   0.05651   0.00000  Uiso   1.00
O51    O     0.10559   0.20487   0.16666   0.00000  Uiso   1.00
O52    O     0.22774   0.12846   0.16667   0.00000  Uiso   1.00
O53    O     0.22774   0.20487   0.16667   0.00000  Uiso   1.00
O54    O     0.10559   0.12846   0.16666   0.00000  Uiso   1.00
O55    O     0.16667   0.20488   0.09511   0.00000  Uiso   1.00
O56    O     0.16666   0.12845   0.23822   0.00000  Uiso   1.00
O57    O     0.16666   0.20488   0.23822   0.00000  Uiso   1.00
O58    O     0.16667   0.12845   0.09511   0.00000  Uiso   1.00
Zn59   Zn    0.16667   0.21771   0.16667   0.00000  Uiso   1.00
Zn60   Zn    0.16667   0.11563   0.16667   0.00000  Uiso   1.00
C61    C     0.42019   0.16701   0.16607   0.00000  Uiso   1.00
C62    C     0.35587   0.19001   0.20478   0.00000  Uiso   1.00
C63    C     0.62408   0.16509   0.16803   0.00000  Uiso   1.00
C64    C     0.37592   0.16825   0.16530   0.00000  Uiso   1.00
C65    C     0.52231   0.02385   0.20233   0.00000  Uiso   1.00
C66    C     0.47769   0.30948   0.13100   0.00000  Uiso   1.00
C67    C     0.47817   0.02395   0.13057   0.00000  Uiso   1.00
C68    C     0.52183   0.30939   0.20277   0.00000  Uiso   1.00
C69    C     0.38628   0.16170   0.04759   0.00000  Uiso   1.00
C70    C     0.61372   0.17165   0.28575   0.00000  Uiso   1.00
C71    C     0.61447   0.07391   0.09664   0.00000  Uiso   1.00
C72    C     0.57981   0.16632   0.16726   0.00000  Uiso   1.00
C73    C     0.38552   0.25943   0.23667   0.00000  Uiso   1.00
C74    C     0.54712   0.04741   0.23962   0.00000  Uiso   1.00
C75    C     0.45287   0.28592   0.09372   0.00000  Uiso   1.00
C76    C     0.45697   0.04734   0.09000   0.00000  Uiso   1.00
C77    C     0.54303   0.28599   0.24333   0.00000  Uiso   1.00
C78    C     0.50014   0.16663   0.07301   0.00000  Uiso   1.00
C79    C     0.49986   0.16670   0.26032   0.00000  Uiso   1.00
C80    C     0.50007   0.16661   0.02183   0.00000  Uiso   1.00
C81    C     0.49993   0.16672   0.31150   0.00000  Uiso   1.00
C82    C     0.35403   0.14626   0.12628   0.00000  Uiso   1.00
C83    C     0.64597   0.18708   0.20705   0.00000  Uiso   1.00
C84    C     0.64413   0.14332   0.12855   0.00000  Uiso   1.00
H85    H     0.36277   0.10045   0.06829   0.00000  Uiso   1.00
H86    H     0.64372   0.05515   0.08925   0.00000  Uiso   1.00
H87    H     0.58964   0.06202   0.07008   0.00000  Uiso   1.00
H88    H     0.60498   0.06624   0.13537   0.00000  Uiso   1.00
H89    H     0.37144   0.20376   0.27940   0.00000  Uiso   1.00
H90    H     0.35627   0.27819   0.24405   0.00000  Uiso   1.00
H91    H     0.39502   0.26710   0.19794   0.00000  Uiso   1.00
H92    H     0.41034   0.27134   0.26323   0.00000  Uiso   1.00
H93    H     0.35777   0.17963   0.03356   0.00000  Uiso   1.00
H94    H     0.40157   0.14514   0.01550   0.00000  Uiso   1.00
H95    H     0.40844   0.18606   0.06429   0.00000  Uiso   1.00
H96    H     0.63722   0.23289   0.26503   0.00000  Uiso   1.00
H97    H     0.64224   0.15373   0.29979   0.00000  Uiso   1.00
H98    H     0.59158   0.14726   0.26905   0.00000  Uiso   1.00
H99    H     0.59842   0.18821   0.31783   0.00000  Uiso   1.00
H100   H     0.62856   0.12959   0.05393   0.00000  Uiso   1.00
N101   N     0.50000   0.28573   0.16667   0.00000  Uiso   1.00
N102   N     0.55974   0.26820   0.27682   0.00000  Uiso   1.00
N103   N     0.50000   0.04760   0.16667   0.00000  Uiso   1.00
N104   N     0.37563   0.12861   0.08445   0.00000  Uiso   1.00
N105   N     0.62437   0.20473   0.24888   0.00000  Uiso   1.00
N106   N     0.62017   0.12158   0.08980   0.00000  Uiso   1.00
N107   N     0.37982   0.21176   0.24353   0.00000  Uiso   1.00
N108   N     0.56727   0.06550   0.26995   0.00000  Uiso   1.00
N109   N     0.43273   0.26783   0.06339   0.00000  Uiso   1.00
N110   N     0.44026   0.06513   0.05651   0.00000  Uiso   1.00
O111   O     0.43892   0.20487   0.16666   0.00000  Uiso   1.00
O112   O     0.56108   0.12846   0.16667   0.00000  Uiso   1.00
O113   O     0.56108   0.20487   0.16667   0.00000  Uiso   1.00
O114   O     0.43892   0.12846   0.16666   0.00000  Uiso   1.00
O115   O     0.50000   0.20488   0.09511   0.00000  Uiso   1.00
O116   O     0.50000   0.12845   0.23822   0.00000  Uiso   1.00
O117   O     0.50000   0.20488   0.23822   0.00000  Uiso   1.00
O118   O     0.50000   0.12845   0.09511   0.00000  Uiso   1.00
Zn119  Zn    0.50000   0.21771   0.16667   0.00000  Uiso   1.00
Zn120  Zn    0.50000   0.11563   0.16667   0.00000  Uiso   1.00
C121   C     0.75352   0.16701   0.16607   0.00000  Uiso   1.00
C122   C     0.68921   0.19001   0.20478   0.00000  Uiso   1.00
C123   C     0.95742   0.16509   0.16803   0.00000  Uiso   1.00
C124   C     0.70925   0.16825   0.16530   0.00000  Uiso   1.00
C125   C     0.85564   0.02385   0.20233   0.00000  Uiso   1.00
C126   C     0.81103   0.30948   0.13100   0.00000  Uiso   1.00
C127   C     0.81150   0.02395   0.13057   0.00000  Uiso   1.00
C128   C     0.85517   0.30939   0.20277   0.00000  Uiso   1.00
C129   C     0.71962   0.16170   0.04759   0.00000  Uiso   1.00
C130   C     0.94706   0.17165   0.28575   0.00000  Uiso   1.00
C131   C     0.94780   0.07391   0.09664   0.00000  Uiso   1.00
C132   C     0.91314   0.16632   0.16726   0.00000  Uiso   1.00
C133   C     0.71886   0.25943   0.23667   0.00000  Uiso   1.00
C134   C     0.88046   0.04741   0.23962   0.00000  Uiso   1.00
C135   C     0.78621   0.28592   0.09372   0.00000  Uiso   1.00
C136   C     0.79030   0.04734   0.09000   0.00000  Uiso   1.00
C137   C     0.87636   0.28599   0.24333   0.00000  Uiso   1.00
C138   C     0.83348   0.16663   0.07301   0.00000  Uiso   1.00
C139   C     0.83319   0.16670   0.26032   0.00000  Uiso   1.00
C140   C     0.83340   0.16661   0.02183   0.00000  Uiso   1.00
C141   C     0.83326   0.16672   0.31150   0.00000  Uiso   1.00
C142   C     0.68736   0.14626   0.12628   0.00000  Uiso   1.00
C143   C     0.97930   0.18708   0.20705   0.00000  Uiso   1.00
C144   C     0.97746   0.14332   0.12855   0.00000  Uiso   1.00
H145   H     0.69610   0.10045   0.06829   0.00000  Uiso   1.00
H146   H     0.97705   0.05515   0.08925   0.00000  Uiso   1.00
H147   H     0.92298   0.06202   0.07008   0.00000  Uiso   1.00
H148   H     0.93831   0.06624   0.13537   0.00000  Uiso   1.00
H149   H     0.70477   0.20376   0.27940   0.00000  Uiso   1.00
H150   H     0.68961   0.27819   0.24405   0.00000  Uiso   1.00
H151   H     0.72835   0.26710   0.19794   0.00000  Uiso   1.00
H152   H     0.74367   0.27134   0.26323   0.00000  Uiso   1.00
H153   H     0.69110   0.17963   0.03356   0.00000  Uiso   1.00
H154   H     0.73490   0.14514   0.01550   0.00000  Uiso   1.00
H155   H     0.74177   0.18606   0.06429   0.00000  Uiso   1.00
H156   H     0.97056   0.23289   0.26503   0.00000  Uiso   1.00
H157   H     0.97558   0.15373   0.29979   0.00000  Uiso   1.00
H158   H     0.92492   0.14726   0.26905   0.00000  Uiso   1.00
H159   H     0.93176   0.18821   0.31783   0.00000  Uiso   1.00
H160   H     0.96189   0.12959   0.05393   0.00000  Uiso   1.00
N161   N     0.83333   0.28573   0.16667   0.00000  Uiso   1.00
N162   N     0.89307   0.26820   0.27682   0.00000  Uiso   1.00
N163   N     0.83333   0.04760   0.16667   0.00000  Uiso   1.00
N164   N     0.70896   0.12861   0.08445   0.00000  Uiso   1.00
N165   N     0.95770   0.20473   0.24888   0.00000  Uiso   1.00
N166   N     0.95351   0.12158   0.08980   0.00000  Uiso   1.00
N167   N     0.71316   0.21176   0.24353   0.00000  Uiso   1.00
N168   N     0.90060   0.06550   0.26995   0.00000  Uiso   1.00
N169   N     0.76606   0.26783   0.06339   0.00000  Uiso   1.00
N170   N     0.77359   0.06513   0.05651   0.00000  Uiso   1.00
O171   O     0.77226   0.20487   0.16666   0.00000  Uiso   1.00
O172   O     0.89441   0.12846   0.16667   0.00000  Uiso   1.00
O173   O     0.89441   0.20487   0.16667   0.00000  Uiso   1.00
O174   O     0.77226   0.12846   0.16666   0.00000  Uiso   1.00
O175   O     0.83334   0.20488   0.09511   0.00000  Uiso   1.00
O176   O     0.83333   0.12845   0.23822   0.00000  Uiso   1.00
O177   O     0.83333   0.20488   0.23822   0.00000  Uiso   1.00
O178   O     0.83334   0.12845   0.09511   0.00000  Uiso   1.00
Zn179  Zn    0.83333   0.21771   0.16667   0.00000  Uiso   1.00
Zn180  Zn    0.83333   0.11563   0.16667   0.00000  Uiso   1.00
C181   C     0.08686   0.50034   0.16607   0.00000  Uiso   1.00
C182   C     0.02254   0.52334   0.20478   0.00000  Uiso   1.00
C183   C     0.29075   0.49842   0.16803   0.00000  Uiso   1.00
C184   C     0.04258   0.50158   0.16530   0.00000  Uiso   1.00
C185   C     0.18897   0.35718   0.20233   0.00000  Uiso   1.00
C186   C     0.14436   0.64281   0.13100   0.00000  Uiso   1.00
C187   C     0.14483   0.35728   0.13057   0.00000  Uiso   1.00
C188   C     0.18850   0.64272   0.20277   0.00000  Uiso   1.00
C189   C     0.05295   0.49503   0.04759   0.00000  Uiso   1.00
C190   C     0.28039   0.50498   0.28575   0.00000  Uiso   1.00
C191   C     0.28113   0.40725   0.09664   0.00000  Uiso   1.00
C192   C     0.24648   0.49966   0.16726   0.00000  Uiso   1.00
C193   C     0.05219   0.59277   0.23667   0.00000  Uiso   1.00
C194   C     0.21379   0.38075   0.23962   0.00000  Uiso   1.00
C195   C     0.11954   0.61925   0.09372   0.00000  Uiso   1.00
C196   C     0.12364   0.38068   0.09000   0.00000  Uiso   1.00
C197   C     0.20969   0.61932   0.24333   0.00000  Uiso   1.00
C198   C     0.16681   0.49996   0.07301   0.00000  Uiso   1.00
C199   C     0.16652   0.50004   0.26032   0.00000  Uiso   1.00
C200   C     0.16674   0.49995   0.02183   0.00000  Uiso   1.00
C201   C     0.16660   0.50005   0.31150   0.00000  Uiso   1.00
C202   C     0.02070   0.47959   0.12628   0.00000  Uiso   1.00
C203   C     0.31264   0.52041   0.20705   0.00000  Uiso   1.00
C204   C     0.31079   0.47666   0.12855   0.00000  Uiso   1.00
H205   H     0.02944   0.43378   0.06829   0.00000  Uiso   1.00
H206   H     0.31038   0.38849   0.08925   0.00000  Uiso   1.00
H207   H     0.25631   0.39535   0.07008   0.00000  Uiso   1.00
H208   H     0.27165   0.39957   0.13537   0.00000  Uiso   1.00
H209   H     0.03811   0.53710   0.27940   0.00000  Uiso   1.00
H210   H     0.02294   0.61152   0.24405   0.00000  Uiso   1.00
H211   H     0.06168   0.60043   0.19794   0.00000  Uiso   1.00
H212   H     0.07701   0.60467   0.26323   0.00000  Uiso   1.00
H213   H     0.02444   0.51296   0.03356   0.00000  Uiso   1.00
H214   H     0.06824   0.47847   0.01550   0.00000  Uiso   1.00
H215   H     0.07511   0.51940   0.06429   0.00000  Uiso   1.00
H216   H     0.30389   0.56623   0.26503   0.00000  Uiso   1.00
H217   H     0.30891   0.48707   0.29979   0.00000  Uiso   1.00
H218   H     0.25825   0.48059   0.26905   0.00000  Uiso   1.00
H219   H     0.26509   0.52154   0.31783   0.00000  Uiso   1.00
H220   H     0.29522   0.46292   0.05393   0.00000  Uiso   1.00
N221   N     0.16667   0.61907   0.16667   0.00000  Uiso   1.00
N222   N     0.22640   0.60154   0.27682   0.00000  Uiso   1.00
N223   N     0.16667   0.38093   0.16667   0.00000  Uiso   1.00
N224   N     0.04230   0.46194   0.08445   0.00000  Uiso   1.00
N225   N     0.29104   0.53806   0.24888   0.00000  Uiso   1.00
N226   N     0.28684   0.45492   0.08980   0.00000  Uiso   1.00
N227   N     0.04649   0.54510   0.24353   0.00000  Uiso   1.00
N228   N     0.23394   0.39884   0.26995   0.00000  Uiso   1.00
N229   N     0.09939   0.60116   0.06339   0.00000  Uiso   1.00
N230   N     0.10693   0.39846   0.05651   0.00000  Uiso   1.00
O231   O     0.10559   0.53821   0.16666   0.00000  Uiso   1.00
O232   O     0.22774   0.46179   0.16667   0.00000  Uiso   1.00
O233   O     0.22774   0.53821   0.16667   0.00000  Uiso   1.00
O234   O     0.10559   0.46179   0.16666   0.00000  Uiso   1.00
O235   O     0.16667   0.53821   0.09511   0.00000  Uiso   1.00
O236   O     0.16666   0.46179   0.23822   0.00000  Uiso   1.00
O237   O     0.16666   0.53821   0.23822   0.00000  Uiso   1.00
O238   O     0.16667   0.46179   0.09511   0.00000  Uiso   1.00
Zn239  Zn    0.16667   0.55104   0.16667   0.00000  Uiso   1.00
Zn240  Zn    0.16667   0.44896   0.16667   0.00000  Uiso   1.00
C241   C     0.42019   0.50034   0.16607   0.00000  Uiso   1.00
C242   C     0.35587   0.52334   0.20478   0.00000  Uiso   1.00
C243   C     0.62408   0.49842   0.16803   0.00000  Uiso   1.00
C244   C     0.37592   0.50158   0.16530   0.00000  Uiso   1.00
C245   C     0.52231   0.35718   0.20233   0.00000  Uiso   1.00
C246   C     0.47769   0.64281   0.13100   0.00000  Uiso   1.00
C247   C     0.47817   0.35728   0.13057   0.00000  Uiso   1.00
C248   C     0.52183   0.64272   0.20277   0.00000  Uiso   1.00
C249   C     0.38628   0.49503   0.04759   0.00000  Uiso   1.00
C250   C     0.61372   0.50498   0.28575   0.00000  Uiso   1.00
C251   C     0.61447   0.40725   0.09664   0.00000  Uiso   1.00
C252   C     0.57981   0.49966   0.16726   0.00000  Uiso   1.00
C253   C     0.38552   0.59277   0.23667   0.00000  Uiso   1.00
C254   C     0.54712   0.38075   0.23962   0.00000  Uiso   1.00
C255   C     0.45287   0.61925   0.09372   0.00000  Uiso   1.00
C256   C     0.45697   0.38068   0.09000   0.00000  Uiso   1.00
C257   C     0.54303   0.61932   0.24333   0.00000  Uiso   1.00
C258   C     0.50014   0.49996   0.07301   0.00000  Uiso   1.00
C259   C     0.49986   0.50004   0.26032   0.00000  Uiso   1.00
C260   C     0.50007   0.49995   0.02183   0.00000  Uiso   1.00
C261   C     0.49993   0.50005   0.31150   0.00000  Uiso   1.00
C262   C     0.35403   0.47959   0.12628   0.00000  Uiso   1.00
C263   C     0.64597   0.52041   0.20705   0.00000  Uiso   1.00
C264   C     0.64413   0.47666   0.12855   0.00000  Uiso   1.00
H265   H     0.36277   0.43378   0.06829   0.00000  Uiso   1.00
H266   H     0.64372   0.38849   0.08925   0.00000  Uiso   1.00
H267   H     0.58964   0.39535   0.07008   0.00000  Uiso   1.00
H268   H     0.60498   0.39957   0.13537   0.00000  Uiso   1.00
H269   H     0.37144   0.53710   0.27940   0.00000  Uiso   1.00
H270   H     0.35627   0.61152   0.24405   0.00000  Uiso   1.00
H271   H     0.39502   0.60043   0.19794   0.00000  Uiso   1.00
H272   H     0.41034   0.60467   0.26323   0.00000  Uiso   1.00
H273   H     0.35777   0.51296   0.03356   0.00000  Uiso   1.00
H274   H     0.40157   0.47847   0.01550   0.00000  Uiso   1.00
H275   H     0.40844   0.51940   0.06429   0.00000  Uiso   1.00
H276   H     0.63722   0.56623   0.26503   0.00000  Uiso   1.00
H277   H     0.64224   0.48707   0.29979   0.00000  Uiso   1.00
H278   H     0.59158   0.48059   0.26905   0.00000  Uiso   1.00
H279   H     0.59842   0.52154   0.31783   0.00000  Uiso   1.00
H280   H     0.62856   0.46292   0.05393   0.00000  Uiso   1.00
N281   N     0.50000   0.61907   0.16667   0.00000  Uiso   1.00
N282   N     0.55974   0.60154   0.27682   0.00000  Uiso   1.00
N283   N     0.50000   0.38093   0.16667   0.00000  Uiso   1.00
N284   N     0.37563   0.46194   0.08445   0.00000  Uiso   1.00
N285   N     0.62437   0.53806   0.24888   0.00000  Uiso   1.00
N286   N     0.62017   0.45492   0.08980   0.00000  Uiso   1.00
N287   N     0.37982   0.54510   0.24353   0.00000  Uiso   1.00
N288   N     0.56727   0.39884   0.26995   0.00000  Uiso   1.00
N289   N     0.43273   0.60116   0.06339   0.00000  Uiso   1.00
N290   N     0.44026   0.39846   0.05651   0.00000  Uiso   1.00
O291   O     0.43892   0.53821   0.16666   0.00000  Uiso   1.00
O292   O     0.56108   0.46179   0.16667   0.00000  Uiso   1.00
O293   O     0.56108   0.53821   0.16667   0.00000  Uiso   1.00
O294   O     0.43892   0.46179   0.16666   0.00000  Uiso   1.00
O295   O     0.50000   0.53821   0.09511   0.00000  Uiso   1.00
O296   O     0.50000   0.46179   0.23822   0.00000  Uiso   1.00
O297   O     0.50000   0.53821   0.23822   0.00000  Uiso   1.00
O298   O     0.50000   0.46179   0.09511   0.00000  Uiso   1.00
Zn299  Zn    0.50000   0.55104   0.16667   0.00000  Uiso   1.00
Zn300  Zn    0.50000   0.44896   0.16667   0.00000  Uiso   1.00
C301   C     0.75352   0.50034   0.16607   0.00000  Uiso   1.00
C302   C     0.68921   0.52334   0.20478   0.00000  Uiso   1.00
C303   C     0.95742   0.49842   0.16803   0.00000  Uiso   1.00
C304   C     0.70925   0.50158   0.16530   0.00000  Uiso   1.00
C305   C     0.85564   0.35718   0.20233   0.00000  Uiso   1.00
C306   C     0.81103   0.64281   0.13100   0.00000  Uiso   1.00
C307   C     0.81150   0.35728   0.13057   0.00000  Uiso   1.00
C308   C     0.85517   0.64272   0.20277   0.00000  Uiso   1.00
C309   C     0.71962   0.49503   0.04759   0.00000  Uiso   1.00
C310   C     0.94706   0.50498   0.28575   0.00000  Uiso   1.00
C311   C     0.94780   0.40725   0.09664   0.00000  Uiso   1.00
C312   C     0.91314   0.49966   0.16726   0.00000  Uiso   1.00
C313   C     0.71886   0.59277   0.23667   0.00000  Uiso   1.00
C314   C     0.88046   0.38075   0.23962   0.00000  Uiso   1.00
C315   C     0.78621   0.61925   0.09372   0.00000  Uiso   1.00
C316   C     0.79030   0.38068   0.09000   0.00000  Uiso   1.00
C317   C     0.87636   0.61932   0.24333   0.00000  Uiso   1.00
C318   C     0.83348   0.49996   0.07301   0.00000  Uiso   1.00
C319   C     0.83319   0.50004   0.26032   0.00000  Uiso   1.00
C320   C     0.83340   0.49995   0.02183   0.00000  Uiso   1.00
C321   C     0.83326   0.50005   0.31150   0.00000  Uiso   1.00
C322   C     0.68736   0.47959   0.12628   0.00000  Uiso   1.00
C323   C     0.97930   0.52041   0.20705   0.00000  Uiso   1.00
C324   C     0.97746   0.47666   0.12855   0.00000  Uiso   1.00
H325   H     0.69610   0.43378   0.06829   0.00000  Uiso   1.00
H326   H     0.97705   0.38849   0.08925   0.00000  Uiso   1.00
H327   H     0.92298   0.39535   0.07008   0.00000  Uiso   1.00
H328   H     0.93831   0.39957   0.13537   0.00000  Uiso   1.00
H329   H     0.70477   0.53710   0.27940   0.00000  Uiso   1.00
H330   H     0.68961   0.61152   0.24405   0.00000  Uiso   1.00
H331   H     0.72835   0.60043   0.19794   0.00000  Uiso   1.00
H332   H     0.74367   0.60467   0.26323   0.00000  Uiso   1.00
H333   H     0.69110   0.51296   0.03356   0.00000  Uiso   1.00
H334   H     0.73490   0.47847   0.01550   0.00000  Uiso   1.00
H335   H     0.74177   0.51940   0.06429   0.00000  Uiso   1.00
H336   H     0.97056   0.56623   0.26503   0.00000  Uiso   1.00
H337   H     0.97558   0.48707   0.29979   0.00000  Uiso   1.00
H338   H     0.92492   0.48059   0.26905   0.00000  Uiso   1.00
H339   H     0.93176   0.52154   0.31783   0.00000  Uiso   1.00
H340   H     0.96189   0.46292   0.05393   0.00000  Uiso   1.00
N341   N     0.83333   0.61907   0.16667   0.00000  Uiso   1.00
N342   N     0.89307   0.60154   0.27682   0.00000  Uiso   1.00
N343   N     0.83333   0.38093   0.16667   0.00000  Uiso   1.00
N344   N     0.70896   0.46194   0.08445   0.00000  Uiso   1.00
N345   N     0.95770   0.53806   0.24888   0.00000  Uiso   1.00
N346   N     0.95351   0.45492   0.08980   0.00000  Uiso   1.00
N347   N     0.71316   0.54510   0.24353   0.00000  Uiso   1.00
N348   N     0.90060   0.39884   0.26995   0.00000  Uiso   1.00
N349   N     0.76606   0.60116   0.06339   0.00000  Uiso   1.00
N350   N     0.77359   0.39846   0.05651   0.00000  Uiso   1.00
O351   O     0.77226   0.53821   0.16666   0.00000  Uiso   1.00
O352   O     0.89441   0.46179   0.16667   0.00000  Uiso   1.00
O353   O     0.89441   0.53821   0.16667   0.00000  Uiso   1.00
O354   O     0.77226   0.46179   0.16666   0.00000  Uiso   1.00
O355   O     0.83334   0.53821   0.09511   0.00000  Uiso   1.00
O356   O     0.83333   0.46179   0.23822   0.00000  Uiso   1.00
O357   O     0.83333   0.53821   0.23822   0.00000  Uiso   1.00
O358   O     0.83334   0.46179   0.09511   0.00000  Uiso   1.00
Zn359  Zn    0.83333   0.55104   0.16667   0.00000  Uiso   1.00
Zn360  Zn    0.83333   0.44896   0.16667   0.00000  Uiso   1.00
C361   C     0.08686   0.83368   0.16607   0.00000  Uiso   1.00
C362   C     0.02254   0.85668   0.20478   0.00000  Uiso   1.00
C363   C     0.29075   0.83175   0.16803   0.00000  Uiso   1.00
C364   C     0.04258   0.83491   0.16530   0.00000  Uiso   1.00
C365   C     0.18897   0.69052   0.20233   0.00000  Uiso   1.00
C366   C     0.14436   0.97615   0.13100   0.00000  Uiso   1.00
C367   C     0.14483   0.69061   0.13057   0.00000  Uiso   1.00
C368   C     0.18850   0.97605   0.20277   0.00000  Uiso   1.00
C369   C     0.05295   0.82836   0.04759   0.00000  Uiso   1.00
C370   C     0.28039   0.83831   0.28575   0.00000  Uiso   1.00
C371   C     0.28113   0.74058   0.09664   0.00000  Uiso   1.00
C372   C     0.24648   0.83299   0.16726   0.00000  Uiso   1.00
C373   C     0.05219   0.92610   0.23667   0.00000  Uiso   1.00
C374   C     0.21379   0.71408   0.23962   0.00000  Uiso   1.00
C375   C     0.11954   0.95259   0.09372   0.00000  Uiso   1.00
C376   C     0.12364   0.71401   0.09000   0.00000  Uiso   1.00
C377   C     0.20969   0.95266   0.24333   0.00000  Uiso   1.00
C378   C     0.16681   0.83330   0.07301   0.00000  Uiso   1.00
C379   C     0.16652   0.83337   0.26032   0.00000  Uiso   1.00
C380   C     0.16674   0.83328   0.02183   0.00000  Uiso   1.00
C381   C     0.16660   0.83339   0.31150   0.00000  Uiso   1.00
C382   C     0.02070   0.81293   0.12628   0.00000  Uiso   1.00
C383   C     0.31264   0.85374   0.20705   0.00000  Uiso   1.00
C384   C     0.31079   0.80999   0.12855   0.00000  Uiso   1.00
H385   H     0.02944   0.76712   0.06829   0.00000  Uiso   1.00
H386   H     0.31038   0.72182   0.08925   0.00000  Uiso   1.00
H387   H     0.25631   0.72868   0.07008   0.00000  Uiso   1.00
H388   H     0.27165   0.73290   0.13537   0.00000  Uiso   1.00
H389   H     0.03811   0.87043   0.27940   0.00000  Uiso   1.00
H390   H     0.02294   0.94485   0.24405   0.00000  Uiso   1.00
H391   H     0.06168   0.93377   0.19794   0.00000  Uiso   1.00
H392   H     0.07701   0.93801   0.26323   0.00000  Uiso   1.00
H393   H     0.02444   0.84629   0.03356   0.00000  Uiso   1.00
H394   H     0.06824   0.81180   0.01550   0.00000  Uiso   1.00
H395   H     0.07511   0.85273   0.06429   0.00000  Uiso   1.00
H396   H     0.30389   0.89956   0.26503   0.00000  Uiso   1.00
H397   H     0.30891   0.82040   0.29979   0.00000  Uiso   1.00
H398   H     0.25825   0.81393   0.26905   0.00000  Uiso   1.00
H399   H     0.26509   0.85487   0.31783   0.00000  Uiso   1.00
H400   H     0.29522   0.79626   0.05393   0.00000  Uiso   1.00
N401   N     0.16667   0.95240   0.16667   0.00000  Uiso   1.00
N402   N     0.22640   0.93487   0.27682   0.00000  Uiso   1.00
N403   N     0.16667   0.71427   0.16667   0.00000  Uiso   1.00
N404   N     0.04230   0.79528   0.08445   0.00000  Uiso   1.00
N405   N     0.29104   0.87139   0.24888   0.00000  Uiso   1.00
N406   N     0.28684   0.78825   0.08980   0.00000  Uiso   1.00
N407   N     0.04649   0.87843   0.24353   0.00000  Uiso   1.00
N408   N     0.23394   0.73217   0.26995   0.00000  Uiso   1.00
N409   N     0.09939   0.93450   0.06339   0.00000  Uiso   1.00
N410   N     0.10693   0.73180   0.05651   0.00000  Uiso   1.00
O411   O     0.10559   0.87154   0.16666   0.00000  Uiso   1.00
O412   O     0.22774   0.79513   0.16667   0.00000  Uiso   1.00
O413   O     0.22774   0.87154   0.16667   0.00000  Uiso   1.00
O414   O     0.10559   0.79513   0.16666   0.00000  Uiso   1.00
O415   O     0.16667   0.87155   0.09511   0.00000  Uiso   1.00
O416   O     0.16666   0.79512   0.23822   0.00000  Uiso   1.00
O417   O     0.16666   0.87155   0.23822   0.00000  Uiso   1.00
O418   O     0.16667   0.79512   0.09511   0.00000  Uiso   1.00
Zn419  Zn    0.16667   0.88437   0.16667   0.00000  Uiso   1.00
Zn420  Zn    0.16667   0.78229   0.16667   0.00000  Uiso   1.00
C421   C     0.42019   0.83368   0.16607   0.00000  Uiso   1.00
C422   C     0.35587   0.85668   0.20478   0.00000  Uiso   1.00
C423   C     0.62408   0.83175   0.16803   0.00000  Uiso   1.00
C424   C     0.37592   0.83491   0.16530   0.00000  Uiso   1.00
C425   C     0.52231   0.69052   0.20233   0.00000  Uiso   1.00
C426   C     0.47769   0.97615   0.13100   0.00000  Uiso   1.00
C427   C     0.47817   0.69061   0.13057   0.00000  Uiso   1.00
C428   C     0.52183   0.97605   0.20277   0.00000  Uiso   1.00
C429   C     0.38628   0.82836   0.04759   0.00000  Uiso   1.00
C430   C     0.61372   0.83831   0.28575   0.00000  Uiso   1.00
C431   C     0.61447   0.74058   0.09664   0.00000  Uiso   1.00
C432   C     0.57981   0.83299   0.16726   0.00000  Uiso   1.00
C433   C     0.38552   0.92610   0.23667   0.00000  Uiso   1.00
C434   C     0.54712   0.71408   0.23962   0.00000  Uiso   1.00
C435   C     0.45287   0.95259   0.09372   0.00000  Uiso   1.00
C436   C     0.45697   0.71401   0.09000   0.00000  Uiso   1.00
C437   C     0.54303   0.95266   0.24333   0.00000  Uiso   1.00
C438   C     0.50014   0.83330   0.07301   0.00000  Uiso   1.00
C439   C     0.49986   0.83337   0.26032   0.00000  Uiso   1.00
C440   C     0.50007   0.83328   0.02183   0.00000  Uiso   1.00
C441   C     0.49993   0.83339   0.31150   0.00000  Uiso   1.00
C442   C     0.35403   0.81293   0.12628   0.00000  Uiso   1.00
C443   C     0.64597   0.85374   0.20705   0.00000  Uiso   1.00
C444   C     0.64413   0.80999   0.12855   0.00000  Uiso   1.00
H445   H     0.36277   0.76712   0.06829   0.00000  Uiso   1.00
H446   H     0.64372   0.72182   0.08925   0.00000  Uiso   1.00
H447   H     0.58964   0.72868   0.07008   0.00000  Uiso   1.00
H448   H     0.60498   0.73290   0.13537   0.00000  Uiso   1.00
H449   H     0.37144   0.87043   0.27940   0.00000  Uiso   1.00
H450   H     0.35627   0.94485   0.24405   0.00000  Uiso   1.00
H451   H     0.39502   0.93377   0.19794   0.00000  Uiso   1.00
H452   H     0.41034   0.93801   0.26323   0.00000  Uiso   1.00
H453   H     0.35777   0.84629   0.03356   0.00000  Uiso   1.00
H454   H     0.40157   0.81180   0.01550   0.00000  Uiso   1.00
H455   H     0.40844   0.85273   0.06429   0.00000  Uiso   1.00
H456   H     0.63722   0.89956   0.26503   0.00000  Uiso   1.00
H457   H     0.64224   0.82040   0.29979   0.00000  Uiso   1.00
H458   H     0.59158   0.81393   0.26905   0.00000  Uiso   1.00
H459   H     0.59842   0.85487   0.31783   0.00000  Uiso   1.00
H460   H     0.62856   0.79626   0.05393   0.00000  Uiso   1.00
N461   N     0.50000   0.95240   0.16667   0.00000  Uiso   1.00
N462   N     0.55974   0.93487   0.27682   0.00000  Uiso   1.00
N463   N     0.50000   0.71427   0.16667   0.00000  Uiso   1.00
N464   N     0.37563   0.79528   0.08445   0.00000  Uiso   1.00
N465   N     0.62437   0.87139   0.24888   0.00000  Uiso   1.00
N466   N     0.62017   0.78825   0.08980   0.00000  Uiso   1.00
N467   N     0.37982   0.87843   0.24353   0.00000  Uiso   1.00
N468   N     0.56727   0.73217   0.26995   0.00000  Uiso   1.00
N469   N     0.43273   0.93450   0.06339   0.00000  Uiso   1.00
N470   N     0.44026   0.73180   0.05651   0.00000  Uiso   1.00
O471   O     0.43892   0.87154   0.16666   0.00000  Uiso   1.00
O472   O     0.56108   0.79513   0.16667   0.00000  Uiso   1.00
O473   O     0.56108   0.87154   0.16667   0.00000  Uiso   1.00
O474   O     0.43892   0.79513   0.16666   0.00000  Uiso   1.00
O475   O     0.50000   0.87155   0.09511   0.00000  Uiso   1.00
O476   O     0.50000   0.79512   0.23822   0.00000  Uiso   1.00
O477   O     0.50000   0.87155   0.23822   0.00000  Uiso   1.00
O478   O     0.50000   0.79512   0.09511   0.00000  Uiso   1.00
Zn479  Zn    0.50000   0.88437   0.16667   0.00000  Uiso   1.00
Zn480  Zn    0.50000   0.78229   0.16667   0.00000  Uiso   1.00
C481   C     0.75352   0.83368   0.16607   0.00000  Uiso   1.00
C482   C     0.68921   0.85668   0.20478   0.00000  Uiso   1.00
C483   C     0.95742   0.83175   0.16803   0.00000  Uiso   1.00
C484   C     0.70925   0.83491   0.16530   0.00000  Uiso   1.00
C485   C     0.85564   0.69052   0.20233   0.00000  Uiso   1.00
C486   C     0.81103   0.97615   0.13100   0.00000  Uiso   1.00
C487   C     0.81150   0.69061   0.13057   0.00000  Uiso   1.00
C488   C     0.85517   0.97605   0.20277   0.00000  Uiso   1.00
C489   C     0.71962   0.82836   0.04759   0.00000  Uiso   1.00
C490   C     0.94706   0.83831   0.28575   0.00000  Uiso   1.00
C491   C     0.94780   0.74058   0.09664   0.00000  Uiso   1.00
C492   C     0.91314   0.83299   0.16726   0.00000  Uiso   1.00
C493   C     0.71886   0.92610   0.23667   0.00000  Uiso   1.00
C494   C     0.88046   0.71408   0.23962   0.00000  Uiso   1.00
C495   C     0.78621   0.95259   0.09372   0.00000  Uiso   1.00
C496   C     0.79030   0.71401   0.09000   0.00000  Uiso   1.00
C497   C     0.87636   0.95266   0.24333   0.00000  Uiso   1.00
C498   C     0.83348   0.83330   0.07301   0.00000  Uiso   1.00
C499   C     0.83319   0.83337   0.26032   0.00000  Uiso   1.00
C500   C     0.83340   0.83328   0.02183   0.00000  Uiso   1.00
C501   C     0.83326   0.83339   0.31150   0.00000  Uiso   1.00
C502   C     0.68736   0.81293   0.12628   0.00000  Uiso   1.00
C503   C     0.97930   0.85374   0.20705   0.00000  Uiso   1.00
C504   C     0.97746   0.80999   0.12855   0.00000  Uiso   1.00
H505   H     0.69610   0.76712   0.06829   0.00000  Uiso   1.00
H506   H     0.97705   0.72182   0.08925   0.00000  Uiso   1.00
H507   H     0.92298   0.72868   0.07008   0.00000  Uiso   1.00
H508   H     0.93831   0.73290   0.13537   0.00000  Uiso   1.00
H509   H     0.70477   0.87043   0.27940   0.00000  Uiso   1.00
H510   H     0.68961   0.94485   0.24405   0.00000  Uiso   1.00
H511   H     0.72835   0.93377   0.19794   0.00000  Uiso   1.00
H512   H     0.74367   0.93801   0.26323   0.00000  Uiso   1.00
H513   H     0.69110   0.84629   0.03356   0.00000  Uiso   1.00
H514   H     0.73490   0.81180   0.01550   0.00000  Uiso   1.00
H515   H     0.74177   0.85273   0.06429   0.00000  Uiso   1.00
H516   H     0.97056   0.89956   0.26503   0.00000  Uiso   1.00
H517   H     0.97558   0.82040   0.29979   0.00000  Uiso   1.00
H518   H     0.92492   0.81393   0.26905   0.00000  Uiso   1.00
H519   H     0.93176   0.85487   0.31783   0.00000  Uiso   1.00
H520   H     0.96189   0.79626   0.05393   0.00000  Uiso   1.00
N521   N     0.83333   0.95240   0.16667   0.00000  Uiso   1.00
N522   N     0.89307   0.93487   0.27682   0.00000  Uiso   1.00
N523   N     0.83333   0.71427   0.16667   0.00000  Uiso   1.00
N524   N     0.70896   0.79528   0.08445   0.00000  Uiso   1.00
N525   N     0.95770   0.87139   0.24888   0.00000  Uiso   1.00
N526   N     0.95351   0.78825   0.08980   0.00000  Uiso   1.00
N527   N     0.71316   0.87843   0.24353   0.00000  Uiso   1.00
N528   N     0.90060   0.73217   0.26995   0.00000  Uiso   1.00
N529   N     0.76606   0.93450   0.06339   0.00000  Uiso   1.00
N530   N     0.77359   0.73180   0.05651   0.00000  Uiso   1.00
O531   O     0.77226   0.87154   0.16666   0.00000  Uiso   1.00
O532   O     0.89441   0.79513   0.16667   0.00000  Uiso   1.00
O533   O     0.89441   0.87154   0.16667   0.00000  Uiso   1.00
O534   O     0.77226   0.79513   0.16666   0.00000  Uiso   1.00
O535   O     0.83334   0.87155   0.09511   0.00000  Uiso   1.00
O536   O     0.83333   0.79512   0.23822   0.00000  Uiso   1.00
O537   O     0.83333   0.87155   0.23822   0.00000  Uiso   1.00
O538   O     0.83334   0.79512   0.09511   0.00000  Uiso   1.00
Zn539  Zn    0.83333   0.88437   0.16667   0.00000  Uiso   1.00
Zn540  Zn    0.83333   0.78229   0.16667   0.00000  Uiso   1.00
C541   C     0.08686   0.16701   0.49940   0.00000  Uiso   1.00
C542   C     0.02254   0.19001   0.53812   0.00000  Uiso   1.00
C543   C     0.29075   0.16509   0.50136   0.00000  Uiso   1.00
C544   C     0.04258   0.16825   0.49864   0.00000  Uiso   1.00
C545   C     0.18897   0.02385   0.53567   0.00000  Uiso   1.00
C546   C     0.14436   0.30948   0.46433   0.00000  Uiso   1.00
C547   C     0.14483   0.02395   0.46390   0.00000  Uiso   1.00
C548   C     0.18850   0.30939   0.53610   0.00000  Uiso   1.00
C549   C     0.05295   0.16170   0.38092   0.00000  Uiso   1.00
C550   C     0.28039   0.17165   0.61908   0.00000  Uiso   1.00
C551   C     0.28113   0.07391   0.42997   0.00000  Uiso   1.00
C552   C     0.24648   0.16632   0.50060   0.00000  Uiso   1.00
C553   C     0.05219   0.25943   0.57001   0.00000  Uiso   1.00
C554   C     0.21379   0.04741   0.57295   0.00000  Uiso   1.00
C555   C     0.11954   0.28592   0.42705   0.00000  Uiso   1.00
C556   C     0.12364   0.04734   0.42333   0.00000  Uiso   1.00
C557   C     0.20969   0.28599   0.57667   0.00000  Uiso   1.00
C558   C     0.16681   0.16663   0.40635   0.00000  Uiso   1.00
C559   C     0.16652   0.16670   0.59365   0.00000  Uiso   1.00
C560   C     0.16674   0.16661   0.35517   0.00000  Uiso   1.00
C561   C     0.16660   0.16672   0.64483   0.00000  Uiso   1.00
C562   C     0.02070   0.14626   0.45961   0.00000  Uiso   1.00
C563   C     0.31264   0.18708   0.54038   0.00000  Uiso   1.00
C564   C     0.31079   0.14332   0.46188   0.00000  Uiso   1.00
H565   H     0.02944   0.10045   0.40163   0.00000  Uiso   1.00
H566   H     0.31038   0.05515   0.42258   0.00000  Uiso   1.00
H567   H     0.25631   0.06202   0.40341   0.00000  Uiso   1.00
H568   H     0.27165   0.06624   0.46870   0.00000  Uiso   1.00
H569   H     0.03811   0.20376   0.61273   0.00000  Uiso   1.00
H570   H     0.02294   0.27819   0.57738   0.00000  Uiso   1.00
H571   H     0.06168   0.26710   0.53127   0.00000  Uiso   1.00
H572   H     0.07701   0.27134   0.59657   0.00000  Uiso   1.00
H573   H     0.02444   0.17963   0.36690   0.00000  Uiso   1.00
H574   H     0.06824   0.14514   0.34884   0.00000  Uiso   1.00
H575   H     0.07511   0.18606   0.39762   0.00000  Uiso   1.00
H576   H     0.30389   0.23289   0.59836   0.00000  Uiso   1.00
H577   H     0.30891   0.15373   0.63312   0.00000  Uiso   1.00
H578   H     0.25825   0.14726   0.60238   0.00000  Uiso   1.00
H579   H     0.26509   0.18821   0.65116   0.00000  Uiso   1.00
H580   H     0.29522   0.12959   0.38726   0.00000  Uiso   1.00
N581   N     0.16667   0.28573   0.50000   0.00000  Uiso   1.00
N582   N     0.22640   0.26820   0.61016   0.00000  Uiso   1.00
N583   N     0.16667   0.04760   0.50000   0.00000  Uiso   1.00
N584   N     0.04230   0.12861   0.41778   0.00000  Uiso   1.00
N585   N     0.29104   0.20473   0.58222   0.00000  Uiso   1.00
N586   N     0.28684   0.12158   0.42313   0.00000  Uiso   1.00
N587   N     0.04649   0.21176   0.57686   0.00000  Uiso   1.00
N588   N     0.23394   0.06550   0.60328   0.00000  Uiso   1.00
N589   N     0.09939   0.26783   0.39672   0.00000  Uiso   1.00
N590   N     0.10693   0.06513   0.38984   0.00000  Uiso   1.00
O591   O     0.10559   0.20487   0.50000   0.00000  Uiso   1.00
O592   O     0.22774   0.12846   0.50000   0.00000  Uiso   1.00
O593   O     0.22774   0.20487   0.50000   0.00000  Uiso   1.00
O594   O     0.10559   0.12846   0.50000   0.00000  Uiso   1.00
O595   O     0.16667   0.20488   0.42845   0.00000  Uiso   1.00
O596   O     0.16666   0.12845   0.57155   0.00000  Uiso   1.00
O597   O     0.16666   0.20488   0.57155   0.00000  Uiso   1.00
O598   O     0.16667   0.12845   0.42845   0.00000  Uiso   1.00
Zn599  Zn    0.16667   0.21771   0.50000   0.00000  Uiso   1.00
Zn600  Zn    0.16667   0.11563   0.50000   0.00000  Uiso   1.00
C601   C     0.42019   0.16701   0.49940   0.00000  Uiso   1.00
C602   C     0.35587   0.19001   0.53812   0.00000  Uiso   1.00
C603   C     0.62408   0.16509   0.50136   0.00000  Uiso   1.00
C604   C     0.37592   0.16825   0.49864   0.00000  Uiso   1.00
C605   C     0.52231   0.02385   0.53567   0.00000  Uiso   1.00
C606   C     0.47769   0.30948   0.46433   0.00000  Uiso   1.00
C607   C     0.47817   0.02395   0.46390   0.00000  Uiso   1.00
C608   C     0.52183   0.30939   0.53610   0.00000  Uiso   1.00
C609   C     0.38628   0.16170   0.38092   0.00000  Uiso   1.00
C610   C     0.61372   0.17165   0.61908   0.00000  Uiso   1.00
C611   C     0.61447   0.07391   0.42997   0.00000  Uiso   1.00
C612   C     0.57981   0.16632   0.50060   0.00000  Uiso   1.00
C613   C     0.38552   0.25943   0.57001   0.00000  Uiso   1.00
C614   C     0.54712   0.04741   0.57295   0.00000  Uiso   1.00
C615   C     0.45287   0.28592   0.42705   0.00000  Uiso   1.00
C616   C     0.45697   0.04734   0.42333   0.00000  Uiso   1.00
C617   C     0.54303   0.28599   0.57667   0.00000  Uiso   1.00
C618   C     0.50014   0.16663   0.40635   0.00000  Uiso   1.00
C619   C     0.49986   0.16670   0.59365   0.00000  Uiso   1.00
C620   C     0.50007   0.16661   0.35517   0.00000  Uiso   1.00
C621   C     0.49993   0.16672   0.64483   0.00000  Uiso   1.00
C622   C     0.35403   0.14626   0.45961   0.00000  Uiso   1.00
C623   C     0.64597   0.18708   0.54038   0.00000  Uiso   1.00
C624   C     0.64413   0.14332   0.46188   0.00000  Uiso   1.00
H625   H     0.36277   0.10045   0.40163   0.00000  Uiso   1.00
H626   H     0.64372   0.05515   0.42258   0.00000  Uiso   1.00
H627   H     0.58964   0.06202   0.40341   0.00000  Uiso   1.00
H628   H     0.60498   0.06624   0.46870   0.00000  Uiso   1.00
H629   H     0.37144   0.20376   0.61273   0.00000  Uiso   1.00
H630   H     0.35627   0.27819   0.57738   0.00000  Uiso   1.00
H631   H     0.39502   0.26710   0.53127   0.00000  Uiso   1.00
H632   H     0.41034   0.27134   0.59657   0.00000  Uiso   1.00
H633   H     0.35777   0.17963   0.36690   0.00000  Uiso   1.00
H634   H     0.40157   0.14514   0.34884   0.00000  Uiso   1.00
H635   H     0.40844   0.18606   0.39762   0.00000  Uiso   1.00
H636   H     0.63722   0.23289   0.59836   0.00000  Uiso   1.00
H637   H     0.64224   0.15373   0.63312   0.00000  Uiso   1.00
H638   H     0.59158   0.14726   0.60238   0.00000  Uiso   1.00
H639   H     0.59842   0.18821   0.65116   0.00000  Uiso   1.00
H640   H     0.62856   0.12959   0.38726   0.00000  Uiso   1.00
N641   N     0.50000   0.28573   0.50000   0.00000  Uiso   1.00
N642   N     0.55974   0.26820   0.61016   0.00000  Uiso   1.00
N643   N     0.50000   0.04760   0.50000   0.00000  Uiso   1.00
N644   N     0.37563   0.12861   0.41778   0.00000  Uiso   1.00
N645   N     0.62437   0.20473   0.58222   0.00000  Uiso   1.00
N646   N     0.62017   0.12158   0.42313   0.00000  Uiso   1.00
N647   N     0.37982   0.21176   0.57686   0.00000  Uiso   1.00
N648   N     0.56727   0.06550   0.60328   0.00000  Uiso   1.00
N649   N     0.43273   0.26783   0.39672   0.00000  Uiso   1.00
N650   N     0.44026   0.06513   0.38984   0.00000  Uiso   1.00
O651   O     0.43892   0.20487   0.50000   0.00000  Uiso   1.00
O652   O     0.56108   0.12846   0.50000   0.00000  Uiso   1.00
O653   O     0.56108   0.20487   0.50000   0.00000  Uiso   1.00
O654   O     0.43892   0.12846   0.50000   0.00000  Uiso   1.00
O655   O     0.50000   0.20488   0.42845   0.00000  Uiso   1.00
O656   O     0.50000   0.12845   0.57155   0.00000  Uiso   1.00
O657   O     0.50000   0.20488   0.57155   0.00000  Uiso   1.00
O658   O     0.50000   0.12845   0.42845   0.00000  Uiso   1.00
Zn659  Zn    0.50000   0.21771   0.50000   0.00000  Uiso   1.00
Zn660  Zn    0.50000   0.11563   0.50000   0.00000  Uiso   1.00
C661   C     0.75352   0.16701   0.49940   0.00000  Uiso   1.00
C662   C     0.68921   0.19001   0.53812   0.00000  Uiso   1.00
C663   C     0.95742   0.16509   0.50136   0.00000  Uiso   1.00
C664   C     0.70925   0.16825   0.49864   0.00000  Uiso   1.00
C665   C     0.85564   0.02385   0.53567   0.00000  Uiso   1.00
C666   C     0.81103   0.30948   0.46433   0.00000  Uiso   1.00
C667   C     0.81150   0.02395   0.46390   0.00000  Uiso   1.00
C668   C     0.85517   0.30939   0.53610   0.00000  Uiso   1.00
C669   C     0.71962   0.16170   0.38092   0.00000  Uiso   1.00
C670   C     0.94706   0.17165   0.61908   0.00000  Uiso   1.00
C671   C     0.94780   0.07391   0.42997   0.00000  Uiso   1.00
C672   C     0.91314   0.16632   0.50060   0.00000  Uiso   1.00
C673   C     0.71886   0.25943   0.57001   0.00000  Uiso   1.00
C674   C     0.88046   0.04741   0.57295   0.00000  Uiso   1.00
C675   C     0.78621   0.28592   0.42705   0.00000  Uiso   1.00
C676   C     0.79030   0.04734   0.42333   0.00000  Uiso   1.00
C677   C     0.87636   0.28599   0.57667   0.00000  Uiso   1.00
C678   C     0.83348   0.16663   0.40635   0.00000  Uiso   1.00
C679   C     0.83319   0.16670   0.59365   0.00000  Uiso   1.00
C680   C     0.83340   0.16661   0.35517   0.00000  Uiso   1.00
C681   C     0.83326   0.16672   0.64483   0.00000  Uiso   1.00
C682   C     0.68736   0.14626   0.45961   0.00000  Uiso   1.00
C683   C     0.97930   0.18708   0.54038   0.00000  Uiso   1.00
C684   C     0.97746   0.14332   0.46188   0.00000  Uiso   1.00
H685   H     0.69610   0.10045   0.40163   0.00000  Uiso   1.00
H686   H     0.97705   0.05515   0.42258   0.00000  Uiso   1.00
H687   H     0.92298   0.06202   0.40341   0.00000  Uiso   1.00
H688   H     0.93831   0.06624   0.46870   0.00000  Uiso   1.00
H689   H     0.70477   0.20376   0.61273   0.00000  Uiso   1.00
H690   H     0.68961   0.27819   0.57738   0.00000  Uiso   1.00
H691   H     0.72835   0.26710   0.53127   0.00000  Uiso   1.00
H692   H     0.74367   0.27134   0.59657   0.00000  Uiso   1.00
H693   H     0.69110   0.17963   0.36690   0.00000  Uiso   1.00
H694   H     0.73490   0.14514   0.34884   0.00000  Uiso   1.00
H695   H     0.74177   0.18606   0.39762   0.00000  Uiso   1.00
H696   H     0.97056   0.23289   0.59836   0.00000  Uiso   1.00
H697   H     0.97558   0.15373   0.63312   0.00000  Uiso   1.00
H698   H     0.92492   0.14726   0.60238   0.00000  Uiso   1.00
H699   H     0.93176   0.18821   0.65116   0.00000  Uiso   1.00
H700   H     0.96189   0.12959   0.38726   0.00000  Uiso   1.00
N701   N     0.83333   0.28573   0.50000   0.00000  Uiso   1.00
N702   N     0.89307   0.26820   0.61016   0.00000  Uiso   1.00
N703   N     0.83333   0.04760   0.50000   0.00000  Uiso   1.00
N704   N     0.70896   0.12861   0.41778   0.00000  Uiso   1.00
N705   N     0.95770   0.20473   0.58222   0.00000  Uiso   1.00
N706   N     0.95351   0.12158   0.42313   0.00000  Uiso   1.00
N707   N     0.71316   0.21176   0.57686   0.00000  Uiso   1.00
N708   N     0.90060   0.06550   0.60328   0.00000  Uiso   1.00
N709   N     0.76606   0.26783   0.39672   0.00000  Uiso   1.00
N710   N     0.77359   0.06513   0.38984   0.00000  Uiso   1.00
O711   O     0.77226   0.20487   0.50000   0.00000  Uiso   1.00
O712   O     0.89441   0.12846   0.50000   0.00000  Uiso   1.00
O713   O     0.89441   0.20487   0.50000   0.00000  Uiso   1.00
O714   O     0.77226   0.12846   0.50000   0.00000  Uiso   1.00
O715   O     0.83334   0.20488   0.42845   0.00000  Uiso   1.00
O716   O     0.83333   0.12845   0.57155   0.00000  Uiso   1.00
O717   O     0.83333   0.20488   0.57155   0.00000  Uiso   1.00
O718   O     0.83334   0.12845   0.42845   0.00000  Uiso   1.00
Zn719  Zn    0.83333   0.21771   0.50000   0.00000  Uiso   1.00
Zn720  Zn    0.83333   0.11563   0.50000   0.00000  Uiso   1.00
C721   C     0.08686   0.50034   0.49940   0.00000  Uiso   1.00
C722   C     0.02254   0.52334   0.53812   0.00000  Uiso   1.00
C723   C     0.29075   0.49842   0.50136   0.00000  Uiso   1.00
C724   C     0.04258   0.50158   0.49864   0.00000  Uiso   1.00
C725   C     0.18897   0.35718   0.53567   0.00000  Uiso   1.00
C726   C     0.14436   0.64281   0.46433   0.00000  Uiso   1.00
C727   C     0.14483   0.35728   0.46390   0.00000  Uiso   1.00
C728   C     0.18850   0.64272   0.53610   0.00000  Uiso   1.00
C729   C     0.05295   0.49503   0.38092   0.00000  Uiso   1.00
C730   C     0.28039   0.50498   0.61908   0.00000  Uiso   1.00
C731   C     0.28113   0.40725   0.42997   0.00000  Uiso   1.00
C732   C     0.24648   0.49966   0.50060   0.00000  Uiso   1.00
C733   C     0.05219   0.59277   0.57001   0.00000  Uiso   1.00
C734   C     0.21379   0.38075   0.57295   0.00000  Uiso   1.00
C735   C     0.11954   0.61925   0.42705   0.00000  Uiso   1.00
C736   C     0.12364   0.38068   0.42333   0.00000  Uiso   1.00
C737   C     0.20969   0.61932   0.57667   0.00000  Uiso   1.00
C738   C     0.16681   0.49996   0.40635   0.00000  Uiso   1.00
C739   C     0.16652   0.50004   0.59365   0.00000  Uiso   1.00
C740   C     0.16674   0.49995   0.35517   0.00000  Uiso   1.00
C741   C     0.16660   0.50005   0.64483   0.00000  Uiso   1.00
C742   C     0.02070   0.47959   0.45961   0.00000  Uiso   1.00
C743   C     0.31264   0.52041   0.54038   0.00000  Uiso   1.00
C744   C     0.31079   0.47666   0.46188   0.00000  Uiso   1.00
H745   H     0.02944   0.43378   0.40163   0.00000  Uiso   1.00
H746   H     0.31038   0.38849   0.42258   0.00000  Uiso   1.00
H747   H     0.25631   0.39535   0.40341   0.00000  Uiso   1.00
H748   H     0.27165   0.39957   0.46870   0.00000  Uiso   1.00
H749   H     0.03811   0.53710   0.61273   0.00000  Uiso   1.00
H750   H     0.02294   0.61152   0.57738   0.00000  Uiso   1.00
H751   H     0.06168   0.60043   0.53127   0.00000  Uiso   1.00
H752   H     0.07701   0.60467   0.59657   0.00000  Uiso   1.00
H753   H     0.02444   0.51296   0.36690   0.00000  Uiso   1.00
H754   H     0.06824   0.47847   0.34884   0.00000  Uiso   1.00
H755   H     0.07511   0.51940   0.39762   0.00000  Uiso   1.00
H756   H     0.30389   0.56623   0.59836   0.00000  Uiso   1.00
H757   H     0.30891   0.48707   0.63312   0.00000  Uiso   1.00
H758   H     0.25825   0.48059   0.60238   0.00000  Uiso   1.00
H759   H     0.26509   0.52154   0.65116   0.00000  Uiso   1.00
H760   H     0.29522   0.46292   0.38726   0.00000  Uiso   1.00
N761   N     0.16667   0.61907   0.50000   0.00000  Uiso   1.00
N762   N     0.22640   0.60154   0.61016   0.00000  Uiso   1.00
N763   N     0.16667   0.38093   0.50000   0.00000  Uiso   1.00
N764   N     0.04230   0.46194   0.41778   0.00000  Uiso   1.00
N765   N     0.29104   0.53806   0.58222   0.00000  Uiso   1.00
N766   N     0.28684   0.45492   0.42313   0.00000  Uiso   1.00
N767   N     0.04649   0.54510   0.57686   0.00000  Uiso   1.00
N768   N     0.23394   0.39884   0.60328   0.00000  Uiso   1.00
N769   N     0.09939   0.60116   0.39672   0.00000  Uiso   1.00
N770   N     0.10693   0.39846   0.38984   0.00000  Uiso   1.00
O771   O     0.10559   0.53821   0.50000   0.00000  Uiso   1.00
O772   O     0.22774   0.46179   0.50000   0.00000  Uiso   1.00
O773   O     0.22774   0.53821   0.50000   0.00000  Uiso   1.00
O774   O     0.10559   0.46179   0.50000   0.00000  Uiso   1.00
O775   O     0.16667   0.53821   0.42845   0.00000  Uiso   1.00
O776   O     0.16666   0.46179   0.57155   0.00000  Uiso   1.00
O777   O     0.16666   0.53821   0.57155   0.00000  Uiso   1.00
O778   O     0.16667   0.46179   0.42845   0.00000  Uiso   1.00
Zn779  Zn    0.16667   0.55104   0.50000   0.00000  Uiso   1.00
Zn780  Zn    0.16667   0.44896   0.50000   0.00000  Uiso   1.00
C781   C     0.42019   0.50034   0.49940   0.00000  Uiso   1.00
C782   C     0.35587   0.52334   0.53812   0.00000  Uiso   1.00
C783   C     0.62408   0.49842   0.50136   0.00000  Uiso   1.00
C784   C     0.37592   0.50158   0.49864   0.00000  Uiso   1.00
C785   C     0.52231   0.35718   0.53567   0.00000  Uiso   1.00
C786   C     0.47769   0.64281   0.46433   0.00000  Uiso   1.00
C787   C     0.47817   0.35728   0.46390   0.00000  Uiso   1.00
C788   C     0.52183   0.64272   0.53610   0.00000  Uiso   1.00
C789   C     0.38628   0.49503   0.38092   0.00000  Uiso   1.00
C790   C     0.61372   0.50498   0.61908   0.00000  Uiso   1.00
C791   C     0.61447   0.40725   0.42997   0.00000  Uiso   1.00
C792   C     0.57981   0.49966   0.50060   0.00000  Uiso   1.00
C793   C     0.38552   0.59277   0.57001   0.00000  Uiso   1.00
C794   C     0.54712   0.38075   0.57295   0.00000  Uiso   1.00
C795   C     0.45287   0.61925   0.42705   0.00000  Uiso   1.00
C796   C     0.45697   0.38068   0.42333   0.00000  Uiso   1.00
C797   C     0.54303   0.61932   0.57667   0.00000  Uiso   1.00
C798   C     0.50014   0.49996   0.40635   0.00000  Uiso   1.00
C799   C     0.49986   0.50004   0.59365   0.00000  Uiso   1.00
C800   C     0.50007   0.49995   0.35517   0.00000  Uiso   1.00
C801   C     0.49993   0.50005   0.64483   0.00000  Uiso   1.00
C802   C     0.35403   0.47959   0.45961   0.00000  Uiso   1.00
C803   C     0.64597   0.52041   0.54038   0.00000  Uiso   1.00
C804   C     0.64413   0.47666   0.46188   0.00000  Uiso   1.00
H805   H     0.36277   0.43378   0.40163   0.00000  Uiso   1.00
H806   H     0.64372   0.38849   0.42258   0.00000  Uiso   1.00
H807   H     0.58964   0.39535   0.40341   0.00000  Uiso   1.00
H808   H     0.60498   0.39957   0.46870   0.00000  Uiso   1.00
H809   H     0.37144   0.53710   0.61273   0.00000  Uiso   1.00
H810   H     0.35627   0.61152   0.57738   0.00000  Uiso   1.00
H811   H     0.39502   0.60043   0.53127   0.00000  Uiso   1.00
H812   H     0.41034   0.60467   0.59657   0.00000  Uiso   1.00
H813   H     0.35777   0.51296   0.36690   0.00000  Uiso   1.00
H814   H     0.40157   0.47847   0.34884   0.00000  Uiso   1.00
H815   H     0.40844   0.51940   0.39762   0.00000  Uiso   1.00
H816   H     0.63722   0.56623   0.59836   0.00000  Uiso   1.00
H817   H     0.64224   0.48707   0.63312   0.00000  Uiso   1.00
H818   H     0.59158   0.48059   0.60238   0.00000  Uiso   1.00
H819   H     0.59842   0.52154   0.65116   0.00000  Uiso   1.00
H820   H     0.62856   0.46292   0.38726   0.00000  Uiso   1.00
N821   N     0.50000   0.61907   0.50000   0.00000  Uiso   1.00
N822   N     0.55974   0.60154   0.61016   0.00000  Uiso   1.00
N823   N     0.50000   0.38093   0.50000   0.00000  Uiso   1.00
N824   N     0.37563   0.46194   0.41778   0.00000  Uiso   1.00
N825   N     0.62437   0.53806   0.58222   0.00000  Uiso   1.00
N826   N     0.62017   0.45492   0.42313   0.00000  Uiso   1.00
N827   N     0.37982   0.54510   0.57686   0.00000  Uiso   1.00
N828   N     0.56727   0.39884   0.60328   0.00000  Uiso   1.00
N829   N     0.43273   0.60116   0.39672   0.00000  Uiso   1.00
N830   N     0.44026   0.39846   0.38984   0.00000  Uiso   1.00
O831   O     0.43892   0.53821   0.50000   0.00000  Uiso   1.00
O832   O     0.56108   0.46179   0.50000   0.00000  Uiso   1.00
O833   O     0.56108   0.53821   0.50000   0.00000  Uiso   1.00
O834   O     0.43892   0.46179   0.50000   0.00000  Uiso   1.00
O835   O     0.50000   0.53821   0.42845   0.00000  Uiso   1.00
O836   O     0.50000   0.46179   0.57155   0.00000  Uiso   1.00
O837   O     0.50000   0.53821   0.57155   0.00000  Uiso   1.00
O838   O     0.50000   0.46179   0.42845   0.00000  Uiso   1.00
Zn839  Zn    0.50000   0.55104   0.50000   0.00000  Uiso   1.00
Zn840  Zn    0.50000   0.44896   0.50000   0.00000  Uiso   1.00
C841   C     0.75352   0.50034   0.49940   0.00000  Uiso   1.00
C842   C     0.68921   0.52334   0.53812   0.00000  Uiso   1.00
C843   C     0.95742   0.49842   0.50136   0.00000  Uiso   1.00
C844   C     0.70925   0.50158   0.49864   0.00000  Uiso   1.00
C845   C     0.85564   0.35718   0.53567   0.00000  Uiso   1.00
C846   C     0.81103   0.64281   0.46433   0.00000  Uiso   1.00
C847   C     0.81150   0.35728   0.46390   0.00000  Uiso   1.00
C848   C     0.85517   0.64272   0.53610   0.00000  Uiso   1.00
C849   C     0.71962   0.49503   0.38092   0.00000  Uiso   1.00
C850   C     0.94706   0.50498   0.61908   0.00000  Uiso   1.00
C851   C     0.94780   0.40725   0.42997   0.00000  Uiso   1.00
C852   C     0.91314   0.49966   0.50060   0.00000  Uiso   1.00
C853   C     0.71886   0.59277   0.57001   0.00000  Uiso   1.00
C854   C     0.88046   0.38075   0.57295   0.00000  Uiso   1.00
C855   C     0.78621   0.61925   0.42705   0.00000  Uiso   1.00
C856   C     0.79030   0.38068   0.42333   0.00000  Uiso   1.00
C857   C     0.87636   0.61932   0.57667   0.00000  Uiso   1.00
C858   C     0.83348   0.49996   0.40635   0.00000  Uiso   1.00
C859   C     0.83319   0.50004   0.59365   0.00000  Uiso   1.00
C860   C     0.83340   0.49995   0.35517   0.00000  Uiso   1.00
C861   C     0.83326   0.50005   0.64483   0.00000  Uiso   1.00
C862   C     0.68736   0.47959   0.45961   0.00000  Uiso   1.00
C863   C     0.97930   0.52041   0.54038   0.00000  Uiso   1.00
C864   C     0.97746   0.47666   0.46188   0.00000  Uiso   1.00
H865   H     0.69610   0.43378   0.40163   0.00000  Uiso   1.00
H866   H     0.97705   0.38849   0.42258   0.00000  Uiso   1.00
H867   H     0.92298   0.39535   0.40341   0.00000  Uiso   1.00
H868   H     0.93831   0.39957   0.46870   0.00000  Uiso   1.00
H869   H     0.70477   0.53710   0.61273   0.00000  Uiso   1.00
H870   H     0.68961   0.61152   0.57738   0.00000  Uiso   1.00
H871   H     0.72835   0.60043   0.53127   0.00000  Uiso   1.00
H872   H     0.74367   0.60467   0.59657   0.00000  Uiso   1.00
H873   H     0.69110   0.51296   0.36690   0.00000  Uiso   1.00
H874   H     0.73490   0.47847   0.34884   0.00000  Uiso   1.00
H875   H     0.74177   0.51940   0.39762   0.00000  Uiso   1.00
H876   H     0.97056   0.56623   0.59836   0.00000  Uiso   1.00
H877   H     0.97558   0.48707   0.63312   0.00000  Uiso   1.00
H878   H     0.92492   0.48059   0.60238   0.00000  Uiso   1.00
H879   H     0.93176   0.52154   0.65116   0.00000  Uiso   1.00
H880   H     0.96189   0.46292   0.38726   0.00000  Uiso   1.00
N881   N     0.83333   0.61907   0.50000   0.00000  Uiso   1.00
N882   N     0.89307   0.60154   0.61016   0.00000  Uiso   1.00
N883   N     0.83333   0.38093   0.50000   0.00000  Uiso   1.00
N884   N     0.70896   0.46194   0.41778   0.00000  Uiso   1.00
N885   N     0.95770   0.53806   0.58222   0.00000  Uiso   1.00
N886   N     0.95351   0.45492   0.42313   0.00000  Uiso   1.00
N887   N     0.71316   0.54510   0.57686   0.00000  Uiso   1.00
N888   N     0.90060   0.39884   0.60328   0.00000  Uiso   1.00
N889   N     0.76606   0.60116   0.39672   0.00000  Uiso   1.00
N890   N     0.77359   0.39846   0.38984   0.00000  Uiso   1.00
O891   O     0.77226   0.53821   0.50000   0.00000  Uiso   1.00
O892   O     0.89441   0.46179   0.50000   0.00000  Uiso   1.00
O893   O     0.89441   0.53821   0.50000   0.00000  Uiso   1.00
O894   O     0.77226   0.46179   0.50000   0.00000  Uiso   1.00
O895   O     0.83334   0.53821   0.42845   0.00000  Uiso   1.00
O896   O     0.83333   0.46179   0.57155   0.00000  Uiso   1.00
O897   O     0.83333   0.53821   0.57155   0.00000  Uiso   1.00
O898   O     0.83334   0.46179   0.42845   0.00000  Uiso   1.00
Zn899  Zn    0.83333   0.55104   0.50000   0.00000  Uiso   1.00
Zn900  Zn    0.83333   0.44896   0.50000   0.00000  Uiso   1.00
C901   C     0.08686   0.83368   0.49940   0.00000  Uiso   1.00
C902   C     0.02254   0.85668   0.53812   0.00000  Uiso   1.00
C903   C     0.29075   0.83175   0.50136   0.00000  Uiso   1.00
C904   C     0.04258   0.83491   0.49864   0.00000  Uiso   1.00
C905   C     0.18897   0.69052   0.53567   0.00000  Uiso   1.00
C906   C     0.14436   0.97615   0.46433   0.00000  Uiso   1.00
C907   C     0.14483   0.69061   0.46390   0.00000  Uiso   1.00
C908   C     0.18850   0.97605   0.53610   0.00000  Uiso   1.00
C909   C     0.05295   0.82836   0.38092   0.00000  Uiso   1.00
C910   C     0.28039   0.83831   0.61908   0.00000  Uiso   1.00
C911   C     0.28113   0.74058   0.42997   0.00000  Uiso   1.00
C912   C     0.24648   0.83299   0.50060   0.00000  Uiso   1.00
C913   C     0.05219   0.92610   0.57001   0.00000  Uiso   1.00
C914   C     0.21379   0.71408   0.57295   0.00000  Uiso   1.00
C915   C     0.11954   0.95259   0.42705   0.00000  Uiso   1.00
C916   C     0.12364   0.71401   0.42333   0.00000  Uiso   1.00
C917   C     0.20969   0.95266   0.57667   0.00000  Uiso   1.00
C918   C     0.16681   0.83330   0.40635   0.00000  Uiso   1.00
C919   C     0.16652   0.83337   0.59365   0.00000  Uiso   1.00
C920   C     0.16674   0.83328   0.35517   0.00000  Uiso   1.00
C921   C     0.16660   0.83339   0.64483   0.00000  Uiso   1.00
C922   C     0.02070   0.81293   0.45961   0.00000  Uiso   1.00
C923   C     0.31264   0.85374   0.54038   0.00000  Uiso   1.00
C924   C     0.31079   0.80999   0.46188   0.00000  Uiso   1.00
H925   H     0.02944   0.76712   0.40163   0.00000  Uiso   1.00
H926   H     0.31038   0.72182   0.42258   0.00000  Uiso   1.00
H927   H     0.25631   0.72868   0.40341   0.00000  Uiso   1.00
H928   H     0.27165   0.73290   0.46870   0.00000  Uiso   1.00
H929   H     0.03811   0.87043   0.61273   0.00000  Uiso   1.00
H930   H     0.02294   0.94485   0.57738   0.00000  Uiso   1.00
H931   H     0.06168   0.93377   0.53127   0.00000  Uiso   1.00
H932   H     0.07701   0.93801   0.59657   0.00000  Uiso   1.00
H933   H     0.02444   0.84629   0.36690   0.00000  Uiso   1.00
H934   H     0.06824   0.81180   0.34884   0.00000  Uiso   1.00
H935   H     0.07511   0.85273   0.39762   0.00000  Uiso   1.00
H936   H     0.30389   0.89956   0.59836   0.00000  Uiso   1.00
H937   H     0.30891   0.82040   0.63312   0.00000  Uiso   1.00
H938   H     0.25825   0.81393   0.60238   0.00000  Uiso   1.00
H939   H     0.26509   0.85487   0.65116   0.00000  Uiso   1.00
H940   H     0.29522   0.79626   0.38726   0.00000  Uiso   1.00
N941   N     0.16667   0.95240   0.50000   0.00000  Uiso   1.00
N942   N     0.22640   0.93487   0.61016   0.00000  Uiso   1.00
N943   N     0.16667   0.71427   0.50000   0.00000  Uiso   1.00
N944   N     0.04230   0.79528   0.41778   0.00000  Uiso   1.00
N945   N     0.29104   0.87139   0.58222   0.00000  Uiso   1.00
N946   N     0.28684   0.78825   0.42313   0.00000  Uiso   1.00
N947   N     0.04649   0.87843   0.57686   0.00000  Uiso   1.00
N948   N     0.23394   0.73217   0.60328   0.00000  Uiso   1.00
N949   N     0.09939   0.93450   0.39672   0.00000  Uiso   1.00
N950   N     0.10693   0.73180   0.38984   0.00000  Uiso   1.00
O951   O     0.10559   0.87154   0.50000   0.00000  Uiso   1.00
O952   O     0.22774   0.79513   0.50000   0.00000  Uiso   1.00
O953   O     0.22774   0.87154   0.50000   0.00000  Uiso   1.00
O954   O     0.10559   0.79513   0.50000   0.00000  Uiso   1.00
O955   O     0.16667   0.87155   0.42845   0.00000  Uiso   1.00
O956   O     0.16666   0.79512   0.57155   0.00000  Uiso   1.00
O957   O     0.16666   0.87155   0.57155   0.00000  Uiso   1.00
O958   O     0.16667   0.79512   0.42845   0.00000  Uiso   1.00
Zn959  Zn    0.16667   0.88437   0.50000   0.00000  Uiso   1.00
Zn960  Zn    0.16667   0.78229   0.50000   0.00000  Uiso   1.00
C961   C     0.42019   0.83368   0.49940   0.00000  Uiso   1.00
C962   C     0.35587   0.85668   0.53812   0.00000  Uiso   1.00
C963   C     0.62408   0.83175   0.50136   0.00000  Uiso   1.00
C964   C     0.37592   0.83491   0.49864   0.00000  Uiso   1.00
C965   C     0.52231   0.69052   0.53567   0.00000  Uiso   1.00
C966   C     0.47769   0.97615   0.46433   0.00000  Uiso   1.00
C967   C     0.47817   0.69061   0.46390   0.00000  Uiso   1.00
C968   C     0.52183   0.97605   0.53610   0.00000  Uiso   1.00
C969   C     0.38628   0.82836   0.38092   0.00000  Uiso   1.00
C970   C     0.61372   0.83831   0.61908   0.00000  Uiso   1.00
C971   C     0.61447   0.74058   0.42997   0.00000  Uiso   1.00
C972   C     0.57981   0.83299   0.50060   0.00000  Uiso   1.00
C973   C     0.38552   0.92610   0.57001   0.00000  Uiso   1.00
C974   C     0.54712   0.71408   0.57295   0.00000  Uiso   1.00
C975   C     0.45287   0.95259   0.42705   0.00000  Uiso   1.00
C976   C     0.45697   0.71401   0.42333   0.00000  Uiso   1.00
C977   C     0.54303   0.95266   0.57667   0.00000  Uiso   1.00
C978   C     0.50014   0.83330   0.40635   0.00000  Uiso   1.00
C979   C     0.49986   0.83337   0.59365   0.00000  Uiso   1.00
C980   C     0.50007   0.83328   0.35517   0.00000  Uiso   1.00
C981   C     0.49993   0.83339   0.64483   0.00000  Uiso   1.00
C982   C     0.35403   0.81293   0.45961   0.00000  Uiso   1.00
C983   C     0.64597   0.85374   0.54038   0.00000  Uiso   1.00
C984   C     0.64413   0.80999   0.46188   0.00000  Uiso   1.00
H985   H     0.36277   0.76712   0.40163   0.00000  Uiso   1.00
H986   H     0.64372   0.72182   0.42258   0.00000  Uiso   1.00
H987   H     0.58964   0.72868   0.40341   0.00000  Uiso   1.00
H988   H     0.60498   0.73290   0.46870   0.00000  Uiso   1.00
H989   H     0.37144   0.87043   0.61273   0.00000  Uiso   1.00
H990   H     0.35627   0.94485   0.57738   0.00000  Uiso   1.00
H991   H     0.39502   0.93377   0.53127   0.00000  Uiso   1.00
H992   H     0.41034   0.93801   0.59657   0.00000  Uiso   1.00
H993   H     0.35777   0.84629   0.36690   0.00000  Uiso   1.00
H994   H     0.40157   0.81180   0.34884   0.00000  Uiso   1.00
H995   H     0.40844   0.85273   0.39762   0.00000  Uiso   1.00
H996   H     0.63722   0.89956   0.59836   0.00000  Uiso   1.00
H997   H     0.64224   0.82040   0.63312   0.00000  Uiso   1.00
H998   H     0.59158   0.81393   0.60238   0.00000  Uiso   1.00
H999   H     0.59842   0.85487   0.65116   0.00000  Uiso   1.00
H1000  H     0.62856   0.79626   0.38726   0.00000  Uiso   1.00
N1001  N     0.50000   0.95240   0.50000   0.00000  Uiso   1.00
N1002  N     0.55974   0.93487   0.61016   0.00000  Uiso   1.00
N1003  N     0.50000   0.71427   0.50000   0.00000  Uiso   1.00
N1004  N     0.37563   0.79528   0.41778   0.00000  Uiso   1.00
N1005  N     0.62437   0.87139   0.58222   0.00000  Uiso   1.00
N1006  N     0.62017   0.78825   0.42313   0.00000  Uiso   1.00
N1007  N     0.37982   0.87843   0.57686   0.00000  Uiso   1.00
N1008  N     0.56727   0.73217   0.60328   0.00000  Uiso   1.00
N1009  N     0.43273   0.93450   0.39672   0.00000  Uiso   1.00
N1010  N     0.44026   0.73180   0.38984   0.00000  Uiso   1.00
O1011  O     0.43892   0.87154   0.50000   0.00000  Uiso   1.00
O1012  O     0.56108   0.79513   0.50000   0.00000  Uiso   1.00
O1013  O     0.56108   0.87154   0.50000   0.00000  Uiso   1.00
O1014  O     0.43892   0.79513   0.50000   0.00000  Uiso   1.00
O1015  O     0.50000   0.87155   0.42845   0.00000  Uiso   1.00
O1016  O     0.50000   0.79512   0.57155   0.00000  Uiso   1.00
O1017  O     0.50000   0.87155   0.57155   0.00000  Uiso   1.00
O1018  O     0.50000   0.79512   0.42845   0.00000  Uiso   1.00
Zn1019 Zn    0.50000   0.88437   0.50000   0.00000  Uiso   1.00
Zn1020 Zn    0.50000   0.78229   0.50000   0.00000  Uiso   1.00
C1021  C     0.75352   0.83368   0.49940   0.00000  Uiso   1.00
C1022  C     0.68921   0.85668   0.53812   0.00000  Uiso   1.00
C1023  C     0.95742   0.83175   0.50136   0.00000  Uiso   1.00
C1024  C     0.70925   0.83491   0.49864   0.00000  Uiso   1.00
C1025  C     0.85564   0.69052   0.53567   0.00000  Uiso   1.00
C1026  C     0.81103   0.97615   0.46433   0.00000  Uiso   1.00
C1027  C     0.81150   0.69061   0.46390   0.00000  Uiso   1.00
C1028  C     0.85517   0.97605   0.53610   0.00000  Uiso   1.00
C1029  C     0.71962   0.82836   0.38092   0.00000  Uiso   1.00
C1030  C     0.94706   0.83831   0.61908   0.00000  Uiso   1.00
C1031  C     0.94780   0.74058   0.42997   0.00000  Uiso   1.00
C1032  C     0.91314   0.83299   0.50060   0.00000  Uiso   1.00
C1033  C     0.71886   0.92610   0.57001   0.00000  Uiso   1.00
C1034  C     0.88046   0.71408   0.57295   0.00000  Uiso   1.00
C1035  C     0.78621   0.95259   0.42705   0.00000  Uiso   1.00
C1036  C     0.79030   0.71401   0.42333   0.00000  Uiso   1.00
C1037  C     0.87636   0.95266   0.57667   0.00000  Uiso   1.00
C1038  C     0.83348   0.83330   0.40635   0.00000  Uiso   1.00
C1039  C     0.83319   0.83337   0.59365   0.00000  Uiso   1.00
C1040  C     0.83340   0.83328   0.35517   0.00000  Uiso   1.00
C1041  C     0.83326   0.83339   0.64483   0.00000  Uiso   1.00
C1042  C     0.68736   0.81293   0.45961   0.00000  Uiso   1.00
C1043  C     0.97930   0.85374   0.54038   0.00000  Uiso   1.00
C1044  C     0.97746   0.80999   0.46188   0.00000  Uiso   1.00
H1045  H     0.69610   0.76712   0.40163   0.00000  Uiso   1.00
H1046  H     0.97705   0.72182   0.42258   0.00000  Uiso   1.00
H1047  H     0.92298   0.72868   0.40341   0.00000  Uiso   1.00
H1048  H     0.93831   0.73290   0.46870   0.00000  Uiso   1.00
H1049  H     0.70477   0.87043   0.61273   0.00000  Uiso   1.00
H1050  H     0.68961   0.94485   0.57738   0.00000  Uiso   1.00
H1051  H     0.72835   0.93377   0.53127   0.00000  Uiso   1.00
H1052  H     0.74367   0.93801   0.59657   0.00000  Uiso   1.00
H1053  H     0.69110   0.84629   0.36690   0.00000  Uiso   1.00
H1054  H     0.73490   0.81180   0.34884   0.00000  Uiso   1.00
H1055  H     0.74177   0.85273   0.39762   0.00000  Uiso   1.00
H1056  H     0.97056   0.89956   0.59836   0.00000  Uiso   1.00
H1057  H     0.97558   0.82040   0.63312   0.00000  Uiso   1.00
H1058  H     0.92492   0.81393   0.60238   0.00000  Uiso   1.00
H1059  H     0.93176   0.85487   0.65116   0.00000  Uiso   1.00
H1060  H     0.96189   0.79626   0.38726   0.00000  Uiso   1.00
N1061  N     0.83333   0.95240   0.50000   0.00000  Uiso   1.00
N1062  N     0.89307   0.93487   0.61016   0.00000  Uiso   1.00
N1063  N     0.83333   0.71427   0.50000   0.00000  Uiso   1.00
N1064  N     0.70896   0.79528   0.41778   0.00000  Uiso   1.00
N1065  N     0.95770   0.87139   0.58222   0.00000  Uiso   1.00
N1066  N     0.95351   0.78825   0.42313   0.00000  Uiso   1.00
N1067  N     0.71316   0.87843   0.57686   0.00000  Uiso   1.00
N1068  N     0.90060   0.73217   0.60328   0.00000  Uiso   1.00
N1069  N     0.76606   0.93450   0.39672   0.00000  Uiso   1.00
N1070  N     0.77359   0.73180   0.38984   0.00000  Uiso   1.00
O1071  O     0.77226   0.87154   0.50000   0.00000  Uiso   1.00
O1072  O     0.89441   0.79513   0.50000   0.00000  Uiso   1.00
O1073  O     0.89441   0.87154   0.50000   0.00000  Uiso   1.00
O1074  O     0.77226   0.79513   0.50000   0.00000  Uiso   1.00
O1075  O     0.83334   0.87155   0.42845   0.00000  Uiso   1.00
O1076  O     0.83333   0.79512   0.57155   0.00000  Uiso   1.00
O1077  O     0.83333   0.87155   0.57155   0.00000  Uiso   1.00
O1078  O     0.83334   0.79512   0.42845   0.00000  Uiso   1.00
Zn1079 Zn    0.83333   0.88437   0.50000   0.00000  Uiso   1.00
Zn1080 Zn    0.83333   0.78229   0.50000   0.00000  Uiso   1.00
C1081  C     0.08686   0.16701   0.83274   0.00000  Uiso   1.00
C1082  C     0.02254   0.19001   0.87145   0.00000  Uiso   1.00
C1083  C     0.29075   0.16509   0.83470   0.00000  Uiso   1.00
C1084  C     0.04258   0.16825   0.83197   0.00000  Uiso   1.00
C1085  C     0.18897   0.02385   0.86900   0.00000  Uiso   1.00
C1086  C     0.14436   0.30948   0.79767   0.00000  Uiso   1.00
C1087  C     0.14483   0.02395   0.79724   0.00000  Uiso   1.00
C1088  C     0.18850   0.30939   0.86943   0.00000  Uiso   1.00
C1089  C     0.05295   0.16170   0.71425   0.00000  Uiso   1.00
C1090  C     0.28039   0.17165   0.95242   0.00000  Uiso   1.00
C1091  C     0.28113   0.07391   0.76330   0.00000  Uiso   1.00
C1092  C     0.24648   0.16632   0.83393   0.00000  Uiso   1.00
C1093  C     0.05219   0.25943   0.90334   0.00000  Uiso   1.00
C1094  C     0.21379   0.04741   0.90628   0.00000  Uiso   1.00
C1095  C     0.11954   0.28592   0.76038   0.00000  Uiso   1.00
C1096  C     0.12364   0.04734   0.75667   0.00000  Uiso   1.00
C1097  C     0.20969   0.28599   0.91000   0.00000  Uiso   1.00
C1098  C     0.16681   0.16663   0.73968   0.00000  Uiso   1.00
C1099  C     0.16652   0.16670   0.92699   0.00000  Uiso   1.00
C1100  C     0.16674   0.16661   0.68850   0.00000  Uiso   1.00
C1101  C     0.16660   0.16672   0.97817   0.00000  Uiso   1.00
C1102  C     0.02070   0.14626   0.79295   0.00000  Uiso   1.00
C1103  C     0.31264   0.18708   0.87372   0.00000  Uiso   1.00
C1104  C     0.31079   0.14332   0.79521   0.00000  Uiso   1.00
H1105  H     0.02944   0.10045   0.73496   0.00000  Uiso   1.00
H1106  H     0.31038   0.05515   0.75592   0.00000  Uiso   1.00
H1107  H     0.25631   0.06202   0.73675   0.00000  Uiso   1.00
H1108  H     0.27165   0.06624   0.80204   0.00000  Uiso   1.00
H1109  H     0.03811   0.20376   0.94606   0.00000  Uiso   1.00
H1110  H     0.02294   0.27819   0.91071   0.00000  Uiso   1.00
H1111  H     0.06168   0.26710   0.86461   0.00000  Uiso   1.00
H1112  H     0.07701   0.27134   0.92990   0.00000  Uiso   1.00
H1113  H     0.02444   0.17963   0.70023   0.00000  Uiso   1.00
H1114  H     0.06824   0.14514   0.68217   0.00000  Uiso   1.00
H1115  H     0.07511   0.18606   0.73095   0.00000  Uiso   1.00
H1116  H     0.30389   0.23289   0.93170   0.00000  Uiso   1.00
H1117  H     0.30891   0.15373   0.96646   0.00000  Uiso   1.00
H1118  H     0.25825   0.14726   0.93572   0.00000  Uiso   1.00
H1119  H     0.26509   0.18821   0.98449   0.00000  Uiso   1.00
H1120  H     0.29522   0.12959   0.72060   0.00000  Uiso   1.00
N1121  N     0.16667   0.28573   0.83333   0.00000  Uiso   1.00
N1122  N     0.22640   0.26820   0.94349   0.00000  Uiso   1.00
N1123  N     0.16667   0.04760   0.83333   0.00000  Uiso   1.00
N1124  N     0.04230   0.12861   0.75111   0.00000  Uiso   1.00
N1125  N     0.29104   0.20473   0.91555   0.00000  Uiso   1.00
N1126  N     0.28684   0.12158   0.75647   0.00000  Uiso   1.00
N1127  N     0.04649   0.21176   0.91019   0.00000  Uiso   1.00
N1128  N     0.23394   0.06550   0.93661   0.00000  Uiso   1.00
N1129  N     0.09939   0.26783   0.73006   0.00000  Uiso   1.00
N1130  N     0.10693   0.06513   0.72318   0.00000  Uiso   1.00
O1131  O     0.10559   0.20487   0.83333   0.00000  Uiso   1.00
O1132  O     0.22774   0.12846   0.83334   0.00000  Uiso   1.00
O1133  O     0.22774   0.20487   0.83334   0.00000  Uiso   1.00
O1134  O     0.10559   0.12846   0.83333   0.00000  Uiso   1.00
O1135  O     0.16667   0.20488   0.76178   0.00000  Uiso   1.00
O1136  O     0.16666   0.12845   0.90489   0.00000  Uiso   1.00
O1137  O     0.16666   0.20488   0.90489   0.00000  Uiso   1.00
O1138  O     0.16667   0.12845   0.76178   0.00000  Uiso   1.00
Zn1139 Zn    0.16667   0.21771   0.83333   0.00000  Uiso   1.00
Zn1140 Zn    0.16667   0.11563   0.83333   0.00000  Uiso   1.00
C1141  C     0.42019   0.16701   0.83274   0.00000  Uiso   1.00
C1142  C     0.35587   0.19001   0.87145   0.00000  Uiso   1.00
C1143  C     0.62408   0.16509   0.83470   0.00000  Uiso   1.00
C1144  C     0.37592   0.16825   0.83197   0.00000  Uiso   1.00
C1145  C     0.52231   0.02385   0.86900   0.00000  Uiso   1.00
C1146  C     0.47769   0.30948   0.79767   0.00000  Uiso   1.00
C1147  C     0.47817   0.02395   0.79724   0.00000  Uiso   1.00
C1148  C     0.52183   0.30939   0.86943   0.00000  Uiso   1.00
C1149  C     0.38628   0.16170   0.71425   0.00000  Uiso   1.00
C1150  C     0.61372   0.17165   0.95242   0.00000  Uiso   1.00
C1151  C     0.61447   0.07391   0.76330   0.00000  Uiso   1.00
C1152  C     0.57981   0.16632   0.83393   0.00000  Uiso   1.00
C1153  C     0.38552   0.25943   0.90334   0.00000  Uiso   1.00
C1154  C     0.54712   0.04741   0.90628   0.00000  Uiso   1.00
C1155  C     0.45287   0.28592   0.76038   0.00000  Uiso   1.00
C1156  C     0.45697   0.04734   0.75667   0.00000  Uiso   1.00
C1157  C     0.54303   0.28599   0.91000   0.00000  Uiso   1.00
C1158  C     0.50014   0.16663   0.73968   0.00000  Uiso   1.00
C1159  C     0.49986   0.16670   0.92699   0.00000  Uiso   1.00
C1160  C     0.50007   0.16661   0.68850   0.00000  Uiso   1.00
C1161  C     0.49993   0.16672   0.97817   0.00000  Uiso   1.00
C1162  C     0.35403   0.14626   0.79295   0.00000  Uiso   1.00
C1163  C     0.64597   0.18708   0.87372   0.00000  Uiso   1.00
C1164  C     0.64413   0.14332   0.79521   0.00000  Uiso   1.00
H1165  H     0.36277   0.10045   0.73496   0.00000  Uiso   1.00
H1166  H     0.64372   0.05515   0.75592   0.00000  Uiso   1.00
H1167  H     0.58964   0.06202   0.73675   0.00000  Uiso   1.00
H1168  H     0.60498   0.06624   0.80204   0.00000  Uiso   1.00
H1169  H     0.37144   0.20376   0.94606   0.00000  Uiso   1.00
H1170  H     0.35627   0.27819   0.91071   0.00000  Uiso   1.00
H1171  H     0.39502   0.26710   0.86461   0.00000  Uiso   1.00
H1172  H     0.41034   0.27134   0.92990   0.00000  Uiso   1.00
H1173  H     0.35777   0.17963   0.70023   0.00000  Uiso   1.00
H1174  H     0.40157   0.14514   0.68217   0.00000  Uiso   1.00
H1175  H     0.40844   0.18606   0.73095   0.00000  Uiso   1.00
H1176  H     0.63722   0.23289   0.93170   0.00000  Uiso   1.00
H1177  H     0.64224   0.15373   0.96646   0.00000  Uiso   1.00
H1178  H     0.59158   0.14726   0.93572   0.00000  Uiso   1.00
H1179  H     0.59842   0.18821   0.98449   0.00000  Uiso   1.00
H1180  H     0.62856   0.12959   0.72060   0.00000  Uiso   1.00
N1181  N     0.50000   0.28573   0.83333   0.00000  Uiso   1.00
N1182  N     0.55974   0.26820   0.94349   0.00000  Uiso   1.00
N1183  N     0.50000   0.04760   0.83333   0.00000  Uiso   1.00
N1184  N     0.37563   0.12861   0.75111   0.00000  Uiso   1.00
N1185  N     0.62437   0.20473   0.91555   0.00000  Uiso   1.00
N1186  N     0.62017   0.12158   0.75647   0.00000  Uiso   1.00
N1187  N     0.37982   0.21176   0.91019   0.00000  Uiso   1.00
N1188  N     0.56727   0.06550   0.93661   0.00000  Uiso   1.00
N1189  N     0.43273   0.26783   0.73006   0.00000  Uiso   1.00
N1190  N     0.44026   0.06513   0.72318   0.00000  Uiso   1.00
O1191  O     0.43892   0.20487   0.83333   0.00000  Uiso   1.00
O1192  O     0.56108   0.12846   0.83334   0.00000  Uiso   1.00
O1193  O     0.56108   0.20487   0.83334   0.00000  Uiso   1.00
O1194  O     0.43892   0.12846   0.83333   0.00000  Uiso   1.00
O1195  O     0.50000   0.20488   0.76178   0.00000  Uiso   1.00
O1196  O     0.50000   0.12845   0.90489   0.00000  Uiso   1.00
O1197  O     0.50000   0.20488   0.90489   0.00000  Uiso   1.00
O1198  O     0.50000   0.12845   0.76178   0.00000  Uiso   1.00
Zn1199 Zn    0.50000   0.21771   0.83333   0.00000  Uiso   1.00
Zn1200 Zn    0.50000   0.11563   0.83333   0.00000  Uiso   1.00
C1201  C     0.75352   0.16701   0.83274   0.00000  Uiso   1.00
C1202  C     0.68921   0.19001   0.87145   0.00000  Uiso   1.00
C1203  C     0.95742   0.16509   0.83470   0.00000  Uiso   1.00
C1204  C     0.70925   0.16825   0.83197   0.00000  Uiso   1.00
C1205  C     0.85564   0.02385   0.86900   0.00000  Uiso   1.00
C1206  C     0.81103   0.30948   0.79767   0.00000  Uiso   1.00
C1207  C     0.81150   0.02395   0.79724   0.00000  Uiso   1.00
C1208  C     0.85517   0.30939   0.86943   0.00000  Uiso   1.00
C1209  C     0.71962   0.16170   0.71425   0.00000  Uiso   1.00
C1210  C     0.94706   0.17165   0.95242   0.00000  Uiso   1.00
C1211  C     0.94780   0.07391   0.76330   0.00000  Uiso   1.00
C1212  C     0.91314   0.16632   0.83393   0.00000  Uiso   1.00
C1213  C     0.71886   0.25943   0.90334   0.00000  Uiso   1.00
C1214  C     0.88046   0.04741   0.90628   0.00000  Uiso   1.00
C1215  C     0.78621   0.28592   0.76038   0.00000  Uiso   1.00
C1216  C     0.79030   0.04734   0.75667   0.00000  Uiso   1.00
C1217  C     0.87636   0.28599   0.91000   0.00000  Uiso   1.00
C1218  C     0.83348   0.16663   0.73968   0.00000  Uiso   1.00
C1219  C     0.83319   0.16670   0.92699   0.00000  Uiso   1.00
C1220  C     0.83340   0.16661   0.68850   0.00000  Uiso   1.00
C1221  C     0.83326   0.16672   0.97817   0.00000  Uiso   1.00
C1222  C     0.68736   0.14626   0.79295   0.00000  Uiso   1.00
C1223  C     0.97930   0.18708   0.87372   0.00000  Uiso   1.00
C1224  C     0.97746   0.14332   0.79521   0.00000  Uiso   1.00
H1225  H     0.69610   0.10045   0.73496   0.00000  Uiso   1.00
H1226  H     0.97705   0.05515   0.75592   0.00000  Uiso   1.00
H1227  H     0.92298   0.06202   0.73675   0.00000  Uiso   1.00
H1228  H     0.93831   0.06624   0.80204   0.00000  Uiso   1.00
H1229  H     0.70477   0.20376   0.94606   0.00000  Uiso   1.00
H1230  H     0.68961   0.27819   0.91071   0.00000  Uiso   1.00
H1231  H     0.72835   0.26710   0.86461   0.00000  Uiso   1.00
H1232  H     0.74367   0.27134   0.92990   0.00000  Uiso   1.00
H1233  H     0.69110   0.17963   0.70023   0.00000  Uiso   1.00
H1234  H     0.73490   0.14514   0.68217   0.00000  Uiso   1.00
H1235  H     0.74177   0.18606   0.73095   0.00000  Uiso   1.00
H1236  H     0.97056   0.23289   0.93170   0.00000  Uiso   1.00
H1237  H     0.97558   0.15373   0.96646   0.00000  Uiso   1.00
H1238  H     0.92492   0.14726   0.93572   0.00000  Uiso   1.00
H1239  H     0.93176   0.18821   0.98449   0.00000  Uiso   1.00
H1240  H     0.96189   0.12959   0.72060   0.00000  Uiso   1.00
N1241  N     0.83333   0.28573   0.83333   0.00000  Uiso   1.00
N1242  N     0.89307   0.26820   0.94349   0.00000  Uiso   1.00
N1243  N     0.83333   0.04760   0.83333   0.00000  Uiso   1.00
N1244  N     0.70896   0.12861   0.75111   0.00000  Uiso   1.00
N1245  N     0.95770   0.20473   0.91555   0.00000  Uiso   1.00
N1246  N     0.95351   0.12158   0.75647   0.00000  Uiso   1.00
N1247  N     0.71316   0.21176   0.91019   0.00000  Uiso   1.00
N1248  N     0.90060   0.06550   0.93661   0.00000  Uiso   1.00
N1249  N     0.76606   0.26783   0.73006   0.00000  Uiso   1.00
N1250  N     0.77359   0.06513   0.72318   0.00000  Uiso   1.00
O1251  O     0.77226   0.20487   0.83333   0.00000  Uiso   1.00
O1252  O     0.89441   0.12846   0.83334   0.00000  Uiso   1.00
O1253  O     0.89441   0.20487   0.83334   0.00000  Uiso   1.00
O1254  O     0.77226   0.12846   0.83333   0.00000  Uiso   1.00
O1255  O     0.83334   0.20488   0.76178   0.00000  Uiso   1.00
O1256  O     0.83333   0.12845   0.90489   0.00000  Uiso   1.00
O1257  O     0.83333   0.20488   0.90489   0.00000  Uiso   1.00
O1258  O     0.83334   0.12845   0.76178   0.00000  Uiso   1.00
Zn1259 Zn    0.83333   0.21771   0.83333   0.00000  Uiso   1.00
Zn1260 Zn    0.83333   0.11563   0.83333   0.00000  Uiso   1.00
C1261  C     0.08686   0.50034   0.83274   0.00000  Uiso   1.00
C1262  C     0.02254   0.52334   0.87145   0.00000  Uiso   1.00
C1263  C     0.29075   0.49842   0.83470   0.00000  Uiso   1.00
C1264  C     0.04258   0.50158   0.83197   0.00000  Uiso   1.00
C1265  C     0.18897   0.35718   0.86900   0.00000  Uiso   1.00
C1266  C     0.14436   0.64281   0.79767   0.00000  Uiso   1.00
C1267  C     0.14483   0.35728   0.79724   0.00000  Uiso   1.00
C1268  C     0.18850   0.64272   0.86943   0.00000  Uiso   1.00
C1269  C     0.05295   0.49503   0.71425   0.00000  Uiso   1.00
C1270  C     0.28039   0.50498   0.95242   0.00000  Uiso   1.00
C1271  C     0.28113   0.40725   0.76330   0.00000  Uiso   1.00
C1272  C     0.24648   0.49966   0.83393   0.00000  Uiso   1.00
C1273  C     0.05219   0.59277   0.90334   0.00000  Uiso   1.00
C1274  C     0.21379   0.38075   0.90628   0.00000  Uiso   1.00
C1275  C     0.11954   0.61925   0.76038   0.00000  Uiso   1.00
C1276  C     0.12364   0.38068   0.75667   0.00000  Uiso   1.00
C1277  C     0.20969   0.61932   0.91000   0.00000  Uiso   1.00
C1278  C     0.16681   0.49996   0.73968   0.00000  Uiso   1.00
C1279  C     0.16652   0.50004   0.92699   0.00000  Uiso   1.00
C1280  C     0.16674   0.49995   0.68850   0.00000  Uiso   1.00
C1281  C     0.16660   0.50005   0.97817   0.00000  Uiso   1.00
C1282  C     0.02070   0.47959   0.79295   0.00000  Uiso   1.00
C1283  C     0.31264   0.52041   0.87372   0.00000  Uiso   1.00
C1284  C     0.31079   0.47666   0.79521   0.00000  Uiso   1.00
H1285  H     0.02944   0.43378   0.73496   0.00000  Uiso   1.00
H1286  H     0.31038   0.38849   0.75592   0.00000  Uiso   1.00
H1287  H     0.25631   0.39535   0.73675   0.00000  Uiso   1.00
H1288  H     0.27165   0.39957   0.80204   0.00000  Uiso   1.00
H1289  H     0.03811   0.53710   0.94606   0.00000  Uiso   1.00
H1290  H     0.02294   0.61152   0.91071   0.00000  Uiso   1.00
H1291  H     0.06168   0.60043   0.86461   0.00000  Uiso   1.00
H1292  H     0.07701   0.60467   0.92990   0.00000  Uiso   1.00
H1293  H     0.02444   0.51296   0.70023   0.00000  Uiso   1.00
H1294  H     0.06824   0.47847   0.68217   0.00000  Uiso   1.00
H1295  H     0.07511   0.51940   0.73095   0.00000  Uiso   1.00
H1296  H     0.30389   0.56623   0.93170   0.00000  Uiso   1.00
H1297  H     0.30891   0.48707   0.96646   0.00000  Uiso   1.00
H1298  H     0.25825   0.48059   0.93572   0.00000  Uiso   1.00
H1299  H     0.26509   0.52154   0.98449   0.00000  Uiso   1.00
H1300  H     0.29522   0.46292   0.72060   0.00000  Uiso   1.00
N1301  N     0.16667   0.61907   0.83333   0.00000  Uiso   1.00
N1302  N     0.22640   0.60154   0.94349   0.00000  Uiso   1.00
N1303  N     0.16667   0.38093   0.83333   0.00000  Uiso   1.00
N1304  N     0.04230   0.46194   0.75111   0.00000  Uiso   1.00
N1305  N     0.29104   0.53806   0.91555   0.00000  Uiso   1.00
N1306  N     0.28684   0.45492   0.75647   0.00000  Uiso   1.00
N1307  N     0.04649   0.54510   0.91019   0.00000  Uiso   1.00
N1308  N     0.23394   0.39884   0.93661   0.00000  Uiso   1.00
N1309  N     0.09939   0.60116   0.73006   0.00000  Uiso   1.00
N1310  N     0.10693   0.39846   0.72318   0.00000  Uiso   1.00
O1311  O     0.10559   0.53821   0.83333   0.00000  Uiso   1.00
O1312  O     0.22774   0.46179   0.83334   0.00000  Uiso   1.00
O1313  O     0.22774   0.53821   0.83334   0.00000  Uiso   1.00
O1314  O     0.10559   0.46179   0.83333   0.00000  Uiso   1.00
O1315  O     0.16667   0.53821   0.76178   0.00000  Uiso   1.00
O1316  O     0.16666   0.46179   0.90489   0.00000  Uiso   1.00
O1317  O     0.16666   0.53821   0.90489   0.00000  Uiso   1.00
O1318  O     0.16667   0.46179   0.76178   0.00000  Uiso   1.00
Zn1319 Zn    0.16667   0.55104   0.83333   0.00000  Uiso   1.00
Zn1320 Zn    0.16667   0.44896   0.83333   0.00000  Uiso   1.00
C1321  C     0.42019   0.50034   0.83274   0.00000  Uiso   1.00
C1322  C     0.35587   0.52334   0.87145   0.00000  Uiso   1.00
C1323  C     0.62408   0.49842   0.83470   0.00000  Uiso   1.00
C1324  C     0.37592   0.50158   0.83197   0.00000  Uiso   1.00
C1325  C     0.52231   0.35718   0.86900   0.00000  Uiso   1.00
C1326  C     0.47769   0.64281   0.79767   0.00000  Uiso   1.00
C1327  C     0.47817   0.35728   0.79724   0.00000  Uiso   1.00
C1328  C     0.52183   0.64272   0.86943   0.00000  Uiso   1.00
C1329  C     0.38628   0.49503   0.71425   0.00000  Uiso   1.00
C1330  C     0.61372   0.50498   0.95242   0.00000  Uiso   1.00
C1331  C     0.61447   0.40725   0.76330   0.00000  Uiso   1.00
C1332  C     0.57981   0.49966   0.83393   0.00000  Uiso   1.00
C1333  C     0.38552   0.59277   0.90334   0.00000  Uiso   1.00
C1334  C     0.54712   0.38075   0.90628   0.00000  Uiso   1.00
C1335  C     0.45287   0.61925   0.76038   0.00000  Uiso   1.00
C1336  C     0.45697   0.38068   0.75667   0.00000  Uiso   1.00
C1337  C     0.54303   0.61932   0.91000   0.00000  Uiso   1.00
C1338  C     0.50014   0.49996   0.73968   0.00000  Uiso   1.00
C1339  C     0.49986   0.50004   0.92699   0.00000  Uiso   1.00
C1340  C     0.50007   0.49995   0.68850   0.00000  Uiso   1.00
C1341  C     0.49993   0.50005   0.97817   0.00000  Uiso   1.00
C1342  C     0.35403   0.47959   0.79295   0.00000  Uiso   1.00
C1343  C     0.64597   0.52041   0.87372   0.00000  Uiso   1.00
C1344  C     0.64413   0.47666   0.79521   0.00000  Uiso   1.00
H1345  H     0.36277   0.43378   0.73496   0.00000  Uiso   1.00
H1346  H     0.64372   0.38849   0.75592   0.00000  Uiso   1.00
H1347  H     0.58964   0.39535   0.73675   0.00000  Uiso   1.00
H1348  H     0.60498   0.39957   0.80204   0.00000  Uiso   1.00
H1349  H     0.37144   0.53710   0.94606   0.00000  Uiso   1.00
H1350  H     0.35627   0.61152   0.91071   0.00000  Uiso   1.00
H1351  H     0.39502   0.60043   0.86461   0.00000  Uiso   1.00
H1352  H     0.41034   0.60467   0.92990   0.00000  Uiso   1.00
H1353  H     0.35777   0.51296   0.70023   0.00000  Uiso   1.00
H1354  H     0.40157   0.47847   0.68217   0.00000  Uiso   1.00
H1355  H     0.40844   0.51940   0.73095   0.00000  Uiso   1.00
H1356  H     0.63722   0.56623   0.93170   0.00000  Uiso   1.00
H1357  H     0.64224   0.48707   0.96646   0.00000  Uiso   1.00
H1358  H     0.59158   0.48059   0.93572   0.00000  Uiso   1.00
H1359  H     0.59842   0.52154   0.98449   0.00000  Uiso   1.00
H1360  H     0.62856   0.46292   0.72060   0.00000  Uiso   1.00
N1361  N     0.50000   0.61907   0.83333   0.00000  Uiso   1.00
N1362  N     0.55974   0.60154   0.94349   0.00000  Uiso   1.00
N1363  N     0.50000   0.38093   0.83333   0.00000  Uiso   1.00
N1364  N     0.37563   0.46194   0.75111   0.00000  Uiso   1.00
N1365  N     0.62437   0.53806   0.91555   0.00000  Uiso   1.00
N1366  N     0.62017   0.45492   0.75647   0.00000  Uiso   1.00
N1367  N     0.37982   0.54510   0.91019   0.00000  Uiso   1.00
N1368  N     0.56727   0.39884   0.93661   0.00000  Uiso   1.00
N1369  N     0.43273   0.60116   0.73006   0.00000  Uiso   1.00
N1370  N     0.44026   0.39846   0.72318   0.00000  Uiso   1.00
O1371  O     0.43892   0.53821   0.83333   0.00000  Uiso   1.00
O1372  O     0.56108   0.46179   0.83334   0.00000  Uiso   1.00
O1373  O     0.56108   0.53821   0.83334   0.00000  Uiso   1.00
O1374  O     0.43892   0.46179   0.83333   0.00000  Uiso   1.00
O1375  O     0.50000   0.53821   0.76178   0.00000  Uiso   1.00
O1376  O     0.50000   0.46179   0.90489   0.00000  Uiso   1.00
O1377  O     0.50000   0.53821   0.90489   0.00000  Uiso   1.00
O1378  O     0.50000   0.46179   0.76178   0.00000  Uiso   1.00
Zn1379 Zn    0.50000   0.55104   0.83333   0.00000  Uiso   1.00
Zn1380 Zn    0.50000   0.44896   0.83333   0.00000  Uiso   1.00
C1381  C     0.75352   0.50034   0.83274   0.00000  Uiso   1.00
C1382  C     0.68921   0.52334   0.87145   0.00000  Uiso   1.00
C1383  C     0.95742   0.49842   0.83470   0.00000  Uiso   1.00
C1384  C     0.70925   0.50158   0.83197   0.00000  Uiso   1.00
C1385  C     0.85564   0.35718   0.86900   0.00000  Uiso   1.00
C1386  C     0.81103   0.64281   0.79767   0.00000  Uiso   1.00
C1387  C     0.81150   0.35728   0.79724   0.00000  Uiso   1.00
C1388  C     0.85517   0.64272   0.86943   0.00000  Uiso   1.00
C1389  C     0.71962   0.49503   0.71425   0.00000  Uiso   1.00
C1390  C     0.94706   0.50498   0.95242   0.00000  Uiso   1.00
C1391  C     0.94780   0.40725   0.76330   0.00000  Uiso   1.00
C1392  C     0.91314   0.49966   0.83393   0.00000  Uiso   1.00
C1393  C     0.71886   0.59277   0.90334   0.00000  Uiso   1.00
C1394  C     0.88046   0.38075   0.90628   0.00000  Uiso   1.00
C1395  C     0.78621   0.61925   0.76038   0.00000  Uiso   1.00
C1396  C     0.79030   0.38068   0.75667   0.00000  Uiso   1.00
C1397  C     0.87636   0.61932   0.91000   0.00000  Uiso   1.00
C1398  C     0.83348   0.49996   0.73968   0.00000  Uiso   1.00
C1399  C     0.83319   0.50004   0.92699   0.00000  Uiso   1.00
C1400  C     0.83340   0.49995   0.68850   0.00000  Uiso   1.00
C1401  C     0.83326   0.50005   0.97817   0.00000  Uiso   1.00
C1402  C     0.68736   0.47959   0.79295   0.00000  Uiso   1.00
C1403  C     0.97930   0.52041   0.87372   0.00000  Uiso   1.00
C1404  C     0.97746   0.47666   0.79521   0.00000  Uiso   1.00
H1405  H     0.69610   0.43378   0.73496   0.00000  Uiso   1.00
H1406  H     0.97705   0.38849   0.75592   0.00000  Uiso   1.00
H1407  H     0.92298   0.39535   0.73675   0.00000  Uiso   1.00
H1408  H     0.93831   0.39957   0.80204   0.00000  Uiso   1.00
H1409  H     0.70477   0.53710   0.94606   0.00000  Uiso   1.00
H1410  H     0.68961   0.61152   0.91071   0.00000  Uiso   1.00
H1411  H     0.72835   0.60043   0.86461   0.00000  Uiso   1.00
H1412  H     0.74367   0.60467   0.92990   0.00000  Uiso   1.00
H1413  H     0.69110   0.51296   0.70023   0.00000  Uiso   1.00
H1414  H     0.73490   0.47847   0.68217   0.00000  Uiso   1.00
H1415  H     0.74177   0.51940   0.73095   0.00000  Uiso   1.00
H1416  H     0.97056   0.56623   0.93170   0.00000  Uiso   1.00
H1417  H     0.97558   0.48707   0.96646   0.00000  Uiso   1.00
H1418  H     0.92492   0.48059   0.93572   0.00000  Uiso   1.00
H1419  H     0.93176   0.52154   0.98449   0.00000  Uiso   1.00
H1420  H     0.96189   0.46292   0.72060   0.00000  Uiso   1.00
N1421  N     0.83333   0.61907   0.83333   0.00000  Uiso   1.00
N1422  N     0.89307   0.60154   0.94349   0.00000  Uiso   1.00
N1423  N     0.83333   0.38093   0.83333   0.00000  Uiso   1.00
N1424  N     0.70896   0.46194   0.75111   0.00000  Uiso   1.00
N1425  N     0.95770   0.53806   0.91555   0.00000  Uiso   1.00
N1426  N     0.95351   0.45492   0.75647   0.00000  Uiso   1.00
N1427  N     0.71316   0.54510   0.91019   0.00000  Uiso   1.00
N1428  N     0.90060   0.39884   0.93661   0.00000  Uiso   1.00
N1429  N     0.76606   0.60116   0.73006   0.00000  Uiso   1.00
N1430  N     0.77359   0.39846   0.72318   0.00000  Uiso   1.00
O1431  O     0.77226   0.53821   0.83333   0.00000  Uiso   1.00
O1432  O     0.89441   0.46179   0.83334   0.00000  Uiso   1.00
O1433  O     0.89441   0.53821   0.83334   0.00000  Uiso   1.00
O1434  O     0.77226   0.46179   0.83333   0.00000  Uiso   1.00
O1435  O     0.83334   0.53821   0.76178   0.00000  Uiso   1.00
O1436  O     0.83333   0.46179   0.90489   0.00000  Uiso   1.00
O1437  O     0.83333   0.53821   0.90489   0.00000  Uiso   1.00
O1438  O     0.83334   0.46179   0.76178   0.00000  Uiso   1.00
Zn1439 Zn    0.83333   0.55104   0.83333   0.00000  Uiso   1.00
Zn1440 Zn    0.83333   0.44896   0.83333   0.00000  Uiso   1.00
C1441  C     0.08686   0.83368   0.83274   0.00000  Uiso   1.00
C1442  C     0.02254   0.85668   0.87145   0.00000  Uiso   1.00
C1443  C     0.29075   0.83175   0.83470   0.00000  Uiso   1.00
C1444  C     0.04258   0.83491   0.83197   0.00000  Uiso   1.00
C1445  C     0.18897   0.69052   0.86900   0.00000  Uiso   1.00
C1446  C     0.14436   0.97615   0.79767   0.00000  Uiso   1.00
C1447  C     0.14483   0.69061   0.79724   0.00000  Uiso   1.00
C1448  C     0.18850   0.97605   0.86943   0.00000  Uiso   1.00
C1449  C     0.05295   0.82836   0.71425   0.00000  Uiso   1.00
C1450  C     0.28039   0.83831   0.95242   0.00000  Uiso   1.00
C1451  C     0.28113   0.74058   0.76330   0.00000  Uiso   1.00
C1452  C     0.24648   0.83299   0.83393   0.00000  Uiso   1.00
C1453  C     0.05219   0.92610   0.90334   0.00000  Uiso   1.00
C1454  C     0.21379   0.71408   0.90628   0.00000  Uiso   1.00
C1455  C     0.11954   0.95259   0.76038   0.00000  Uiso   1.00
C1456  C     0.12364   0.71401   0.75667   0.00000  Uiso   1.00
C1457  C     0.20969   0.95266   0.91000   0.00000  Uiso   1.00
C1458  C     0.16681   0.83330   0.73968   0.00000  Uiso   1.00
C1459  C     0.16652   0.83337   0.92699   0.00000  Uiso   1.00
C1460  C     0.16674   0.83328   0.68850   0.00000  Uiso   1.00
C1461  C     0.16660   0.83339   0.97817   0.00000  Uiso   1.00
C1462  C     0.02070   0.81293   0.79295   0.00000  Uiso   1.00
C1463  C     0.31264   0.85374   0.87372   0.00000  Uiso   1.00
C1464  C     0.31079   0.80999   0.79521   0.00000  Uiso   1.00
H1465  H     0.02944   0.76712   0.73496   0.00000  Uiso   1.00
H1466  H     0.31038   0.72182   0.75592   0.00000  Uiso   1.00
H1467  H     0.25631   0.72868   0.73675   0.00000  Uiso   1.00
H1468  H     0.27165   0.73290   0.80204   0.00000  Uiso   1.00
H1469  H     0.03811   0.87043   0.94606   0.00000  Uiso   1.00
H1470  H     0.02294   0.94485   0.91071   0.00000  Uiso   1.00
H1471  H     0.06168   0.93377   0.86461   0.00000  Uiso   1.00
H1472  H     0.07701   0.93801   0.92990   0.00000  Uiso   1.00
H1473  H     0.02444   0.84629   0.70023   0.00000  Uiso   1.00
H1474  H     0.06824   0.81180   0.68217   0.00000  Uiso   1.00
H1475  H     0.07511   0.85273   0.73095   0.00000  Uiso   1.00
H1476  H     0.30389   0.89956   0.93170   0.00000  Uiso   1.00
H1477  H     0.30891   0.82040   0.96646   0.00000  Uiso   1.00
H1478  H     0.25825   0.81393   0.93572   0.00000  Uiso   1.00
H1479  H     0.26509   0.85487   0.98449   0.00000  Uiso   1.00
H1480  H     0.29522   0.79626   0.72060   0.00000  Uiso   1.00
N1481  N     0.16667   0.95240   0.83333   0.00000  Uiso   1.00
N1482  N     0.22640   0.93487   0.94349   0.00000  Uiso   1.00
N1483  N     0.16667   0.71427   0.83333   0.00000  Uiso   1.00
N1484  N     0.04230   0.79528   0.75111   0.00000  Uiso   1.00
N1485  N     0.29104   0.87139   0.91555   0.00000  Uiso   1.00
N1486  N     0.28684   0.78825   0.75647   0.00000  Uiso   1.00
N1487  N     0.04649   0.87843   0.91019   0.00000  Uiso   1.00
N1488  N     0.23394   0.73217   0.93661   0.00000  Uiso   1.00
N1489  N     0.09939   0.93450   0.73006   0.00000  Uiso   1.00
N1490  N     0.10693   0.73180   0.72318   0.00000  Uiso   1.00
O1491  O     0.10559   0.87154   0.83333   0.00000  Uiso   1.00
O1492  O     0.22774   0.79513   0.83334   0.00000  Uiso   1.00
O1493  O     0.22774   0.87154   0.83334   0.00000  Uiso   1.00
O1494  O     0.10559   0.79513   0.83333   0.00000  Uiso   1.00
O1495  O     0.16667   0.87155   0.76178   0.00000  Uiso   1.00
O1496  O     0.16666   0.79512   0.90489   0.00000  Uiso   1.00
O1497  O     0.16666   0.87155   0.90489   0.00000  Uiso   1.00
O1498  O     0.16667   0.79512   0.76178   0.00000  Uiso   1.00
Zn1499 Zn    0.16667   0.88437   0.83333   0.00000  Uiso   1.00
Zn1500 Zn    0.16667   0.78229   0.83333   0.00000  Uiso   1.00
C1501  C     0.42019   0.83368   0.83274   0.00000  Uiso   1.00
C1502  C     0.35587   0.85668   0.87145   0.00000  Uiso   1.00
C1503  C     0.62408   0.83175   0.83470   0.00000  Uiso   1.00
C1504  C     0.37592   0.83491   0.83197   0.00000  Uiso   1.00
C1505  C     0.52231   0.69052   0.86900   0.00000  Uiso   1.00
C1506  C     0.47769   0.97615   0.79767   0.00000  Uiso   1.00
C1507  C     0.47817   0.69061   0.79724   0.00000  Uiso   1.00
C1508  C     0.52183   0.97605   0.86943   0.00000  Uiso   1.00
C1509  C     0.38628   0.82836   0.71425   0.00000  Uiso   1.00
C1510  C     0.61372   0.83831   0.95242   0.00000  Uiso   1.00
C1511  C     0.61447   0.74058   0.76330   0.00000  Uiso   1.00
C1512  C     0.57981   0.83299   0.83393   0.00000  Uiso   1.00
C1513  C     0.38552   0.92610   0.90334   0.00000  Uiso   1.00
C1514  C     0.54712   0.71408   0.90628   0.00000  Uiso   1.00
C1515  C     0.45287   0.95259   0.76038   0.00000  Uiso   1.00
C1516  C     0.45697   0.71401   0.75667   0.00000  Uiso   1.00
C1517  C     0.54303   0.95266   0.91000   0.00000  Uiso   1.00
C1518  C     0.50014   0.83330   0.73968   0.00000  Uiso   1.00
C1519  C     0.49986   0.83337   0.92699   0.00000  Uiso   1.00
C1520  C     0.50007   0.83328   0.68850   0.00000  Uiso   1.00
C1521  C     0.49993   0.83339   0.97817   0.00000  Uiso   1.00
C1522  C     0.35403   0.81293   0.79295   0.00000  Uiso   1.00
C1523  C     0.64597   0.85374   0.87372   0.00000  Uiso   1.00
C1524  C     0.64413   0.80999   0.79521   0.00000  Uiso   1.00
H1525  H     0.36277   0.76712   0.73496   0.00000  Uiso   1.00
H1526  H     0.64372   0.72182   0.75592   0.00000  Uiso   1.00
H1527  H     0.58964   0.72868   0.73675   0.00000  Uiso   1.00
H1528  H     0.60498   0.73290   0.80204   0.00000  Uiso   1.00
H1529  H     0.37144   0.87043   0.94606   0.00000  Uiso   1.00
H1530  H     0.35627   0.94485   0.91071   0.00000  Uiso   1.00
H1531  H     0.39502   0.93377   0.86461   0.00000  Uiso   1.00
H1532  H     0.41034   0.93801   0.92990   0.00000  Uiso   1.00
H1533  H     0.35777   0.84629   0.70023   0.00000  Uiso   1.00
H1534  H     0.40157   0.81180   0.68217   0.00000  Uiso   1.00
H1535  H     0.40844   0.85273   0.73095   0.00000  Uiso   1.00
H1536  H     0.63722   0.89956   0.93170   0.00000  Uiso   1.00
H1537  H     0.64224   0.82040   0.96646   0.00000  Uiso   1.00
H1538  H     0.59158   0.81393   0.93572   0.00000  Uiso   1.00
H1539  H     0.59842   0.85487   0.98449   0.00000  Uiso   1.00
H1540  H     0.62856   0.79626   0.72060   0.00000  Uiso   1.00
N1541  N     0.50000   0.95240   0.83333   0.00000  Uiso   1.00
N1542  N     0.55974   0.93487   0.94349   0.00000  Uiso   1.00
N1543  N     0.50000   0.71427   0.83333   0.00000  Uiso   1.00
N1544  N     0.37563   0.79528   0.75111   0.00000  Uiso   1.00
N1545  N     0.62437   0.87139   0.91555   0.00000  Uiso   1.00
N1546  N     0.62017   0.78825   0.75647   0.00000  Uiso   1.00
N1547  N     0.37982   0.87843   0.91019   0.00000  Uiso   1.00
N1548  N     0.56727   0.73217   0.93661   0.00000  Uiso   1.00
N1549  N     0.43273   0.93450   0.73006   0.00000  Uiso   1.00
N1550  N     0.44026   0.73180   0.72318   0.00000  Uiso   1.00
O1551  O     0.43892   0.87154   0.83333   0.00000  Uiso   1.00
O1552  O     0.56108   0.79513   0.83334   0.00000  Uiso   1.00
O1553  O     0.56108   0.87154   0.83334   0.00000  Uiso   1.00
O1554  O     0.43892   0.79513   0.83333   0.00000  Uiso   1.00
O1555  O     0.50000   0.87155   0.76178   0.00000  Uiso   1.00
O1556  O     0.50000   0.79512   0.90489   0.00000  Uiso   1.00
O1557  O     0.50000   0.87155   0.90489   0.00000  Uiso   1.00
O1558  O     0.50000   0.79512   0.76178   0.00000  Uiso   1.00
Zn1559 Zn    0.50000   0.88437   0.83333   0.00000  Uiso   1.00
Zn1560 Zn    0.50000   0.78229   0.83333   0.00000  Uiso   1.00
C1561  C     0.75352   0.83368   0.83274   0.00000  Uiso   1.00
C1562  C     0.68921   0.85668   0.87145   0.00000  Uiso   1.00
C1563  C     0.95742   0.83175   0.83470   0.00000  Uiso   1.00
C1564  C     0.70925   0.83491   0.83197   0.00000  Uiso   1.00
C1565  C     0.85564   0.69052   0.86900   0.00000  Uiso   1.00
C1566  C     0.81103   0.97615   0.79767   0.00000  Uiso   1.00
C1567  C     0.81150   0.69061   0.79724   0.00000  Uiso   1.00
C1568  C     0.85517   0.97605   0.86943   0.00000  Uiso   1.00
C1569  C     0.71962   0.82836   0.71425   0.00000  Uiso   1.00
C1570  C     0.94706   0.83831   0.95242   0.00000  Uiso   1.00
C1571  C     0.94780   0.74058   0.76330   0.00000  Uiso   1.00
C1572  C     0.91314   0.83299   0.83393   0.00000  Uiso   1.00
C1573  C     0.71886   0.92610   0.90334   0.00000  Uiso   1.00
C1574  C     0.88046   0.71408   0.90628   0.00000  Uiso   1.00
C1575  C     0.78621   0.95259   0.76038   0.00000  Uiso   1.00
C1576  C     0.79030   0.71401   0.75667   0.00000  Uiso   1.00
C1577  C     0.87636   0.95266   0.91000   0.00000  Uiso   1.00
C1578  C     0.83348   0.83330   0.73968   0.00000  Uiso   1.00
C1579  C     0.83319   0.83337   0.92699   0.00000  Uiso   1.00
C1580  C     0.83340   0.83328   0.68850   0.00000  Uiso   1.00
C1581  C     0.83326   0.83339   0.97817   0.00000  Uiso   1.00
C1582  C     0.68736   0.81293   0.79295   0.00000  Uiso   1.00
C1583  C     0.97930   0.85374   0.87372   0.00000  Uiso   1.00
C1584  C     0.97746   0.80999   0.79521   0.00000  Uiso   1.00
H1585  H     0.69610   0.76712   0.73496   0.00000  Uiso   1.00
H1586  H     0.97705   0.72182   0.75592   0.00000  Uiso   1.00
H1587  H     0.92298   0.72868   0.73675   0.00000  Uiso   1.00
H1588  H     0.93831   0.73290   0.80204   0.00000  Uiso   1.00
H1589  H     0.70477   0.87043   0.94606   0.00000  Uiso   1.00
H1590  H     0.68961   0.94485   0.91071   0.00000  Uiso   1.00
H1591  H     0.72835   0.93377   0.86461   0.00000  Uiso   1.00
H1592  H     0.74367   0.93801   0.92990   0.00000  Uiso   1.00
H1593  H     0.69110   0.84629   0.70023   0.00000  Uiso   1.00
H1594  H     0.73490   0.81180   0.68217   0.00000  Uiso   1.00
H1595  H     0.74177   0.85273   0.73095   0.00000  Uiso   1.00
H1596  H     0.97056   0.89956   0.93170   0.00000  Uiso   1.00
H1597  H     0.97558   0.82040   0.96646   0.00000  Uiso   1.00
H1598  H     0.92492   0.81393   0.93572   0.00000  Uiso   1.00
H1599  H     0.93176   0.85487   0.98449   0.00000  Uiso   1.00
H1600  H     0.96189   0.79626   0.72060   0.00000  Uiso   1.00
N1601  N     0.83333   0.95240   0.83333   0.00000  Uiso   1.00
N1602  N     0.89307   0.93487   0.94349   0.00000  Uiso   1.00
N1603  N     0.83333   0.71427   0.83333   0.00000  Uiso   1.00
N1604  N     0.70896   0.79528   0.75111   0.00000  Uiso   1.00
N1605  N     0.95770   0.87139   0.91555   0.00000  Uiso   1.00
N1606  N     0.95351   0.78825   0.75647   0.00000  Uiso   1.00
N1607  N     0.71316   0.87843   0.91019   0.00000  Uiso   1.00
N1608  N     0.90060   0.73217   0.93661   0.00000  Uiso   1.00
N1609  N     0.76606   0.93450   0.73006   0.00000  Uiso   1.00
N1610  N     0.77359   0.73180   0.72318   0.00000  Uiso   1.00
O1611  O     0.77226   0.87154   0.83333   0.00000  Uiso   1.00
O1612  O     0.89441   0.79513   0.83334   0.00000  Uiso   1.00
O1613  O     0.89441   0.87154   0.83334   0.00000  Uiso   1.00
O1614  O     0.77226   0.79513   0.83333   0.00000  Uiso   1.00
O1615  O     0.83334   0.87155   0.76178   0.00000  Uiso   1.00
O1616  O     0.83333   0.79512   0.90489   0.00000  Uiso   1.00
O1617  O     0.83333   0.87155   0.90489   0.00000  Uiso   1.00
O1618  O     0.83334   0.79512   0.76178   0.00000  Uiso   1.00
Zn1619 Zn    0.83333   0.88437   0.83333   0.00000  Uiso   1.00
Zn1620 Zn    0.83333   0.78229   0.83333   0.00000  Uiso   1.00
loop_
_geom_bond_atom_site_label_1
_geom_bond_atom_site_label_2
_geom_bond_distance
_geom_bond_site_symmetry_2
_ccdc_geom_bond_type
C1     O54     1.293   .     A
C1     C4      1.417   .     S
C1     O51     1.285   .     A
C2     C4      1.403   .     A
C2     N47     1.428   .     S
C2     C143    1.391   1_455 S
C3     C23     1.404   .     A
C3     C12     1.417   .     S
C3     C24     1.403   .     A
C4     C22     1.404   .     A
C5     C14     1.442   .     S
C5     N43     1.369   .     A
C5     C368    1.428   1_545 S
C6     C15     1.442   .     S
C6     N41     1.369   .     A
C6     C187    1.428   .     S
C7     N43     1.372   .     A
C7     C16     1.440   .     S
C7     C366    1.428   1_545 S
C8     C17     1.440   .     S
C8     N41     1.372   .     A
C8     C185    1.428   .     S
C9     H33     1.111   .     S
C9     H34     1.110   .     S
C9     H35     1.106   .     S
C9     N44     1.445   .     S
C10    H38     1.106   .     S
C10    N45     1.445   .     S
C10    H37     1.111   .     S
C10    H39     1.110   .     S
C11    H27     1.110   .     S
C11    H28     1.110   .     S
C11    N46     1.450   .     S
C11    H26     1.109   .     S
C12    O52     1.285   .     A
C12    O53     1.293   .     A
C13    H32     1.110   .     S
C13    H30     1.109   .     S
C13    N47     1.450   .     S
C13    H31     1.110   .     S
C14    N48     1.157   .     T
C15    N49     1.157   .     T
C16    N50     1.156   .     T
C17    N42     1.156   .     T
C18    O55     1.284   .     A
C18    C20     1.365   .     S
C18    O58     1.285   .     A
C19    O56     1.284   .     A
C19    O57     1.285   .     A
C19    C21     1.365   .     S
C20    C1101   1.165   1_554 S
C21    C560    1.165   .     S
C22    N44     1.426   .     S
C22    C144    1.391   1_455 S
C23    N45     1.426   .     S
C23    C62     1.391   .     S
C24    N46     1.428   .     S
C24    C82     1.391   .     S
H25    N44     1.028   .     S
H29    N47     1.030   .     S
H36    N45     1.028   .     S
H40    N46     1.030   .     S
N41    Zn59    2.032   .     S
N43    Zn60    2.032   .     S
O51    Zn59    1.996   .     S
O52    Zn60    1.996   .     S
O53    Zn59    1.989   .     S
O54    Zn60    1.989   .     S
O55    Zn59    1.946   .     S
O56    Zn60    1.946   .     S
O57    Zn59    1.947   .     S
O58    Zn60    1.947   .     S
C61    O114    1.293   .     A
C61    C64     1.417   .     S
C61    O111    1.285   .     A
C62    C64     1.403   .     A
C62    N107    1.428   .     S
C63    C83     1.404   .     A
C63    C72     1.417   .     S
C63    C84     1.403   .     A
C64    C82     1.404   .     A
C65    C74     1.442   .     S
C65    N103    1.369   .     A
C65    C428    1.428   1_545 S
C66    C75     1.442   .     S
C66    N101    1.369   .     A
C66    C247    1.428   .     S
C67    N103    1.372   .     A
C67    C76     1.440   .     S
C67    C426    1.428   1_545 S
C68    C77     1.440   .     S
C68    N101    1.372   .     A
C68    C245    1.428   .     S
C69    H93     1.111   .     S
C69    H94     1.110   .     S
C69    H95     1.106   .     S
C69    N104    1.445   .     S
C70    H98     1.106   .     S
C70    N105    1.445   .     S
C70    H97     1.111   .     S
C70    H99     1.110   .     S
C71    H87     1.110   .     S
C71    H88     1.110   .     S
C71    N106    1.450   .     S
C71    H86     1.109   .     S
C72    O112    1.285   .     A
C72    O113    1.293   .     A
C73    H92     1.110   .     S
C73    H90     1.109   .     S
C73    N107    1.450   .     S
C73    H91     1.110   .     S
C74    N108    1.157   .     T
C75    N109    1.157   .     T
C76    N110    1.156   .     T
C77    N102    1.156   .     T
C78    O115    1.284   .     A
C78    C80     1.365   .     S
C78    O118    1.285   .     A
C79    O116    1.284   .     A
C79    O117    1.285   .     A
C79    C81     1.365   .     S
C80    C1161   1.165   1_554 S
C81    C620    1.165   .     S
C82    N104    1.426   .     S
C83    N105    1.426   .     S
C83    C122    1.391   .     S
C84    N106    1.428   .     S
C84    C142    1.391   .     S
H85    N104    1.028   .     S
H89    N107    1.030   .     S
H96    N105    1.028   .     S
H100   N106    1.030   .     S
N101   Zn119   2.032   .     S
N103   Zn120   2.032   .     S
O111   Zn119   1.996   .     S
O112   Zn120   1.996   .     S
O113   Zn119   1.989   .     S
O114   Zn120   1.989   .     S
O115   Zn119   1.946   .     S
O116   Zn120   1.946   .     S
O117   Zn119   1.947   .     S
O118   Zn120   1.947   .     S
C121   O174    1.293   .     A
C121   C124    1.417   .     S
C121   O171    1.285   .     A
C122   C124    1.403   .     A
C122   N167    1.428   .     S
C123   C143    1.404   .     A
C123   C132    1.417   .     S
C123   C144    1.403   .     A
C124   C142    1.404   .     A
C125   C134    1.442   .     S
C125   N163    1.369   .     A
C125   C488    1.428   1_545 S
C126   C135    1.442   .     S
C126   N161    1.369   .     A
C126   C307    1.428   .     S
C127   N163    1.372   .     A
C127   C136    1.440   .     S
C127   C486    1.428   1_545 S
C128   C137    1.440   .     S
C128   N161    1.372   .     A
C128   C305    1.428   .     S
C129   H153    1.111   .     S
C129   H154    1.110   .     S
C129   H155    1.106   .     S
C129   N164    1.445   .     S
C130   H158    1.106   .     S
C130   N165    1.445   .     S
C130   H157    1.111   .     S
C130   H159    1.110   .     S
C131   H147    1.110   .     S
C131   H148    1.110   .     S
C131   N166    1.450   .     S
C131   H146    1.109   .     S
C132   O172    1.285   .     A
C132   O173    1.293   .     A
C133   H152    1.110   .     S
C133   H150    1.109   .     S
C133   N167    1.450   .     S
C133   H151    1.110   .     S
C134   N168    1.157   .     T
C135   N169    1.157   .     T
C136   N170    1.156   .     T
C137   N162    1.156   .     T
C138   O175    1.284   .     A
C138   C140    1.365   .     S
C138   O178    1.285   .     A
C139   O176    1.284   .     A
C139   O177    1.285   .     A
C139   C141    1.365   .     S
C140   C1221   1.165   1_554 S
C141   C680    1.165   .     S
C142   N164    1.426   .     S
C143   N165    1.426   .     S
C143   C2      1.391   1_655 S
C144   N166    1.428   .     S
C144   C22     1.391   1_655 S
H145   N164    1.028   .     S
H149   N167    1.030   .     S
H156   N165    1.028   .     S
H160   N166    1.030   .     S
N161   Zn179   2.032   .     S
N163   Zn180   2.032   .     S
O171   Zn179   1.996   .     S
O172   Zn180   1.996   .     S
O173   Zn179   1.989   .     S
O174   Zn180   1.989   .     S
O175   Zn179   1.946   .     S
O176   Zn180   1.946   .     S
O177   Zn179   1.947   .     S
O178   Zn180   1.947   .     S
C181   O234    1.293   .     A
C181   C184    1.417   .     S
C181   O231    1.285   .     A
C182   C184    1.403   .     A
C182   N227    1.428   .     S
C182   C323    1.391   1_455 S
C183   C203    1.404   .     A
C183   C192    1.417   .     S
C183   C204    1.403   .     A
C184   C202    1.404   .     A
C185   C194    1.442   .     S
C185   N223    1.369   .     A
C186   C195    1.442   .     S
C186   N221    1.369   .     A
C186   C367    1.428   .     S
C187   N223    1.372   .     A
C187   C196    1.440   .     S
C188   C197    1.440   .     S
C188   N221    1.372   .     A
C188   C365    1.428   .     S
C189   H213    1.111   .     S
C189   H214    1.110   .     S
C189   H215    1.106   .     S
C189   N224    1.445   .     S
C190   H218    1.106   .     S
C190   N225    1.445   .     S
C190   H217    1.111   .     S
C190   H219    1.110   .     S
C191   H207    1.110   .     S
C191   H208    1.110   .     S
C191   N226    1.450   .     S
C191   H206    1.109   .     S
C192   O232    1.285   .     A
C192   O233    1.293   .     A
C193   H212    1.110   .     S
C193   H210    1.109   .     S
C193   N227    1.450   .     S
C193   H211    1.110   .     S
C194   N228    1.157   .     T
C195   N229    1.157   .     T
C196   N230    1.156   .     T
C197   N222    1.156   .     T
C198   O235    1.284   .     A
C198   C200    1.365   .     S
C198   O238    1.285   .     A
C199   O236    1.284   .     A
C199   O237    1.285   .     A
C199   C201    1.365   .     S
C200   C1281   1.165   1_554 S
C201   C740    1.165   .     S
C202   N224    1.426   .     S
C202   C324    1.391   1_455 S
C203   N225    1.426   .     S
C203   C242    1.391   .     S
C204   N226    1.428   .     S
C204   C262    1.391   .     S
H205   N224    1.028   .     S
H209   N227    1.030   .     S
H216   N225    1.028   .     S
H220   N226    1.030   .     S
N221   Zn239   2.032   .     S
N223   Zn240   2.032   .     S
O231   Zn239   1.996   .     S
O232   Zn240   1.996   .     S
O233   Zn239   1.989   .     S
O234   Zn240   1.989   .     S
O235   Zn239   1.946   .     S
O236   Zn240   1.946   .     S
O237   Zn239   1.947   .     S
O238   Zn240   1.947   .     S
C241   O294    1.293   .     A
C241   C244    1.417   .     S
C241   O291    1.285   .     A
C242   C244    1.403   .     A
C242   N287    1.428   .     S
C243   C263    1.404   .     A
C243   C252    1.417   .     S
C243   C264    1.403   .     A
C244   C262    1.404   .     A
C245   C254    1.442   .     S
C245   N283    1.369   .     A
C246   C255    1.442   .     S
C246   N281    1.369   .     A
C246   C427    1.428   .     S
C247   N283    1.372   .     A
C247   C256    1.440   .     S
C248   C257    1.440   .     S
C248   N281    1.372   .     A
C248   C425    1.428   .     S
C249   H273    1.111   .     S
C249   H274    1.110   .     S
C249   H275    1.106   .     S
C249   N284    1.445   .     S
C250   H278    1.106   .     S
C250   N285    1.445   .     S
C250   H277    1.111   .     S
C250   H279    1.110   .     S
C251   H267    1.110   .     S
C251   H268    1.110   .     S
C251   N286    1.450   .     S
C251   H266    1.109   .     S
C252   O292    1.285   .     A
C252   O293    1.293   .     A
C253   H272    1.110   .     S
C253   H270    1.109   .     S
C253   N287    1.450   .     S
C253   H271    1.110   .     S
C254   N288    1.157   .     T
C255   N289    1.157   .     T
C256   N290    1.156   .     T
C257   N282    1.156   .     T
C258   O295    1.284   .     A
C258   C260    1.365   .     S
C258   O298    1.285   .     A
C259   O296    1.284   .     A
C259   O297    1.285   .     A
C259   C261    1.365   .     S
C260   C1341   1.165   1_554 S
C261   C800    1.165   .     S
C262   N284    1.426   .     S
C263   N285    1.426   .     S
C263   C302    1.391   .     S
C264   N286    1.428   .     S
C264   C322    1.391   .     S
H265   N284    1.028   .     S
H269   N287    1.030   .     S
H276   N285    1.028   .     S
H280   N286    1.030   .     S
N281   Zn299   2.032   .     S
N283   Zn300   2.032   .     S
O291   Zn299   1.996   .     S
O292   Zn300   1.996   .     S
O293   Zn299   1.989   .     S
O294   Zn300   1.989   .     S
O295   Zn299   1.946   .     S
O296   Zn300   1.946   .     S
O297   Zn299   1.947   .     S
O298   Zn300   1.947   .     S
C301   O354    1.293   .     A
C301   C304    1.417   .     S
C301   O351    1.285   .     A
C302   C304    1.403   .     A
C302   N347    1.428   .     S
C303   C323    1.404   .     A
C303   C312    1.417   .     S
C303   C324    1.403   .     A
C304   C322    1.404   .     A
C305   C314    1.442   .     S
C305   N343    1.369   .     A
C306   C315    1.442   .     S
C306   N341    1.369   .     A
C306   C487    1.428   .     S
C307   N343    1.372   .     A
C307   C316    1.440   .     S
C308   C317    1.440   .     S
C308   N341    1.372   .     A
C308   C485    1.428   .     S
C309   H333    1.111   .     S
C309   H334    1.110   .     S
C309   H335    1.106   .     S
C309   N344    1.445   .     S
C310   H338    1.106   .     S
C310   N345    1.445   .     S
C310   H337    1.111   .     S
C310   H339    1.110   .     S
C311   H327    1.110   .     S
C311   H328    1.110   .     S
C311   N346    1.450   .     S
C311   H326    1.109   .     S
C312   O352    1.285   .     A
C312   O353    1.293   .     A
C313   H332    1.110   .     S
C313   H330    1.109   .     S
C313   N347    1.450   .     S
C313   H331    1.110   .     S
C314   N348    1.157   .     T
C315   N349    1.157   .     T
C316   N350    1.156   .     T
C317   N342    1.156   .     T
C318   O355    1.284   .     A
C318   C320    1.365   .     S
C318   O358    1.285   .     A
C319   O356    1.284   .     A
C319   O357    1.285   .     A
C319   C321    1.365   .     S
C320   C1401   1.165   1_554 S
C321   C860    1.165   .     S
C322   N344    1.426   .     S
C323   N345    1.426   .     S
C323   C182    1.391   1_655 S
C324   N346    1.428   .     S
C324   C202    1.391   1_655 S
H325   N344    1.028   .     S
H329   N347    1.030   .     S
H336   N345    1.028   .     S
H340   N346    1.030   .     S
N341   Zn359   2.032   .     S
N343   Zn360   2.032   .     S
O351   Zn359   1.996   .     S
O352   Zn360   1.996   .     S
O353   Zn359   1.989   .     S
O354   Zn360   1.989   .     S
O355   Zn359   1.946   .     S
O356   Zn360   1.946   .     S
O357   Zn359   1.947   .     S
O358   Zn360   1.947   .     S
C361   O414    1.293   .     A
C361   C364    1.417   .     S
C361   O411    1.285   .     A
C362   C364    1.403   .     A
C362   N407    1.428   .     S
C362   C503    1.391   1_455 S
C363   C383    1.404   .     A
C363   C372    1.417   .     S
C363   C384    1.403   .     A
C364   C382    1.404   .     A
C365   C374    1.442   .     S
C365   N403    1.369   .     A
C366   C375    1.442   .     S
C366   N401    1.369   .     A
C366   C7      1.428   1_565 S
C367   N403    1.372   .     A
C367   C376    1.440   .     S
C368   C377    1.440   .     S
C368   N401    1.372   .     A
C368   C5      1.428   1_565 S
C369   H393    1.111   .     S
C369   H394    1.110   .     S
C369   H395    1.106   .     S
C369   N404    1.445   .     S
C370   H398    1.106   .     S
C370   N405    1.445   .     S
C370   H397    1.111   .     S
C370   H399    1.110   .     S
C371   H387    1.110   .     S
C371   H388    1.110   .     S
C371   N406    1.450   .     S
C371   H386    1.109   .     S
C372   O412    1.285   .     A
C372   O413    1.293   .     A
C373   H392    1.110   .     S
C373   H390    1.109   .     S
C373   N407    1.450   .     S
C373   H391    1.110   .     S
C374   N408    1.157   .     T
C375   N409    1.157   .     T
C376   N410    1.156   .     T
C377   N402    1.156   .     T
C378   O415    1.284   .     A
C378   C380    1.365   .     S
C378   O418    1.285   .     A
C379   O416    1.284   .     A
C379   O417    1.285   .     A
C379   C381    1.365   .     S
C380   C1461   1.165   1_554 S
C381   C920    1.165   .     S
C382   N404    1.426   .     S
C382   C504    1.391   1_455 S
C383   N405    1.426   .     S
C383   C422    1.391   .     S
C384   N406    1.428   .     S
C384   C442    1.391   .     S
H385   N404    1.028   .     S
H389   N407    1.030   .     S
H396   N405    1.028   .     S
H400   N406    1.030   .     S
N401   Zn419   2.032   .     S
N403   Zn420   2.032   .     S
O411   Zn419   1.996   .     S
O412   Zn420   1.996   .     S
O413   Zn419   1.989   .     S
O414   Zn420   1.989   .     S
O415   Zn419   1.946   .     S
O416   Zn420   1.946   .     S
O417   Zn419   1.947   .     S
O418   Zn420   1.947   .     S
C421   O474    1.293   .     A
C421   C424    1.417   .     S
C421   O471    1.285   .     A
C422   C424    1.403   .     A
C422   N467    1.428   .     S
C423   C443    1.404   .     A
C423   C432    1.417   .     S
C423   C444    1.403   .     A
C424   C442    1.404   .     A
C425   C434    1.442   .     S
C425   N463    1.369   .     A
C426   C435    1.442   .     S
C426   N461    1.369   .     A
C426   C67     1.428   1_565 S
C427   N463    1.372   .     A
C427   C436    1.440   .     S
C428   C437    1.440   .     S
C428   N461    1.372   .     A
C428   C65     1.428   1_565 S
C429   H453    1.111   .     S
C429   H454    1.110   .     S
C429   H455    1.106   .     S
C429   N464    1.445   .     S
C430   H458    1.106   .     S
C430   N465    1.445   .     S
C430   H457    1.111   .     S
C430   H459    1.110   .     S
C431   H447    1.110   .     S
C431   H448    1.110   .     S
C431   N466    1.450   .     S
C431   H446    1.109   .     S
C432   O472    1.285   .     A
C432   O473    1.293   .     A
C433   H452    1.110   .     S
C433   H450    1.109   .     S
C433   N467    1.450   .     S
C433   H451    1.110   .     S
C434   N468    1.157   .     T
C435   N469    1.157   .     T
C436   N470    1.156   .     T
C437   N462    1.156   .     T
C438   O475    1.284   .     A
C438   C440    1.365   .     S
C438   O478    1.285   .     A
C439   O476    1.284   .     A
C439   O477    1.285   .     A
C439   C441    1.365   .     S
C440   C1521   1.165   1_554 S
C441   C980    1.165   .     S
C442   N464    1.426   .     S
C443   N465    1.426   .     S
C443   C482    1.391   .     S
C444   N466    1.428   .     S
C444   C502    1.391   .     S
H445   N464    1.028   .     S
H449   N467    1.030   .     S
H456   N465    1.028   .     S
H460   N466    1.030   .     S
N461   Zn479   2.032   .     S
N463   Zn480   2.032   .     S
O471   Zn479   1.996   .     S
O472   Zn480   1.996   .     S
O473   Zn479   1.989   .     S
O474   Zn480   1.989   .     S
O475   Zn479   1.946   .     S
O476   Zn480   1.946   .     S
O477   Zn479   1.947   .     S
O478   Zn480   1.947   .     S
C481   O534    1.293   .     A
C481   C484    1.417   .     S
C481   O531    1.285   .     A
C482   C484    1.403   .     A
C482   N527    1.428   .     S
C483   C503    1.404   .     A
C483   C492    1.417   .     S
C483   C504    1.403   .     A
C484   C502    1.404   .     A
C485   C494    1.442   .     S
C485   N523    1.369   .     A
C486   C495    1.442   .     S
C486   N521    1.369   .     A
C486   C127    1.428   1_565 S
C487   N523    1.372   .     A
C487   C496    1.440   .     S
C488   C497    1.440   .     S
C488   N521    1.372   .     A
C488   C125    1.428   1_565 S
C489   H513    1.111   .     S
C489   H514    1.110   .     S
C489   H515    1.106   .     S
C489   N524    1.445   .     S
C490   H518    1.106   .     S
C490   N525    1.445   .     S
C490   H517    1.111   .     S
C490   H519    1.110   .     S
C491   H507    1.110   .     S
C491   H508    1.110   .     S
C491   N526    1.450   .     S
C491   H506    1.109   .     S
C492   O532    1.285   .     A
C492   O533    1.293   .     A
C493   H512    1.110   .     S
C493   H510    1.109   .     S
C493   N527    1.450   .     S
C493   H511    1.110   .     S
C494   N528    1.157   .     T
C495   N529    1.157   .     T
C496   N530    1.156   .     T
C497   N522    1.156   .     T
C498   O535    1.284   .     A
C498   C500    1.365   .     S
C498   O538    1.285   .     A
C499   O536    1.284   .     A
C499   O537    1.285   .     A
C499   C501    1.365   .     S
C500   C1581   1.165   1_554 S
C501   C1040   1.165   .     S
C502   N524    1.426   .     S
C503   N525    1.426   .     S
C503   C362    1.391   1_655 S
C504   N526    1.428   .     S
C504   C382    1.391   1_655 S
H505   N524    1.028   .     S
H509   N527    1.030   .     S
H516   N525    1.028   .     S
H520   N526    1.030   .     S
N521   Zn539   2.032   .     S
N523   Zn540   2.032   .     S
O531   Zn539   1.996   .     S
O532   Zn540   1.996   .     S
O533   Zn539   1.989   .     S
O534   Zn540   1.989   .     S
O535   Zn539   1.946   .     S
O536   Zn540   1.946   .     S
O537   Zn539   1.947   .     S
O538   Zn540   1.947   .     S
C541   O594    1.293   .     A
C541   C544    1.417   .     S
C541   O591    1.285   .     A
C542   C544    1.403   .     A
C542   N587    1.428   .     S
C542   C683    1.391   1_455 S
C543   C563    1.404   .     A
C543   C552    1.417   .     S
C543   C564    1.403   .     A
C544   C562    1.404   .     A
C545   C554    1.442   .     S
C545   N583    1.369   .     A
C545   C908    1.428   1_545 S
C546   C555    1.442   .     S
C546   N581    1.369   .     A
C546   C727    1.428   .     S
C547   N583    1.372   .     A
C547   C556    1.440   .     S
C547   C906    1.428   1_545 S
C548   C557    1.440   .     S
C548   N581    1.372   .     A
C548   C725    1.428   .     S
C549   H573    1.111   .     S
C549   H574    1.110   .     S
C549   H575    1.106   .     S
C549   N584    1.445   .     S
C550   H578    1.106   .     S
C550   N585    1.445   .     S
C550   H577    1.111   .     S
C550   H579    1.110   .     S
C551   H567    1.110   .     S
C551   H568    1.110   .     S
C551   N586    1.450   .     S
C551   H566    1.109   .     S
C552   O592    1.285   .     A
C552   O593    1.293   .     A
C553   H572    1.110   .     S
C553   H570    1.109   .     S
C553   N587    1.450   .     S
C553   H571    1.110   .     S
C554   N588    1.157   .     T
C555   N589    1.157   .     T
C556   N590    1.156   .     T
C557   N582    1.156   .     T
C558   O595    1.284   .     A
C558   C560    1.365   .     S
C558   O598    1.285   .     A
C559   O596    1.284   .     A
C559   O597    1.285   .     A
C559   C561    1.365   .     S
C561   C1100   1.165   .     S
C562   N584    1.426   .     S
C562   C684    1.391   1_455 S
C563   N585    1.426   .     S
C563   C602    1.391   .     S
C564   N586    1.428   .     S
C564   C622    1.391   .     S
H565   N584    1.028   .     S
H569   N587    1.030   .     S
H576   N585    1.028   .     S
H580   N586    1.030   .     S
N581   Zn599   2.032   .     S
N583   Zn600   2.032   .     S
O591   Zn599   1.996   .     S
O592   Zn600   1.996   .     S
O593   Zn599   1.989   .     S
O594   Zn600   1.989   .     S
O595   Zn599   1.946   .     S
O596   Zn600   1.946   .     S
O597   Zn599   1.947   .     S
O598   Zn600   1.947   .     S
C601   O654    1.293   .     A
C601   C604    1.417   .     S
C601   O651    1.285   .     A
C602   C604    1.403   .     A
C602   N647    1.428   .     S
C603   C623    1.404   .     A
C603   C612    1.417   .     S
C603   C624    1.403   .     A
C604   C622    1.404   .     A
C605   C614    1.442   .     S
C605   N643    1.369   .     A
C605   C968    1.428   1_545 S
C606   C615    1.442   .     S
C606   N641    1.369   .     A
C606   C787    1.428   .     S
C607   N643    1.372   .     A
C607   C616    1.440   .     S
C607   C966    1.428   1_545 S
C608   C617    1.440   .     S
C608   N641    1.372   .     A
C608   C785    1.428   .     S
C609   H633    1.111   .     S
C609   H634    1.110   .     S
C609   H635    1.106   .     S
C609   N644    1.445   .     S
C610   H638    1.106   .     S
C610   N645    1.445   .     S
C610   H637    1.111   .     S
C610   H639    1.110   .     S
C611   H627    1.110   .     S
C611   H628    1.110   .     S
C611   N646    1.450   .     S
C611   H626    1.109   .     S
C612   O652    1.285   .     A
C612   O653    1.293   .     A
C613   H632    1.110   .     S
C613   H630    1.109   .     S
C613   N647    1.450   .     S
C613   H631    1.110   .     S
C614   N648    1.157   .     T
C615   N649    1.157   .     T
C616   N650    1.156   .     T
C617   N642    1.156   .     T
C618   O655    1.284   .     A
C618   C620    1.365   .     S
C618   O658    1.285   .     A
C619   O656    1.284   .     A
C619   O657    1.285   .     A
C619   C621    1.365   .     S
C621   C1160   1.165   .     S
C622   N644    1.426   .     S
C623   N645    1.426   .     S
C623   C662    1.391   .     S
C624   N646    1.428   .     S
C624   C682    1.391   .     S
H625   N644    1.028   .     S
H629   N647    1.030   .     S
H636   N645    1.028   .     S
H640   N646    1.030   .     S
N641   Zn659   2.032   .     S
N643   Zn660   2.032   .     S
O651   Zn659   1.996   .     S
O652   Zn660   1.996   .     S
O653   Zn659   1.989   .     S
O654   Zn660   1.989   .     S
O655   Zn659   1.946   .     S
O656   Zn660   1.946   .     S
O657   Zn659   1.947   .     S
O658   Zn660   1.947   .     S
C661   O714    1.293   .     A
C661   C664    1.417   .     S
C661   O711    1.285   .     A
C662   C664    1.403   .     A
C662   N707    1.428   .     S
C663   C683    1.404   .     A
C663   C672    1.417   .     S
C663   C684    1.403   .     A
C664   C682    1.404   .     A
C665   C674    1.442   .     S
C665   N703    1.369   .     A
C665   C1028   1.428   1_545 S
C666   C675    1.442   .     S
C666   N701    1.369   .     A
C666   C847    1.428   .     S
C667   N703    1.372   .     A
C667   C676    1.440   .     S
C667   C1026   1.428   1_545 S
C668   C677    1.440   .     S
C668   N701    1.372   .     A
C668   C845    1.428   .     S
C669   H693    1.111   .     S
C669   H694    1.110   .     S
C669   H695    1.106   .     S
C669   N704    1.445   .     S
C670   H698    1.106   .     S
C670   N705    1.445   .     S
C670   H697    1.111   .     S
C670   H699    1.110   .     S
C671   H687    1.110   .     S
C671   H688    1.110   .     S
C671   N706    1.450   .     S
C671   H686    1.109   .     S
C672   O712    1.285   .     A
C672   O713    1.293   .     A
C673   H692    1.110   .     S
C673   H690    1.109   .     S
C673   N707    1.450   .     S
C673   H691    1.110   .     S
C674   N708    1.157   .     T
C675   N709    1.157   .     T
C676   N710    1.156   .     T
C677   N702    1.156   .     T
C678   O715    1.284   .     A
C678   C680    1.365   .     S
C678   O718    1.285   .     A
C679   O716    1.284   .     A
C679   O717    1.285   .     A
C679   C681    1.365   .     S
C681   C1220   1.165   .     S
C682   N704    1.426   .     S
C683   N705    1.426   .     S
C683   C542    1.391   1_655 S
C684   N706    1.428   .     S
C684   C562    1.391   1_655 S
H685   N704    1.028   .     S
H689   N707    1.030   .     S
H696   N705    1.028   .     S
H700   N706    1.030   .     S
N701   Zn719   2.032   .     S
N703   Zn720   2.032   .     S
O711   Zn719   1.996   .     S
O712   Zn720   1.996   .     S
O713   Zn719   1.989   .     S
O714   Zn720   1.989   .     S
O715   Zn719   1.946   .     S
O716   Zn720   1.946   .     S
O717   Zn719   1.947   .     S
O718   Zn720   1.947   .     S
C721   O774    1.293   .     A
C721   C724    1.417   .     S
C721   O771    1.285   .     A
C722   C724    1.403   .     A
C722   N767    1.428   .     S
C722   C863    1.391   1_455 S
C723   C743    1.404   .     A
C723   C732    1.417   .     S
C723   C744    1.403   .     A
C724   C742    1.404   .     A
C725   C734    1.442   .     S
C725   N763    1.369   .     A
C726   C735    1.442   .     S
C726   N761    1.369   .     A
C726   C907    1.428   .     S
C727   N763    1.372   .     A
C727   C736    1.440   .     S
C728   C737    1.440   .     S
C728   N761    1.372   .     A
C728   C905    1.428   .     S
C729   H753    1.111   .     S
C729   H754    1.110   .     S
C729   H755    1.106   .     S
C729   N764    1.445   .     S
C730   H758    1.106   .     S
C730   N765    1.445   .     S
C730   H757    1.111   .     S
C730   H759    1.110   .     S
C731   H747    1.110   .     S
C731   H748    1.110   .     S
C731   N766    1.450   .     S
C731   H746    1.109   .     S
C732   O772    1.285   .     A
C732   O773    1.293   .     A
C733   H752    1.110   .     S
C733   H750    1.109   .     S
C733   N767    1.450   .     S
C733   H751    1.110   .     S
C734   N768    1.157   .     T
C735   N769    1.157   .     T
C736   N770    1.156   .     T
C737   N762    1.156   .     T
C738   O775    1.284   .     A
C738   C740    1.365   .     S
C738   O778    1.285   .     A
C739   O776    1.284   .     A
C739   O777    1.285   .     A
C739   C741    1.365   .     S
C741   C1280   1.165   .     S
C742   N764    1.426   .     S
C742   C864    1.391   1_455 S
C743   N765    1.426   .     S
C743   C782    1.391   .     S
C744   N766    1.428   .     S
C744   C802    1.391   .     S
H745   N764    1.028   .     S
H749   N767    1.030   .     S
H756   N765    1.028   .     S
H760   N766    1.030   .     S
N761   Zn779   2.032   .     S
N763   Zn780   2.032   .     S
O771   Zn779   1.996   .     S
O772   Zn780   1.996   .     S
O773   Zn779   1.989   .     S
O774   Zn780   1.989   .     S
O775   Zn779   1.946   .     S
O776   Zn780   1.946   .     S
O777   Zn779   1.947   .     S
O778   Zn780   1.947   .     S
C781   O834    1.293   .     A
C781   C784    1.417   .     S
C781   O831    1.285   .     A
C782   C784    1.403   .     A
C782   N827    1.428   .     S
C783   C803    1.404   .     A
C783   C792    1.417   .     S
C783   C804    1.403   .     A
C784   C802    1.404   .     A
C785   C794    1.442   .     S
C785   N823    1.369   .     A
C786   C795    1.442   .     S
C786   N821    1.369   .     A
C786   C967    1.428   .     S
C787   N823    1.372   .     A
C787   C796    1.440   .     S
C788   C797    1.440   .     S
C788   N821    1.372   .     A
C788   C965    1.428   .     S
C789   H813    1.111   .     S
C789   H814    1.110   .     S
C789   H815    1.106   .     S
C789   N824    1.445   .     S
C790   H818    1.106   .     S
C790   N825    1.445   .     S
C790   H817    1.111   .     S
C790   H819    1.110   .     S
C791   H807    1.110   .     S
C791   H808    1.110   .     S
C791   N826    1.450   .     S
C791   H806    1.109   .     S
C792   O832    1.285   .     A
C792   O833    1.293   .     A
C793   H812    1.110   .     S
C793   H810    1.109   .     S
C793   N827    1.450   .     S
C793   H811    1.110   .     S
C794   N828    1.157   .     T
C795   N829    1.157   .     T
C796   N830    1.156   .     T
C797   N822    1.156   .     T
C798   O835    1.284   .     A
C798   C800    1.365   .     S
C798   O838    1.285   .     A
C799   O836    1.284   .     A
C799   O837    1.285   .     A
C799   C801    1.365   .     S
C801   C1340   1.165   .     S
C802   N824    1.426   .     S
C803   N825    1.426   .     S
C803   C842    1.391   .     S
C804   N826    1.428   .     S
C804   C862    1.391   .     S
H805   N824    1.028   .     S
H809   N827    1.030   .     S
H816   N825    1.028   .     S
H820   N826    1.030   .     S
N821   Zn839   2.032   .     S
N823   Zn840   2.032   .     S
O831   Zn839   1.996   .     S
O832   Zn840   1.996   .     S
O833   Zn839   1.989   .     S
O834   Zn840   1.989   .     S
O835   Zn839   1.946   .     S
O836   Zn840   1.946   .     S
O837   Zn839   1.947   .     S
O838   Zn840   1.947   .     S
C841   O894    1.293   .     A
C841   C844    1.417   .     S
C841   O891    1.285   .     A
C842   C844    1.403   .     A
C842   N887    1.428   .     S
C843   C863    1.404   .     A
C843   C852    1.417   .     S
C843   C864    1.403   .     A
C844   C862    1.404   .     A
C845   C854    1.442   .     S
C845   N883    1.369   .     A
C846   C855    1.442   .     S
C846   N881    1.369   .     A
C846   C1027   1.428   .     S
C847   N883    1.372   .     A
C847   C856    1.440   .     S
C848   C857    1.440   .     S
C848   N881    1.372   .     A
C848   C1025   1.428   .     S
C849   H873    1.111   .     S
C849   H874    1.110   .     S
C849   H875    1.106   .     S
C849   N884    1.445   .     S
C850   H878    1.106   .     S
C850   N885    1.445   .     S
C850   H877    1.111   .     S
C850   H879    1.110   .     S
C851   H867    1.110   .     S
C851   H868    1.110   .     S
C851   N886    1.450   .     S
C851   H866    1.109   .     S
C852   O892    1.285   .     A
C852   O893    1.293   .     A
C853   H872    1.110   .     S
C853   H870    1.109   .     S
C853   N887    1.450   .     S
C853   H871    1.110   .     S
C854   N888    1.157   .     T
C855   N889    1.157   .     T
C856   N890    1.156   .     T
C857   N882    1.156   .     T
C858   O895    1.284   .     A
C858   C860    1.365   .     S
C858   O898    1.285   .     A
C859   O896    1.284   .     A
C859   O897    1.285   .     A
C859   C861    1.365   .     S
C861   C1400   1.165   .     S
C862   N884    1.426   .     S
C863   N885    1.426   .     S
C863   C722    1.391   1_655 S
C864   N886    1.428   .     S
C864   C742    1.391   1_655 S
H865   N884    1.028   .     S
H869   N887    1.030   .     S
H876   N885    1.028   .     S
H880   N886    1.030   .     S
N881   Zn899   2.032   .     S
N883   Zn900   2.032   .     S
O891   Zn899   1.996   .     S
O892   Zn900   1.996   .     S
O893   Zn899   1.989   .     S
O894   Zn900   1.989   .     S
O895   Zn899   1.946   .     S
O896   Zn900   1.946   .     S
O897   Zn899   1.947   .     S
O898   Zn900   1.947   .     S
C901   O954    1.293   .     A
C901   C904    1.417   .     S
C901   O951    1.285   .     A
C902   C904    1.403   .     A
C902   N947    1.428   .     S
C902   C1043   1.391   1_455 S
C903   C923    1.404   .     A
C903   C912    1.417   .     S
C903   C924    1.403   .     A
C904   C922    1.404   .     A
C905   C914    1.442   .     S
C905   N943    1.369   .     A
C906   C915    1.442   .     S
C906   N941    1.369   .     A
C906   C547    1.428   1_565 S
C907   N943    1.372   .     A
C907   C916    1.440   .     S
C908   C917    1.440   .     S
C908   N941    1.372   .     A
C908   C545    1.428   1_565 S
C909   H933    1.111   .     S
C909   H934    1.110   .     S
C909   H935    1.106   .     S
C909   N944    1.445   .     S
C910   H938    1.106   .     S
C910   N945    1.445   .     S
C910   H937    1.111   .     S
C910   H939    1.110   .     S
C911   H927    1.110   .     S
C911   H928    1.110   .     S
C911   N946    1.450   .     S
C911   H926    1.109   .     S
C912   O952    1.285   .     A
C912   O953    1.293   .     A
C913   H932    1.110   .     S
C913   H930    1.109   .     S
C913   N947    1.450   .     S
C913   H931    1.110   .     S
C914   N948    1.157   .     T
C915   N949    1.157   .     T
C916   N950    1.156   .     T
C917   N942    1.156   .     T
C918   O955    1.284   .     A
C918   C920    1.365   .     S
C918   O958    1.285   .     A
C919   O956    1.284   .     A
C919   O957    1.285   .     A
C919   C921    1.365   .     S
C921   C1460   1.165   .     S
C922   N944    1.426   .     S
C922   C1044   1.391   1_455 S
C923   N945    1.426   .     S
C923   C962    1.391   .     S
C924   N946    1.428   .     S
C924   C982    1.391   .     S
H925   N944    1.028   .     S
H929   N947    1.030   .     S
H936   N945    1.028   .     S
H940   N946    1.030   .     S
N941   Zn959   2.032   .     S
N943   Zn960   2.032   .     S
O951   Zn959   1.996   .     S
O952   Zn960   1.996   .     S
O953   Zn959   1.989   .     S
O954   Zn960   1.989   .     S
O955   Zn959   1.946   .     S
O956   Zn960   1.946   .     S
O957   Zn959   1.947   .     S
O958   Zn960   1.947   .     S
C961   O1014   1.293   .     A
C961   C964    1.417   .     S
C961   O1011   1.285   .     A
C962   C964    1.403   .     A
C962   N1007   1.428   .     S
C963   C983    1.404   .     A
C963   C972    1.417   .     S
C963   C984    1.403   .     A
C964   C982    1.404   .     A
C965   C974    1.442   .     S
C965   N1003   1.369   .     A
C966   C975    1.442   .     S
C966   N1001   1.369   .     A
C966   C607    1.428   1_565 S
C967   N1003   1.372   .     A
C967   C976    1.440   .     S
C968   C977    1.440   .     S
C968   N1001   1.372   .     A
C968   C605    1.428   1_565 S
C969   H993    1.111   .     S
C969   H994    1.110   .     S
C969   H995    1.106   .     S
C969   N1004   1.445   .     S
C970   H998    1.106   .     S
C970   N1005   1.445   .     S
C970   H997    1.111   .     S
C970   H999    1.110   .     S
C971   H987    1.110   .     S
C971   H988    1.110   .     S
C971   N1006   1.450   .     S
C971   H986    1.109   .     S
C972   O1012   1.285   .     A
C972   O1013   1.293   .     A
C973   H992    1.110   .     S
C973   H990    1.109   .     S
C973   N1007   1.450   .     S
C973   H991    1.110   .     S
C974   N1008   1.157   .     T
C975   N1009   1.157   .     T
C976   N1010   1.156   .     T
C977   N1002   1.156   .     T
C978   O1015   1.284   .     A
C978   C980    1.365   .     S
C978   O1018   1.285   .     A
C979   O1016   1.284   .     A
C979   O1017   1.285   .     A
C979   C981    1.365   .     S
C981   C1520   1.165   .     S
C982   N1004   1.426   .     S
C983   N1005   1.426   .     S
C983   C1022   1.391   .     S
C984   N1006   1.428   .     S
C984   C1042   1.391   .     S
H985   N1004   1.028   .     S
H989   N1007   1.030   .     S
H996   N1005   1.028   .     S
H1000  N1006   1.030   .     S
N1001  Zn1019  2.032   .     S
N1003  Zn1020  2.032   .     S
O1011  Zn1019  1.996   .     S
O1012  Zn1020  1.996   .     S
O1013  Zn1019  1.989   .     S
O1014  Zn1020  1.989   .     S
O1015  Zn1019  1.946   .     S
O1016  Zn1020  1.946   .     S
O1017  Zn1019  1.947   .     S
O1018  Zn1020  1.947   .     S
C1021  O1074   1.293   .     A
C1021  C1024   1.417   .     S
C1021  O1071   1.285   .     A
C1022  C1024   1.403   .     A
C1022  N1067   1.428   .     S
C1023  C1043   1.404   .     A
C1023  C1032   1.417   .     S
C1023  C1044   1.403   .     A
C1024  C1042   1.404   .     A
C1025  C1034   1.442   .     S
C1025  N1063   1.369   .     A
C1026  C1035   1.442   .     S
C1026  N1061   1.369   .     A
C1026  C667    1.428   1_565 S
C1027  N1063   1.372   .     A
C1027  C1036   1.440   .     S
C1028  C1037   1.440   .     S
C1028  N1061   1.372   .     A
C1028  C665    1.428   1_565 S
C1029  H1053   1.111   .     S
C1029  H1054   1.110   .     S
C1029  H1055   1.106   .     S
C1029  N1064   1.445   .     S
C1030  H1058   1.106   .     S
C1030  N1065   1.445   .     S
C1030  H1057   1.111   .     S
C1030  H1059   1.110   .     S
C1031  H1047   1.110   .     S
C1031  H1048   1.110   .     S
C1031  N1066   1.450   .     S
C1031  H1046   1.109   .     S
C1032  O1072   1.285   .     A
C1032  O1073   1.293   .     A
C1033  H1052   1.110   .     S
C1033  H1050   1.109   .     S
C1033  N1067   1.450   .     S
C1033  H1051   1.110   .     S
C1034  N1068   1.157   .     T
C1035  N1069   1.157   .     T
C1036  N1070   1.156   .     T
C1037  N1062   1.156   .     T
C1038  O1075   1.284   .     A
C1038  C1040   1.365   .     S
C1038  O1078   1.285   .     A
C1039  O1076   1.284   .     A
C1039  O1077   1.285   .     A
C1039  C1041   1.365   .     S
C1041  C1580   1.165   .     S
C1042  N1064   1.426   .     S
C1043  N1065   1.426   .     S
C1043  C902    1.391   1_655 S
C1044  N1066   1.428   .     S
C1044  C922    1.391   1_655 S
H1045  N1064   1.028   .     S
H1049  N1067   1.030   .     S
H1056  N1065   1.028   .     S
H1060  N1066   1.030   .     S
N1061  Zn1079  2.032   .     S
N1063  Zn1080  2.032   .     S
O1071  Zn1079  1.996   .     S
O1072  Zn1080  1.996   .     S
O1073  Zn1079  1.989   .     S
O1074  Zn1080  1.989   .     S
O1075  Zn1079  1.946   .     S
O1076  Zn1080  1.946   .     S
O1077  Zn1079  1.947   .     S
O1078  Zn1080  1.947   .     S
C1081  O1134   1.293   .     A
C1081  C1084   1.417   .     S
C1081  O1131   1.285   .     A
C1082  C1084   1.403   .     A
C1082  N1127   1.428   .     S
C1082  C1223   1.391   1_455 S
C1083  C1103   1.404   .     A
C1083  C1092   1.417   .     S
C1083  C1104   1.403   .     A
C1084  C1102   1.404   .     A
C1085  C1094   1.442   .     S
C1085  N1123   1.369   .     A
C1085  C1448   1.428   1_545 S
C1086  C1095   1.442   .     S
C1086  N1121   1.369   .     A
C1086  C1267   1.428   .     S
C1087  N1123   1.372   .     A
C1087  C1096   1.440   .     S
C1087  C1446   1.428   1_545 S
C1088  C1097   1.440   .     S
C1088  N1121   1.372   .     A
C1088  C1265   1.428   .     S
C1089  H1113   1.111   .     S
C1089  H1114   1.110   .     S
C1089  H1115   1.106   .     S
C1089  N1124   1.445   .     S
C1090  H1118   1.106   .     S
C1090  N1125   1.445   .     S
C1090  H1117   1.111   .     S
C1090  H1119   1.110   .     S
C1091  H1107   1.110   .     S
C1091  H1108   1.110   .     S
C1091  N1126   1.450   .     S
C1091  H1106   1.109   .     S
C1092  O1132   1.285   .     A
C1092  O1133   1.293   .     A
C1093  H1112   1.110   .     S
C1093  H1110   1.109   .     S
C1093  N1127   1.450   .     S
C1093  H1111   1.110   .     S
C1094  N1128   1.157   .     T
C1095  N1129   1.157   .     T
C1096  N1130   1.156   .     T
C1097  N1122   1.156   .     T
C1098  O1135   1.284   .     A
C1098  C1100   1.365   .     S
C1098  O1138   1.285   .     A
C1099  O1136   1.284   .     A
C1099  O1137   1.285   .     A
C1099  C1101   1.365   .     S
C1101  C20     1.165   1_556 S
C1102  N1124   1.426   .     S
C1102  C1224   1.391   1_455 S
C1103  N1125   1.426   .     S
C1103  C1142   1.391   .     S
C1104  N1126   1.428   .     S
C1104  C1162   1.391   .     S
H1105  N1124   1.028   .     S
H1109  N1127   1.030   .     S
H1116  N1125   1.028   .     S
H1120  N1126   1.030   .     S
N1121  Zn1139  2.032   .     S
N1123  Zn1140  2.032   .     S
O1131  Zn1139  1.996   .     S
O1132  Zn1140  1.996   .     S
O1133  Zn1139  1.989   .     S
O1134  Zn1140  1.989   .     S
O1135  Zn1139  1.946   .     S
O1136  Zn1140  1.946   .     S
O1137  Zn1139  1.947   .     S
O1138  Zn1140  1.947   .     S
C1141  O1194   1.293   .     A
C1141  C1144   1.417   .     S
C1141  O1191   1.285   .     A
C1142  C1144   1.403   .     A
C1142  N1187   1.428   .     S
C1143  C1163   1.404   .     A
C1143  C1152   1.417   .     S
C1143  C1164   1.403   .     A
C1144  C1162   1.404   .     A
C1145  C1154   1.442   .     S
C1145  N1183   1.369   .     A
C1145  C1508   1.428   1_545 S
C1146  C1155   1.442   .     S
C1146  N1181   1.369   .     A
C1146  C1327   1.428   .     S
C1147  N1183   1.372   .     A
C1147  C1156   1.440   .     S
C1147  C1506   1.428   1_545 S
C1148  C1157   1.440   .     S
C1148  N1181   1.372   .     A
C1148  C1325   1.428   .     S
C1149  H1173   1.111   .     S
C1149  H1174   1.110   .     S
C1149  H1175   1.106   .     S
C1149  N1184   1.445   .     S
C1150  H1178   1.106   .     S
C1150  N1185   1.445   .     S
C1150  H1177   1.111   .     S
C1150  H1179   1.110   .     S
C1151  H1167   1.110   .     S
C1151  H1168   1.110   .     S
C1151  N1186   1.450   .     S
C1151  H1166   1.109   .     S
C1152  O1192   1.285   .     A
C1152  O1193   1.293   .     A
C1153  H1172   1.110   .     S
C1153  H1170   1.109   .     S
C1153  N1187   1.450   .     S
C1153  H1171   1.110   .     S
C1154  N1188   1.157   .     T
C1155  N1189   1.157   .     T
C1156  N1190   1.156   .     T
C1157  N1182   1.156   .     T
C1158  O1195   1.284   .     A
C1158  C1160   1.365   .     S
C1158  O1198   1.285   .     A
C1159  O1196   1.284   .     A
C1159  O1197   1.285   .     A
C1159  C1161   1.365   .     S
C1161  C80     1.165   1_556 S
C1162  N1184   1.426   .     S
C1163  N1185   1.426   .     S
C1163  C1202   1.391   .     S
C1164  N1186   1.428   .     S
C1164  C1222   1.391   .     S
H1165  N1184   1.028   .     S
H1169  N1187   1.030   .     S
H1176  N1185   1.028   .     S
H1180  N1186   1.030   .     S
N1181  Zn1199  2.032   .     S
N1183  Zn1200  2.032   .     S
O1191  Zn1199  1.996   .     S
O1192  Zn1200  1.996   .     S
O1193  Zn1199  1.989   .     S
O1194  Zn1200  1.989   .     S
O1195  Zn1199  1.946   .     S
O1196  Zn1200  1.946   .     S
O1197  Zn1199  1.947   .     S
O1198  Zn1200  1.947   .     S
C1201  O1254   1.293   .     A
C1201  C1204   1.417   .     S
C1201  O1251   1.285   .     A
C1202  C1204   1.403   .     A
C1202  N1247   1.428   .     S
C1203  C1223   1.404   .     A
C1203  C1212   1.417   .     S
C1203  C1224   1.403   .     A
C1204  C1222   1.404   .     A
C1205  C1214   1.442   .     S
C1205  N1243   1.369   .     A
C1205  C1568   1.428   1_545 S
C1206  C1215   1.442   .     S
C1206  N1241   1.369   .     A
C1206  C1387   1.428   .     S
C1207  N1243   1.372   .     A
C1207  C1216   1.440   .     S
C1207  C1566   1.428   1_545 S
C1208  C1217   1.440   .     S
C1208  N1241   1.372   .     A
C1208  C1385   1.428   .     S
C1209  H1233   1.111   .     S
C1209  H1234   1.110   .     S
C1209  H1235   1.106   .     S
C1209  N1244   1.445   .     S
C1210  H1238   1.106   .     S
C1210  N1245   1.445   .     S
C1210  H1237   1.111   .     S
C1210  H1239   1.110   .     S
C1211  H1227   1.110   .     S
C1211  H1228   1.110   .     S
C1211  N1246   1.450   .     S
C1211  H1226   1.109   .     S
C1212  O1252   1.285   .     A
C1212  O1253   1.293   .     A
C1213  H1232   1.110   .     S
C1213  H1230   1.109   .     S
C1213  N1247   1.450   .     S
C1213  H1231   1.110   .     S
C1214  N1248   1.157   .     T
C1215  N1249   1.157   .     T
C1216  N1250   1.156   .     T
C1217  N1242   1.156   .     T
C1218  O1255   1.284   .     A
C1218  C1220   1.365   .     S
C1218  O1258   1.285   .     A
C1219  O1256   1.284   .     A
C1219  O1257   1.285   .     A
C1219  C1221   1.365   .     S
C1221  C140    1.165   1_556 S
C1222  N1244   1.426   .     S
C1223  N1245   1.426   .     S
C1223  C1082   1.391   1_655 S
C1224  N1246   1.428   .     S
C1224  C1102   1.391   1_655 S
H1225  N1244   1.028   .     S
H1229  N1247   1.030   .     S
H1236  N1245   1.028   .     S
H1240  N1246   1.030   .     S
N1241  Zn1259  2.032   .     S
N1243  Zn1260  2.032   .     S
O1251  Zn1259  1.996   .     S
O1252  Zn1260  1.996   .     S
O1253  Zn1259  1.989   .     S
O1254  Zn1260  1.989   .     S
O1255  Zn1259  1.946   .     S
O1256  Zn1260  1.946   .     S
O1257  Zn1259  1.947   .     S
O1258  Zn1260  1.947   .     S
C1261  O1314   1.293   .     A
C1261  C1264   1.417   .     S
C1261  O1311   1.285   .     A
C1262  C1264   1.403   .     A
C1262  N1307   1.428   .     S
C1262  C1403   1.391   1_455 S
C1263  C1283   1.404   .     A
C1263  C1272   1.417   .     S
C1263  C1284   1.403   .     A
C1264  C1282   1.404   .     A
C1265  C1274   1.442   .     S
C1265  N1303   1.369   .     A
C1266  C1275   1.442   .     S
C1266  N1301   1.369   .     A
C1266  C1447   1.428   .     S
C1267  N1303   1.372   .     A
C1267  C1276   1.440   .     S
C1268  C1277   1.440   .     S
C1268  N1301   1.372   .     A
C1268  C1445   1.428   .     S
C1269  H1293   1.111   .     S
C1269  H1294   1.110   .     S
C1269  H1295   1.106   .     S
C1269  N1304   1.445   .     S
C1270  H1298   1.106   .     S
C1270  N1305   1.445   .     S
C1270  H1297   1.111   .     S
C1270  H1299   1.110   .     S
C1271  H1287   1.110   .     S
C1271  H1288   1.110   .     S
C1271  N1306   1.450   .     S
C1271  H1286   1.109   .     S
C1272  O1312   1.285   .     A
C1272  O1313   1.293   .     A
C1273  H1292   1.110   .     S
C1273  H1290   1.109   .     S
C1273  N1307   1.450   .     S
C1273  H1291   1.110   .     S
C1274  N1308   1.157   .     T
C1275  N1309   1.157   .     T
C1276  N1310   1.156   .     T
C1277  N1302   1.156   .     T
C1278  O1315   1.284   .     A
C1278  C1280   1.365   .     S
C1278  O1318   1.285   .     A
C1279  O1316   1.284   .     A
C1279  O1317   1.285   .     A
C1279  C1281   1.365   .     S
C1281  C200    1.165   1_556 S
C1282  N1304   1.426   .     S
C1282  C1404   1.391   1_455 S
C1283  N1305   1.426   .     S
C1283  C1322   1.391   .     S
C1284  N1306   1.428   .     S
C1284  C1342   1.391   .     S
H1285  N1304   1.028   .     S
H1289  N1307   1.030   .     S
H1296  N1305   1.028   .     S
H1300  N1306   1.030   .     S
N1301  Zn1319  2.032   .     S
N1303  Zn1320  2.032   .     S
O1311  Zn1319  1.996   .     S
O1312  Zn1320  1.996   .     S
O1313  Zn1319  1.989   .     S
O1314  Zn1320  1.989   .     S
O1315  Zn1319  1.946   .     S
O1316  Zn1320  1.946   .     S
O1317  Zn1319  1.947   .     S
O1318  Zn1320  1.947   .     S
C1321  O1374   1.293   .     A
C1321  C1324   1.417   .     S
C1321  O1371   1.285   .     A
C1322  C1324   1.403   .     A
C1322  N1367   1.428   .     S
C1323  C1343   1.404   .     A
C1323  C1332   1.417   .     S
C1323  C1344   1.403   .     A
C1324  C1342   1.404   .     A
C1325  C1334   1.442   .     S
C1325  N1363   1.369   .     A
C1326  C1335   1.442   .     S
C1326  N1361   1.369   .     A
C1326  C1507   1.428   .     S
C1327  N1363   1.372   .     A
C1327  C1336   1.440   .     S
C1328  C1337   1.440   .     S
C1328  N1361   1.372   .     A
C1328  C1505   1.428   .     S
C1329  H1353   1.111   .     S
C1329  H1354   1.110   .     S
C1329  H1355   1.106   .     S
C1329  N1364   1.445   .     S
C1330  H1358   1.106   .     S
C1330  N1365   1.445   .     S
C1330  H1357   1.111   .     S
C1330  H1359   1.110   .     S
C1331  H1347   1.110   .     S
C1331  H1348   1.110   .     S
C1331  N1366   1.450   .     S
C1331  H1346   1.109   .     S
C1332  O1372   1.285   .     A
C1332  O1373   1.293   .     A
C1333  H1352   1.110   .     S
C1333  H1350   1.109   .     S
C1333  N1367   1.450   .     S
C1333  H1351   1.110   .     S
C1334  N1368   1.157   .     T
C1335  N1369   1.157   .     T
C1336  N1370   1.156   .     T
C1337  N1362   1.156   .     T
C1338  O1375   1.284   .     A
C1338  C1340   1.365   .     S
C1338  O1378   1.285   .     A
C1339  O1376   1.284   .     A
C1339  O1377   1.285   .     A
C1339  C1341   1.365   .     S
C1341  C260    1.165   1_556 S
C1342  N1364   1.426   .     S
C1343  N1365   1.426   .     S
C1343  C1382   1.391   .     S
C1344  N1366   1.428   .     S
C1344  C1402   1.391   .     S
H1345  N1364   1.028   .     S
H1349  N1367   1.030   .     S
H1356  N1365   1.028   .     S
H1360  N1366   1.030   .     S
N1361  Zn1379  2.032   .     S
N1363  Zn1380  2.032   .     S
O1371  Zn1379  1.996   .     S
O1372  Zn1380  1.996   .     S
O1373  Zn1379  1.989   .     S
O1374  Zn1380  1.989   .     S
O1375  Zn1379  1.946   .     S
O1376  Zn1380  1.946   .     S
O1377  Zn1379  1.947   .     S
O1378  Zn1380  1.947   .     S
C1381  O1434   1.293   .     A
C1381  C1384   1.417   .     S
C1381  O1431   1.285   .     A
C1382  C1384   1.403   .     A
C1382  N1427   1.428   .     S
C1383  C1403   1.404   .     A
C1383  C1392   1.417   .     S
C1383  C1404   1.403   .     A
C1384  C1402   1.404   .     A
C1385  C1394   1.442   .     S
C1385  N1423   1.369   .     A
C1386  C1395   1.442   .     S
C1386  N1421   1.369   .     A
C1386  C1567   1.428   .     S
C1387  N1423   1.372   .     A
C1387  C1396   1.440   .     S
C1388  C1397   1.440   .     S
C1388  N1421   1.372   .     A
C1388  C1565   1.428   .     S
C1389  H1413   1.111   .     S
C1389  H1414   1.110   .     S
C1389  H1415   1.106   .     S
C1389  N1424   1.445   .     S
C1390  H1418   1.106   .     S
C1390  N1425   1.445   .     S
C1390  H1417   1.111   .     S
C1390  H1419   1.110   .     S
C1391  H1407   1.110   .     S
C1391  H1408   1.110   .     S
C1391  N1426   1.450   .     S
C1391  H1406   1.109   .     S
C1392  O1432   1.285   .     A
C1392  O1433   1.293   .     A
C1393  H1412   1.110   .     S
C1393  H1410   1.109   .     S
C1393  N1427   1.450   .     S
C1393  H1411   1.110   .     S
C1394  N1428   1.157   .     T
C1395  N1429   1.157   .     T
C1396  N1430   1.156   .     T
C1397  N1422   1.156   .     T
C1398  O1435   1.284   .     A
C1398  C1400   1.365   .     S
C1398  O1438   1.285   .     A
C1399  O1436   1.284   .     A
C1399  O1437   1.285   .     A
C1399  C1401   1.365   .     S
C1401  C320    1.165   1_556 S
C1402  N1424   1.426   .     S
C1403  N1425   1.426   .     S
C1403  C1262   1.391   1_655 S
C1404  N1426   1.428   .     S
C1404  C1282   1.391   1_655 S
H1405  N1424   1.028   .     S
H1409  N1427   1.030   .     S
H1416  N1425   1.028   .     S
H1420  N1426   1.030   .     S
N1421  Zn1439  2.032   .     S
N1423  Zn1440  2.032   .     S
O1431  Zn1439  1.996   .     S
O1432  Zn1440  1.996   .     S
O1433  Zn1439  1.989   .     S
O1434  Zn1440  1.989   .     S
O1435  Zn1439  1.946   .     S
O1436  Zn1440  1.946   .     S
O1437  Zn1439  1.947   .     S
O1438  Zn1440  1.947   .     S
C1441  O1494   1.293   .     A
C1441  C1444   1.417   .     S
C1441  O1491   1.285   .     A
C1442  C1444   1.403   .     A
C1442  N1487   1.428   .     S
C1442  C1583   1.391   1_455 S
C1443  C1463   1.404   .     A
C1443  C1452   1.417   .     S
C1443  C1464   1.403   .     A
C1444  C1462   1.404   .     A
C1445  C1454   1.442   .     S
C1445  N1483   1.369   .     A
C1446  C1455   1.442   .     S
C1446  N1481   1.369   .     A
C1446  C1087   1.428   1_565 S
C1447  N1483   1.372   .     A
C1447  C1456   1.440   .     S
C1448  C1457   1.440   .     S
C1448  N1481   1.372   .     A
C1448  C1085   1.428   1_565 S
C1449  H1473   1.111   .     S
C1449  H1474   1.110   .     S
C1449  H1475   1.106   .     S
C1449  N1484   1.445   .     S
C1450  H1478   1.106   .     S
C1450  N1485   1.445   .     S
C1450  H1477   1.111   .     S
C1450  H1479   1.110   .     S
C1451  H1467   1.110   .     S
C1451  H1468   1.110   .     S
C1451  N1486   1.450   .     S
C1451  H1466   1.109   .     S
C1452  O1492   1.285   .     A
C1452  O1493   1.293   .     A
C1453  H1472   1.110   .     S
C1453  H1470   1.109   .     S
C1453  N1487   1.450   .     S
C1453  H1471   1.110   .     S
C1454  N1488   1.157   .     T
C1455  N1489   1.157   .     T
C1456  N1490   1.156   .     T
C1457  N1482   1.156   .     T
C1458  O1495   1.284   .     A
C1458  C1460   1.365   .     S
C1458  O1498   1.285   .     A
C1459  O1496   1.284   .     A
C1459  O1497   1.285   .     A
C1459  C1461   1.365   .     S
C1461  C380    1.165   1_556 S
C1462  N1484   1.426   .     S
C1462  C1584   1.391   1_455 S
C1463  N1485   1.426   .     S
C1463  C1502   1.391   .     S
C1464  N1486   1.428   .     S
C1464  C1522   1.391   .     S
H1465  N1484   1.028   .     S
H1469  N1487   1.030   .     S
H1476  N1485   1.028   .     S
H1480  N1486   1.030   .     S
N1481  Zn1499  2.032   .     S
N1483  Zn1500  2.032   .     S
O1491  Zn1499  1.996   .     S
O1492  Zn1500  1.996   .     S
O1493  Zn1499  1.989   .     S
O1494  Zn1500  1.989   .     S
O1495  Zn1499  1.946   .     S
O1496  Zn1500  1.946   .     S
O1497  Zn1499  1.947   .     S
O1498  Zn1500  1.947   .     S
C1501  O1554   1.293   .     A
C1501  C1504   1.417   .     S
C1501  O1551   1.285   .     A
C1502  C1504   1.403   .     A
C1502  N1547   1.428   .     S
C1503  C1523   1.404   .     A
C1503  C1512   1.417   .     S
C1503  C1524   1.403   .     A
C1504  C1522   1.404   .     A
C1505  C1514   1.442   .     S
C1505  N1543   1.369   .     A
C1506  C1515   1.442   .     S
C1506  N1541   1.369   .     A
C1506  C1147   1.428   1_565 S
C1507  N1543   1.372   .     A
C1507  C1516   1.440   .     S
C1508  C1517   1.440   .     S
C1508  N1541   1.372   .     A
C1508  C1145   1.428   1_565 S
C1509  H1533   1.111   .     S
C1509  H1534   1.110   .     S
C1509  H1535   1.106   .     S
C1509  N1544   1.445   .     S
C1510  H1538   1.106   .     S
C1510  N1545   1.445   .     S
C1510  H1537   1.111   .     S
C1510  H1539   1.110   .     S
C1511  H1527   1.110   .     S
C1511  H1528   1.110   .     S
C1511  N1546   1.450   .     S
C1511  H1526   1.109   .     S
C1512  O1552   1.285   .     A
C1512  O1553   1.293   .     A
C1513  H1532   1.110   .     S
C1513  H1530   1.109   .     S
C1513  N1547   1.450   .     S
C1513  H1531   1.110   .     S
C1514  N1548   1.157   .     T
C1515  N1549   1.157   .     T
C1516  N1550   1.156   .     T
C1517  N1542   1.156   .     T
C1518  O1555   1.284   .     A
C1518  C1520   1.365   .     S
C1518  O1558   1.285   .     A
C1519  O1556   1.284   .     A
C1519  O1557   1.285   .     A
C1519  C1521   1.365   .     S
C1521  C440    1.165   1_556 S
C1522  N1544   1.426   .     S
C1523  N1545   1.426   .     S
C1523  C1562   1.391   .     S
C1524  N1546   1.428   .     S
C1524  C1582   1.391   .     S
H1525  N1544   1.028   .     S
H1529  N1547   1.030   .     S
H1536  N1545   1.028   .     S
H1540  N1546   1.030   .     S
N1541  Zn1559  2.032   .     S
N1543  Zn1560  2.032   .     S
O1551  Zn1559  1.996   .     S
O1552  Zn1560  1.996   .     S
O1553  Zn1559  1.989   .     S
O1554  Zn1560  1.989   .     S
O1555  Zn1559  1.946   .     S
O1556  Zn1560  1.946   .     S
O1557  Zn1559  1.947   .     S
O1558  Zn1560  1.947   .     S
C1561  O1614   1.293   .     A
C1561  C1564   1.417   .     S
C1561  O1611   1.285   .     A
C1562  C1564   1.403   .     A
C1562  N1607   1.428   .     S
C1563  C1583   1.404   .     A
C1563  C1572   1.417   .     S
C1563  C1584   1.403   .     A
C1564  C1582   1.404   .     A
C1565  C1574   1.442   .     S
C1565  N1603   1.369   .     A
C1566  C1575   1.442   .     S
C1566  N1601   1.369   .     A
C1566  C1207   1.428   1_565 S
C1567  N1603   1.372   .     A
C1567  C1576   1.440   .     S
C1568  C1577   1.440   .     S
C1568  N1601   1.372   .     A
C1568  C1205   1.428   1_565 S
C1569  H1593   1.111   .     S
C1569  H1594   1.110   .     S
C1569  H1595   1.106   .     S
C1569  N1604   1.445   .     S
C1570  H1598   1.106   .     S
C1570  N1605   1.445   .     S
C1570  H1597   1.111   .     S
C1570  H1599   1.110   .     S
C1571  H1587   1.110   .     S
C1571  H1588   1.110   .     S
C1571  N1606   1.450   .     S
C1571  H1586   1.109   .     S
C1572  O1612   1.285   .     A
C1572  O1613   1.293   .     A
C1573  H1592   1.110   .     S
C1573  H1590   1.109   .     S
C1573  N1607   1.450   .     S
C1573  H1591   1.110   .     S
C1574  N1608   1.157   .     T
C1575  N1609   1.157   .     T
C1576  N1610   1.156   .     T
C1577  N1602   1.156   .     T
C1578  O1615   1.284   .     A
C1578  C1580   1.365   .     S
C1578  O1618   1.285   .     A
C1579  O1616   1.284   .     A
C1579  O1617   1.285   .     A
C1579  C1581   1.365   .     S
C1581  C500    1.165   1_556 S
C1582  N1604   1.426   .     S
C1583  N1605   1.426   .     S
C1583  C1442   1.391   1_655 S
C1584  N1606   1.428   .     S
C1584  C1462   1.391   1_655 S
H1585  N1604   1.028   .     S
H1589  N1607   1.030   .     S
H1596  N1605   1.028   .     S
H1600  N1606   1.030   .     S
N1601  Zn1619  2.032   .     S
N1603  Zn1620  2.032   .     S
O1611  Zn1619  1.996   .     S
O1612  Zn1620  1.996   .     S
O1613  Zn1619  1.989   .     S
O1614  Zn1620  1.989   .     S
O1615  Zn1619  1.946   .     S
O1616  Zn1620  1.946   .     S
O1617  Zn1619  1.947   .     S
O1618  Zn1620  1.947   .     S
