data_str_m3_o1_o18_pcu_sym.185
_audit_creation_date              2020-01-03
_audit_creation_method            'Materials Studio'
_symmetry_space_group_name_H-M    'P1'
_symmetry_Int_Tables_number       1
_symmetry_cell_setting            triclinic
loop_
_symmetry_equiv_pos_as_xyz
  x,y,z
_cell_length_a                    29.4684
_cell_length_b                    32.2911
_cell_length_c                    31.3308
_cell_angle_alpha                 90.0284
_cell_angle_beta                  68.2713
_cell_angle_gamma                 89.2562
loop_
_atom_site_label
_atom_site_type_symbol
_atom_site_fract_x
_atom_site_fract_y
_atom_site_fract_z
_atom_site_U_iso_or_equiv
_atom_site_adp_type
_atom_site_occupancy
C1     C     0.16619   0.24670   0.25017   0.00000  Uiso   1.00
C2     C     0.16684   0.08657   0.25031   0.00000  Uiso   1.00
C3     C     0.11113   0.19182   0.04866   0.00000  Uiso   1.00
C4     C     0.22599   0.16623   0.44864   0.00000  Uiso   1.00
C5     C     0.07795   0.19817   0.02725   0.00000  Uiso   1.00
C6     C     0.26001   0.16140   0.46939   0.00000  Uiso   1.00
C7     C     0.20401   0.31087   0.25644   0.00000  Uiso   1.00
C8     C     0.12804   0.02221   0.24460   0.00000  Uiso   1.00
C9     C     0.20591   0.01998   0.25562   0.00000  Uiso   1.00
C10    C     0.12696   0.31296   0.24376   0.00000  Uiso   1.00
C11    C     0.16728   0.04236   0.25018   0.00000  Uiso   1.00
C12    C     0.16538   0.29079   0.25011   0.00000  Uiso   1.00
C13    C     0.32306   0.14729   0.21556   0.00000  Uiso   1.00
C14    C     0.01055   0.18703   0.28374   0.00000  Uiso   1.00
C15    C     0.03765   0.14704   0.21569   0.00000  Uiso   1.00
C16    C     0.29584   0.18685   0.28388   0.00000  Uiso   1.00
C17    C     0.13640   0.16722   0.33763   0.00000  Uiso   1.00
C18    C     0.19692   0.16612   0.16230   0.00000  Uiso   1.00
C19    C     0.11826   0.17215   0.38721   0.00000  Uiso   1.00
C20    C     0.21508   0.16502   0.11236   0.00000  Uiso   1.00
C21    C     0.05830   0.19716   0.45880   0.00000  Uiso   1.00
C22    C     0.27938   0.15656   0.03790   0.00000  Uiso   1.00
C23    C     0.07149   0.18838   0.41222   0.00000  Uiso   1.00
C24    C     0.26481   0.15856   0.08549   0.00000  Uiso   1.00
C25    C     0.15137   0.16488   0.40860   0.00000  Uiso   1.00
C26    C     0.18054   0.16975   0.09166   0.00000  Uiso   1.00
C27    C     0.14007   0.17623   0.45446   0.00000  Uiso   1.00
C28    C     0.19479   0.17084   0.04418   0.00000  Uiso   1.00
C29    C     0.09188   0.19054   0.48036   0.00000  Uiso   1.00
C30    C     0.24496   0.16288   0.01698   0.00000  Uiso   1.00
C31    C     0.17549   0.17315   0.47502   0.00000  Uiso   1.00
C32    C     0.16013   0.17842   0.02326   0.00000  Uiso   1.00
H33    H     0.04092   0.20841   0.04747   0.00000  Uiso   1.00
H34    H     0.29833   0.15624   0.44804   0.00000  Uiso   1.00
H35    H     0.14209   0.17156   0.11340   0.00000  Uiso   1.00
H36    H     0.18606   0.15012   0.38866   0.00000  Uiso   1.00
H37    H     0.29191   0.15423   0.10122   0.00000  Uiso   1.00
H38    H     0.04586   0.19507   0.39562   0.00000  Uiso   1.00
H39    H     0.02222   0.20972   0.47776   0.00000  Uiso   1.00
H40    H     0.31735   0.15012   0.01768   0.00000  Uiso   1.00
H41    H     0.09749   0.19916   0.08491   0.00000  Uiso   1.00
H42    H     0.24080   0.16599   0.41154   0.00000  Uiso   1.00
H43    H     0.23283   0.29380   0.26258   0.00000  Uiso   1.00
H44    H     0.09764   0.03932   0.24142   0.00000  Uiso   1.00
H45    H     0.31585   0.13176   0.18793   0.00000  Uiso   1.00
H46    H     0.01803   0.20327   0.31072   0.00000  Uiso   1.00
H47    H     0.06664   0.13093   0.18841   0.00000  Uiso   1.00
H48    H     0.26680   0.20289   0.31115   0.00000  Uiso   1.00
N49    N     0.04759   0.16668   0.25001   0.00000  Uiso   1.00
N50    N     0.28574   0.16666   0.24999   0.00000  Uiso   1.00
O51    O     0.12846   0.22775   0.25001   0.00000  Uiso   1.00
O52    O     0.20488   0.10558   0.25000   0.00000  Uiso   1.00
O53    O     0.20490   0.22774   0.25000   0.00000  Uiso   1.00
O54    O     0.12843   0.10559   0.25000   0.00000  Uiso   1.00
O55    O     0.10661   0.16667   0.31613   0.00000  Uiso   1.00
O56    O     0.22672   0.16666   0.18388   0.00000  Uiso   1.00
O57    O     0.18305   0.16666   0.31612   0.00000  Uiso   1.00
O58    O     0.15028   0.16667   0.18388   0.00000  Uiso   1.00
Zn59   Zn    0.11562   0.16667   0.25000   0.00000  Uiso   1.00
Zn60   Zn    0.21771   0.16666   0.25000   0.00000  Uiso   1.00
O61    O     0.24245   0.03901   0.26539   0.00000  Uiso   1.00
C62    C     0.28564   0.03744   0.22631   0.00000  Uiso   1.00
H63    H     0.28403   0.06094   0.20105   0.00000  Uiso   1.00
H64    H     0.29257   0.00643   0.20956   0.00000  Uiso   1.00
C65    C     0.32813   0.04719   0.24046   0.00000  Uiso   1.00
H66    H     0.00190   0.02059   0.25957   0.00000  Uiso   1.00
H67    H     0.02768   0.05346   0.20972   0.00000  Uiso   1.00
H68    H     0.31979   0.07476   0.26288   0.00000  Uiso   1.00
O69    O     0.08594   0.29331   0.24230   0.00000  Uiso   1.00
C70    C     0.08577   0.29476   0.19751   0.00000  Uiso   1.00
H71    H     0.12145   0.28432   0.17178   0.00000  Uiso   1.00
H72    H     0.07796   0.32655   0.18917   0.00000  Uiso   1.00
C73    C     0.04610   0.26651   0.19403   0.00000  Uiso   1.00
H74    H     0.02895   0.28071   0.17135   0.00000  Uiso   1.00
H75    H     0.06231   0.23615   0.17945   0.00000  Uiso   1.00
H76    H     0.01693   0.26113   0.22828   0.00000  Uiso   1.00
C77    C     0.49952   0.24670   0.25017   0.00000  Uiso   1.00
C78    C     0.50017   0.08657   0.25031   0.00000  Uiso   1.00
C79    C     0.44446   0.19182   0.04866   0.00000  Uiso   1.00
C80    C     0.55932   0.16623   0.44864   0.00000  Uiso   1.00
C81    C     0.41128   0.19817   0.02725   0.00000  Uiso   1.00
C82    C     0.59335   0.16140   0.46939   0.00000  Uiso   1.00
C83    C     0.53735   0.31087   0.25644   0.00000  Uiso   1.00
C84    C     0.46138   0.02221   0.24460   0.00000  Uiso   1.00
C85    C     0.53924   0.01998   0.25562   0.00000  Uiso   1.00
C86    C     0.46029   0.31296   0.24376   0.00000  Uiso   1.00
C87    C     0.50062   0.04236   0.25018   0.00000  Uiso   1.00
C88    C     0.49871   0.29079   0.25011   0.00000  Uiso   1.00
C89    C     0.65639   0.14729   0.21556   0.00000  Uiso   1.00
C90    C     0.34389   0.18703   0.28374   0.00000  Uiso   1.00
C91    C     0.37098   0.14704   0.21569   0.00000  Uiso   1.00
C92    C     0.62917   0.18685   0.28388   0.00000  Uiso   1.00
C93    C     0.46973   0.16722   0.33763   0.00000  Uiso   1.00
C94    C     0.53026   0.16612   0.16230   0.00000  Uiso   1.00
C95    C     0.45159   0.17215   0.38721   0.00000  Uiso   1.00
C96    C     0.54842   0.16502   0.11236   0.00000  Uiso   1.00
C97    C     0.39163   0.19716   0.45880   0.00000  Uiso   1.00
C98    C     0.61271   0.15656   0.03790   0.00000  Uiso   1.00
C99    C     0.40482   0.18838   0.41222   0.00000  Uiso   1.00
C100   C     0.59814   0.15856   0.08549   0.00000  Uiso   1.00
C101   C     0.48470   0.16488   0.40860   0.00000  Uiso   1.00
C102   C     0.51387   0.16975   0.09166   0.00000  Uiso   1.00
C103   C     0.47341   0.17623   0.45446   0.00000  Uiso   1.00
C104   C     0.52812   0.17084   0.04418   0.00000  Uiso   1.00
C105   C     0.42521   0.19054   0.48036   0.00000  Uiso   1.00
C106   C     0.57829   0.16288   0.01698   0.00000  Uiso   1.00
C107   C     0.50883   0.17315   0.47502   0.00000  Uiso   1.00
C108   C     0.49347   0.17842   0.02326   0.00000  Uiso   1.00
H109   H     0.37425   0.20841   0.04747   0.00000  Uiso   1.00
H110   H     0.63166   0.15624   0.44804   0.00000  Uiso   1.00
H111   H     0.47542   0.17156   0.11340   0.00000  Uiso   1.00
H112   H     0.51939   0.15012   0.38866   0.00000  Uiso   1.00
H113   H     0.62524   0.15423   0.10122   0.00000  Uiso   1.00
H114   H     0.37919   0.19507   0.39562   0.00000  Uiso   1.00
H115   H     0.35556   0.20972   0.47776   0.00000  Uiso   1.00
H116   H     0.65069   0.15012   0.01768   0.00000  Uiso   1.00
H117   H     0.43082   0.19916   0.08491   0.00000  Uiso   1.00
H118   H     0.57413   0.16599   0.41154   0.00000  Uiso   1.00
H119   H     0.56617   0.29380   0.26258   0.00000  Uiso   1.00
H120   H     0.43097   0.03932   0.24142   0.00000  Uiso   1.00
H121   H     0.64918   0.13176   0.18793   0.00000  Uiso   1.00
H122   H     0.35137   0.20327   0.31072   0.00000  Uiso   1.00
H123   H     0.39997   0.13093   0.18841   0.00000  Uiso   1.00
H124   H     0.60013   0.20289   0.31115   0.00000  Uiso   1.00
N125   N     0.38093   0.16668   0.25001   0.00000  Uiso   1.00
N126   N     0.61907   0.16666   0.24999   0.00000  Uiso   1.00
O127   O     0.46179   0.22775   0.25001   0.00000  Uiso   1.00
O128   O     0.53821   0.10558   0.25000   0.00000  Uiso   1.00
O129   O     0.53823   0.22774   0.25000   0.00000  Uiso   1.00
O130   O     0.46177   0.10559   0.25000   0.00000  Uiso   1.00
O131   O     0.43994   0.16667   0.31613   0.00000  Uiso   1.00
O132   O     0.56006   0.16666   0.18388   0.00000  Uiso   1.00
O133   O     0.51639   0.16666   0.31612   0.00000  Uiso   1.00
O134   O     0.48361   0.16667   0.18388   0.00000  Uiso   1.00
Zn135  Zn    0.44896   0.16667   0.25000   0.00000  Uiso   1.00
Zn136  Zn    0.55104   0.16666   0.25000   0.00000  Uiso   1.00
O137   O     0.57578   0.03901   0.26539   0.00000  Uiso   1.00
C138   C     0.61898   0.03744   0.22631   0.00000  Uiso   1.00
H139   H     0.61737   0.06094   0.20105   0.00000  Uiso   1.00
H140   H     0.62591   0.00643   0.20956   0.00000  Uiso   1.00
C141   C     0.66146   0.04719   0.24046   0.00000  Uiso   1.00
H142   H     0.33523   0.02059   0.25957   0.00000  Uiso   1.00
H143   H     0.36102   0.05346   0.20972   0.00000  Uiso   1.00
H144   H     0.65313   0.07476   0.26288   0.00000  Uiso   1.00
O145   O     0.41927   0.29331   0.24230   0.00000  Uiso   1.00
C146   C     0.41910   0.29476   0.19751   0.00000  Uiso   1.00
H147   H     0.45478   0.28432   0.17178   0.00000  Uiso   1.00
H148   H     0.41130   0.32655   0.18917   0.00000  Uiso   1.00
C149   C     0.37943   0.26651   0.19403   0.00000  Uiso   1.00
H150   H     0.36229   0.28071   0.17135   0.00000  Uiso   1.00
H151   H     0.39564   0.23615   0.17945   0.00000  Uiso   1.00
H152   H     0.35026   0.26113   0.22828   0.00000  Uiso   1.00
C153   C     0.83286   0.24670   0.25017   0.00000  Uiso   1.00
C154   C     0.83350   0.08657   0.25031   0.00000  Uiso   1.00
C155   C     0.77779   0.19182   0.04866   0.00000  Uiso   1.00
C156   C     0.89266   0.16623   0.44864   0.00000  Uiso   1.00
C157   C     0.74461   0.19817   0.02725   0.00000  Uiso   1.00
C158   C     0.92668   0.16140   0.46939   0.00000  Uiso   1.00
C159   C     0.87068   0.31087   0.25644   0.00000  Uiso   1.00
C160   C     0.79471   0.02221   0.24460   0.00000  Uiso   1.00
C161   C     0.87257   0.01998   0.25562   0.00000  Uiso   1.00
C162   C     0.79362   0.31296   0.24376   0.00000  Uiso   1.00
C163   C     0.83395   0.04236   0.25018   0.00000  Uiso   1.00
C164   C     0.83204   0.29079   0.25011   0.00000  Uiso   1.00
C165   C     0.98973   0.14729   0.21556   0.00000  Uiso   1.00
C166   C     0.67722   0.18703   0.28374   0.00000  Uiso   1.00
C167   C     0.70431   0.14704   0.21569   0.00000  Uiso   1.00
C168   C     0.96251   0.18685   0.28388   0.00000  Uiso   1.00
C169   C     0.80306   0.16722   0.33763   0.00000  Uiso   1.00
C170   C     0.86359   0.16612   0.16230   0.00000  Uiso   1.00
C171   C     0.78493   0.17215   0.38721   0.00000  Uiso   1.00
C172   C     0.88175   0.16502   0.11236   0.00000  Uiso   1.00
C173   C     0.72496   0.19716   0.45880   0.00000  Uiso   1.00
C174   C     0.94604   0.15656   0.03790   0.00000  Uiso   1.00
C175   C     0.73816   0.18838   0.41222   0.00000  Uiso   1.00
C176   C     0.93148   0.15856   0.08549   0.00000  Uiso   1.00
C177   C     0.81804   0.16488   0.40860   0.00000  Uiso   1.00
C178   C     0.84721   0.16975   0.09166   0.00000  Uiso   1.00
C179   C     0.80674   0.17623   0.45446   0.00000  Uiso   1.00
C180   C     0.86146   0.17084   0.04418   0.00000  Uiso   1.00
C181   C     0.75854   0.19054   0.48036   0.00000  Uiso   1.00
C182   C     0.91162   0.16288   0.01698   0.00000  Uiso   1.00
C183   C     0.84216   0.17315   0.47502   0.00000  Uiso   1.00
C184   C     0.82680   0.17842   0.02326   0.00000  Uiso   1.00
H185   H     0.70758   0.20841   0.04747   0.00000  Uiso   1.00
H186   H     0.96500   0.15624   0.44804   0.00000  Uiso   1.00
H187   H     0.80876   0.17156   0.11340   0.00000  Uiso   1.00
H188   H     0.85272   0.15012   0.38866   0.00000  Uiso   1.00
H189   H     0.95858   0.15423   0.10122   0.00000  Uiso   1.00
H190   H     0.71253   0.19507   0.39562   0.00000  Uiso   1.00
H191   H     0.68889   0.20972   0.47776   0.00000  Uiso   1.00
H192   H     0.98402   0.15012   0.01768   0.00000  Uiso   1.00
H193   H     0.76416   0.19916   0.08491   0.00000  Uiso   1.00
H194   H     0.90746   0.16599   0.41154   0.00000  Uiso   1.00
H195   H     0.89950   0.29380   0.26258   0.00000  Uiso   1.00
H196   H     0.76431   0.03932   0.24142   0.00000  Uiso   1.00
H197   H     0.98251   0.13176   0.18793   0.00000  Uiso   1.00
H198   H     0.68470   0.20327   0.31072   0.00000  Uiso   1.00
H199   H     0.73330   0.13093   0.18841   0.00000  Uiso   1.00
H200   H     0.93347   0.20289   0.31115   0.00000  Uiso   1.00
N201   N     0.71426   0.16668   0.25001   0.00000  Uiso   1.00
N202   N     0.95241   0.16666   0.24999   0.00000  Uiso   1.00
O203   O     0.79512   0.22775   0.25001   0.00000  Uiso   1.00
O204   O     0.87154   0.10558   0.25000   0.00000  Uiso   1.00
O205   O     0.87157   0.22774   0.25000   0.00000  Uiso   1.00
O206   O     0.79510   0.10559   0.25000   0.00000  Uiso   1.00
O207   O     0.77328   0.16667   0.31613   0.00000  Uiso   1.00
O208   O     0.89339   0.16666   0.18388   0.00000  Uiso   1.00
O209   O     0.84972   0.16666   0.31612   0.00000  Uiso   1.00
O210   O     0.81695   0.16667   0.18388   0.00000  Uiso   1.00
Zn211  Zn    0.78229   0.16667   0.25000   0.00000  Uiso   1.00
Zn212  Zn    0.88438   0.16666   0.25000   0.00000  Uiso   1.00
O213   O     0.90912   0.03901   0.26539   0.00000  Uiso   1.00
C214   C     0.95231   0.03744   0.22631   0.00000  Uiso   1.00
H215   H     0.95070   0.06094   0.20105   0.00000  Uiso   1.00
H216   H     0.95924   0.00643   0.20956   0.00000  Uiso   1.00
C217   C     0.99480   0.04719   0.24046   0.00000  Uiso   1.00
H218   H     0.66856   0.02059   0.25957   0.00000  Uiso   1.00
H219   H     0.69435   0.05346   0.20972   0.00000  Uiso   1.00
H220   H     0.98646   0.07476   0.26288   0.00000  Uiso   1.00
O221   O     0.75260   0.29331   0.24230   0.00000  Uiso   1.00
C222   C     0.75243   0.29476   0.19751   0.00000  Uiso   1.00
H223   H     0.78812   0.28432   0.17178   0.00000  Uiso   1.00
H224   H     0.74463   0.32655   0.18917   0.00000  Uiso   1.00
C225   C     0.71277   0.26651   0.19403   0.00000  Uiso   1.00
H226   H     0.69562   0.28071   0.17135   0.00000  Uiso   1.00
H227   H     0.72898   0.23615   0.17945   0.00000  Uiso   1.00
H228   H     0.68359   0.26113   0.22828   0.00000  Uiso   1.00
C229   C     0.16619   0.58003   0.25017   0.00000  Uiso   1.00
C230   C     0.16684   0.41991   0.25031   0.00000  Uiso   1.00
C231   C     0.11113   0.52515   0.04866   0.00000  Uiso   1.00
C232   C     0.22599   0.49956   0.44864   0.00000  Uiso   1.00
C233   C     0.07795   0.53150   0.02725   0.00000  Uiso   1.00
C234   C     0.26001   0.49473   0.46939   0.00000  Uiso   1.00
C235   C     0.20401   0.64420   0.25644   0.00000  Uiso   1.00
C236   C     0.12804   0.35555   0.24460   0.00000  Uiso   1.00
C237   C     0.20591   0.35331   0.25562   0.00000  Uiso   1.00
C238   C     0.12696   0.64629   0.24376   0.00000  Uiso   1.00
C239   C     0.16728   0.37570   0.25018   0.00000  Uiso   1.00
C240   C     0.16538   0.62412   0.25011   0.00000  Uiso   1.00
C241   C     0.32306   0.48062   0.21556   0.00000  Uiso   1.00
C242   C     0.01055   0.52036   0.28374   0.00000  Uiso   1.00
C243   C     0.03765   0.48037   0.21569   0.00000  Uiso   1.00
C244   C     0.29584   0.52018   0.28388   0.00000  Uiso   1.00
C245   C     0.13640   0.50055   0.33763   0.00000  Uiso   1.00
C246   C     0.19692   0.49945   0.16230   0.00000  Uiso   1.00
C247   C     0.11826   0.50548   0.38721   0.00000  Uiso   1.00
C248   C     0.21508   0.49835   0.11236   0.00000  Uiso   1.00
C249   C     0.05830   0.53049   0.45880   0.00000  Uiso   1.00
C250   C     0.27938   0.48989   0.03790   0.00000  Uiso   1.00
C251   C     0.07149   0.52171   0.41222   0.00000  Uiso   1.00
C252   C     0.26481   0.49189   0.08549   0.00000  Uiso   1.00
C253   C     0.15137   0.49821   0.40860   0.00000  Uiso   1.00
C254   C     0.18054   0.50308   0.09166   0.00000  Uiso   1.00
C255   C     0.14007   0.50957   0.45446   0.00000  Uiso   1.00
C256   C     0.19479   0.50417   0.04418   0.00000  Uiso   1.00
C257   C     0.09188   0.52387   0.48036   0.00000  Uiso   1.00
C258   C     0.24496   0.49621   0.01698   0.00000  Uiso   1.00
C259   C     0.17549   0.50648   0.47502   0.00000  Uiso   1.00
C260   C     0.16013   0.51175   0.02326   0.00000  Uiso   1.00
H261   H     0.04092   0.54174   0.04747   0.00000  Uiso   1.00
H262   H     0.29833   0.48958   0.44804   0.00000  Uiso   1.00
H263   H     0.14209   0.50489   0.11340   0.00000  Uiso   1.00
H264   H     0.18606   0.48345   0.38866   0.00000  Uiso   1.00
H265   H     0.29191   0.48756   0.10122   0.00000  Uiso   1.00
H266   H     0.04586   0.52840   0.39562   0.00000  Uiso   1.00
H267   H     0.02222   0.54305   0.47776   0.00000  Uiso   1.00
H268   H     0.31735   0.48345   0.01768   0.00000  Uiso   1.00
H269   H     0.09749   0.53250   0.08491   0.00000  Uiso   1.00
H270   H     0.24080   0.49932   0.41154   0.00000  Uiso   1.00
H271   H     0.23283   0.62713   0.26258   0.00000  Uiso   1.00
H272   H     0.09764   0.37266   0.24142   0.00000  Uiso   1.00
H273   H     0.31585   0.46509   0.18793   0.00000  Uiso   1.00
H274   H     0.01803   0.53661   0.31072   0.00000  Uiso   1.00
H275   H     0.06664   0.46427   0.18841   0.00000  Uiso   1.00
H276   H     0.26680   0.53623   0.31115   0.00000  Uiso   1.00
N277   N     0.04759   0.50001   0.25001   0.00000  Uiso   1.00
N278   N     0.28574   0.49999   0.24999   0.00000  Uiso   1.00
O279   O     0.12846   0.56108   0.25001   0.00000  Uiso   1.00
O280   O     0.20488   0.43892   0.25000   0.00000  Uiso   1.00
O281   O     0.20490   0.56107   0.25000   0.00000  Uiso   1.00
O282   O     0.12843   0.43893   0.25000   0.00000  Uiso   1.00
O283   O     0.10661   0.50001   0.31613   0.00000  Uiso   1.00
O284   O     0.22672   0.49999   0.18388   0.00000  Uiso   1.00
O285   O     0.18305   0.50000   0.31612   0.00000  Uiso   1.00
O286   O     0.15028   0.50000   0.18388   0.00000  Uiso   1.00
Zn287  Zn    0.11562   0.50001   0.25000   0.00000  Uiso   1.00
Zn288  Zn    0.21771   0.49999   0.25000   0.00000  Uiso   1.00
O289   O     0.24245   0.37234   0.26539   0.00000  Uiso   1.00
C290   C     0.28564   0.37077   0.22631   0.00000  Uiso   1.00
H291   H     0.28403   0.39427   0.20105   0.00000  Uiso   1.00
H292   H     0.29257   0.33976   0.20956   0.00000  Uiso   1.00
C293   C     0.32813   0.38053   0.24046   0.00000  Uiso   1.00
H294   H     0.00190   0.35392   0.25957   0.00000  Uiso   1.00
H295   H     0.02768   0.38679   0.20972   0.00000  Uiso   1.00
H296   H     0.31979   0.40809   0.26288   0.00000  Uiso   1.00
O297   O     0.08594   0.62664   0.24230   0.00000  Uiso   1.00
C298   C     0.08577   0.62809   0.19751   0.00000  Uiso   1.00
H299   H     0.12145   0.61766   0.17178   0.00000  Uiso   1.00
H300   H     0.07796   0.65988   0.18917   0.00000  Uiso   1.00
C301   C     0.04610   0.59984   0.19403   0.00000  Uiso   1.00
H302   H     0.02895   0.61404   0.17135   0.00000  Uiso   1.00
H303   H     0.06231   0.56948   0.17945   0.00000  Uiso   1.00
H304   H     0.01693   0.59447   0.22828   0.00000  Uiso   1.00
C305   C     0.49952   0.58003   0.25017   0.00000  Uiso   1.00
C306   C     0.50017   0.41991   0.25031   0.00000  Uiso   1.00
C307   C     0.44446   0.52515   0.04866   0.00000  Uiso   1.00
C308   C     0.55932   0.49956   0.44864   0.00000  Uiso   1.00
C309   C     0.41128   0.53150   0.02725   0.00000  Uiso   1.00
C310   C     0.59335   0.49473   0.46939   0.00000  Uiso   1.00
C311   C     0.53735   0.64420   0.25644   0.00000  Uiso   1.00
C312   C     0.46138   0.35555   0.24460   0.00000  Uiso   1.00
C313   C     0.53924   0.35331   0.25562   0.00000  Uiso   1.00
C314   C     0.46029   0.64629   0.24376   0.00000  Uiso   1.00
C315   C     0.50062   0.37570   0.25018   0.00000  Uiso   1.00
C316   C     0.49871   0.62412   0.25011   0.00000  Uiso   1.00
C317   C     0.65639   0.48062   0.21556   0.00000  Uiso   1.00
C318   C     0.34389   0.52036   0.28374   0.00000  Uiso   1.00
C319   C     0.37098   0.48037   0.21569   0.00000  Uiso   1.00
C320   C     0.62917   0.52018   0.28388   0.00000  Uiso   1.00
C321   C     0.46973   0.50055   0.33763   0.00000  Uiso   1.00
C322   C     0.53026   0.49945   0.16230   0.00000  Uiso   1.00
C323   C     0.45159   0.50548   0.38721   0.00000  Uiso   1.00
C324   C     0.54842   0.49835   0.11236   0.00000  Uiso   1.00
C325   C     0.39163   0.53049   0.45880   0.00000  Uiso   1.00
C326   C     0.61271   0.48989   0.03790   0.00000  Uiso   1.00
C327   C     0.40482   0.52171   0.41222   0.00000  Uiso   1.00
C328   C     0.59814   0.49189   0.08549   0.00000  Uiso   1.00
C329   C     0.48470   0.49821   0.40860   0.00000  Uiso   1.00
C330   C     0.51387   0.50308   0.09166   0.00000  Uiso   1.00
C331   C     0.47341   0.50957   0.45446   0.00000  Uiso   1.00
C332   C     0.52812   0.50417   0.04418   0.00000  Uiso   1.00
C333   C     0.42521   0.52387   0.48036   0.00000  Uiso   1.00
C334   C     0.57829   0.49621   0.01698   0.00000  Uiso   1.00
C335   C     0.50883   0.50648   0.47502   0.00000  Uiso   1.00
C336   C     0.49347   0.51175   0.02326   0.00000  Uiso   1.00
H337   H     0.37425   0.54174   0.04747   0.00000  Uiso   1.00
H338   H     0.63166   0.48958   0.44804   0.00000  Uiso   1.00
H339   H     0.47542   0.50489   0.11340   0.00000  Uiso   1.00
H340   H     0.51939   0.48345   0.38866   0.00000  Uiso   1.00
H341   H     0.62524   0.48756   0.10122   0.00000  Uiso   1.00
H342   H     0.37919   0.52840   0.39562   0.00000  Uiso   1.00
H343   H     0.35556   0.54305   0.47776   0.00000  Uiso   1.00
H344   H     0.65069   0.48345   0.01768   0.00000  Uiso   1.00
H345   H     0.43082   0.53250   0.08491   0.00000  Uiso   1.00
H346   H     0.57413   0.49932   0.41154   0.00000  Uiso   1.00
H347   H     0.56617   0.62713   0.26258   0.00000  Uiso   1.00
H348   H     0.43097   0.37266   0.24142   0.00000  Uiso   1.00
H349   H     0.64918   0.46509   0.18793   0.00000  Uiso   1.00
H350   H     0.35137   0.53661   0.31072   0.00000  Uiso   1.00
H351   H     0.39997   0.46427   0.18841   0.00000  Uiso   1.00
H352   H     0.60013   0.53623   0.31115   0.00000  Uiso   1.00
N353   N     0.38093   0.50001   0.25001   0.00000  Uiso   1.00
N354   N     0.61907   0.49999   0.24999   0.00000  Uiso   1.00
O355   O     0.46179   0.56108   0.25001   0.00000  Uiso   1.00
O356   O     0.53821   0.43892   0.25000   0.00000  Uiso   1.00
O357   O     0.53823   0.56107   0.25000   0.00000  Uiso   1.00
O358   O     0.46177   0.43893   0.25000   0.00000  Uiso   1.00
O359   O     0.43994   0.50001   0.31613   0.00000  Uiso   1.00
O360   O     0.56006   0.49999   0.18388   0.00000  Uiso   1.00
O361   O     0.51639   0.50000   0.31612   0.00000  Uiso   1.00
O362   O     0.48361   0.50000   0.18388   0.00000  Uiso   1.00
Zn363  Zn    0.44896   0.50001   0.25000   0.00000  Uiso   1.00
Zn364  Zn    0.55104   0.49999   0.25000   0.00000  Uiso   1.00
O365   O     0.57578   0.37234   0.26539   0.00000  Uiso   1.00
C366   C     0.61898   0.37077   0.22631   0.00000  Uiso   1.00
H367   H     0.61737   0.39427   0.20105   0.00000  Uiso   1.00
H368   H     0.62591   0.33976   0.20956   0.00000  Uiso   1.00
C369   C     0.66146   0.38053   0.24046   0.00000  Uiso   1.00
H370   H     0.33523   0.35392   0.25957   0.00000  Uiso   1.00
H371   H     0.36102   0.38679   0.20972   0.00000  Uiso   1.00
H372   H     0.65313   0.40809   0.26288   0.00000  Uiso   1.00
O373   O     0.41927   0.62664   0.24230   0.00000  Uiso   1.00
C374   C     0.41910   0.62809   0.19751   0.00000  Uiso   1.00
H375   H     0.45478   0.61766   0.17178   0.00000  Uiso   1.00
H376   H     0.41130   0.65988   0.18917   0.00000  Uiso   1.00
C377   C     0.37943   0.59984   0.19403   0.00000  Uiso   1.00
H378   H     0.36229   0.61404   0.17135   0.00000  Uiso   1.00
H379   H     0.39564   0.56948   0.17945   0.00000  Uiso   1.00
H380   H     0.35026   0.59447   0.22828   0.00000  Uiso   1.00
C381   C     0.83286   0.58003   0.25017   0.00000  Uiso   1.00
C382   C     0.83350   0.41991   0.25031   0.00000  Uiso   1.00
C383   C     0.77779   0.52515   0.04866   0.00000  Uiso   1.00
C384   C     0.89266   0.49956   0.44864   0.00000  Uiso   1.00
C385   C     0.74461   0.53150   0.02725   0.00000  Uiso   1.00
C386   C     0.92668   0.49473   0.46939   0.00000  Uiso   1.00
C387   C     0.87068   0.64420   0.25644   0.00000  Uiso   1.00
C388   C     0.79471   0.35555   0.24460   0.00000  Uiso   1.00
C389   C     0.87257   0.35331   0.25562   0.00000  Uiso   1.00
C390   C     0.79362   0.64629   0.24376   0.00000  Uiso   1.00
C391   C     0.83395   0.37570   0.25018   0.00000  Uiso   1.00
C392   C     0.83204   0.62412   0.25011   0.00000  Uiso   1.00
C393   C     0.98973   0.48062   0.21556   0.00000  Uiso   1.00
C394   C     0.67722   0.52036   0.28374   0.00000  Uiso   1.00
C395   C     0.70431   0.48037   0.21569   0.00000  Uiso   1.00
C396   C     0.96251   0.52018   0.28388   0.00000  Uiso   1.00
C397   C     0.80306   0.50055   0.33763   0.00000  Uiso   1.00
C398   C     0.86359   0.49945   0.16230   0.00000  Uiso   1.00
C399   C     0.78493   0.50548   0.38721   0.00000  Uiso   1.00
C400   C     0.88175   0.49835   0.11236   0.00000  Uiso   1.00
C401   C     0.72496   0.53049   0.45880   0.00000  Uiso   1.00
C402   C     0.94604   0.48989   0.03790   0.00000  Uiso   1.00
C403   C     0.73816   0.52171   0.41222   0.00000  Uiso   1.00
C404   C     0.93148   0.49189   0.08549   0.00000  Uiso   1.00
C405   C     0.81804   0.49821   0.40860   0.00000  Uiso   1.00
C406   C     0.84721   0.50308   0.09166   0.00000  Uiso   1.00
C407   C     0.80674   0.50957   0.45446   0.00000  Uiso   1.00
C408   C     0.86146   0.50417   0.04418   0.00000  Uiso   1.00
C409   C     0.75854   0.52387   0.48036   0.00000  Uiso   1.00
C410   C     0.91162   0.49621   0.01698   0.00000  Uiso   1.00
C411   C     0.84216   0.50648   0.47502   0.00000  Uiso   1.00
C412   C     0.82680   0.51175   0.02326   0.00000  Uiso   1.00
H413   H     0.70758   0.54174   0.04747   0.00000  Uiso   1.00
H414   H     0.96500   0.48958   0.44804   0.00000  Uiso   1.00
H415   H     0.80876   0.50489   0.11340   0.00000  Uiso   1.00
H416   H     0.85272   0.48345   0.38866   0.00000  Uiso   1.00
H417   H     0.95858   0.48756   0.10122   0.00000  Uiso   1.00
H418   H     0.71253   0.52840   0.39562   0.00000  Uiso   1.00
H419   H     0.68889   0.54305   0.47776   0.00000  Uiso   1.00
H420   H     0.98402   0.48345   0.01768   0.00000  Uiso   1.00
H421   H     0.76416   0.53250   0.08491   0.00000  Uiso   1.00
H422   H     0.90746   0.49932   0.41154   0.00000  Uiso   1.00
H423   H     0.89950   0.62713   0.26258   0.00000  Uiso   1.00
H424   H     0.76431   0.37266   0.24142   0.00000  Uiso   1.00
H425   H     0.98251   0.46509   0.18793   0.00000  Uiso   1.00
H426   H     0.68470   0.53661   0.31072   0.00000  Uiso   1.00
H427   H     0.73330   0.46427   0.18841   0.00000  Uiso   1.00
H428   H     0.93347   0.53623   0.31115   0.00000  Uiso   1.00
N429   N     0.71426   0.50001   0.25001   0.00000  Uiso   1.00
N430   N     0.95241   0.49999   0.24999   0.00000  Uiso   1.00
O431   O     0.79512   0.56108   0.25001   0.00000  Uiso   1.00
O432   O     0.87154   0.43892   0.25000   0.00000  Uiso   1.00
O433   O     0.87157   0.56107   0.25000   0.00000  Uiso   1.00
O434   O     0.79510   0.43893   0.25000   0.00000  Uiso   1.00
O435   O     0.77328   0.50001   0.31613   0.00000  Uiso   1.00
O436   O     0.89339   0.49999   0.18388   0.00000  Uiso   1.00
O437   O     0.84972   0.50000   0.31612   0.00000  Uiso   1.00
O438   O     0.81695   0.50000   0.18388   0.00000  Uiso   1.00
Zn439  Zn    0.78229   0.50001   0.25000   0.00000  Uiso   1.00
Zn440  Zn    0.88438   0.49999   0.25000   0.00000  Uiso   1.00
O441   O     0.90912   0.37234   0.26539   0.00000  Uiso   1.00
C442   C     0.95231   0.37077   0.22631   0.00000  Uiso   1.00
H443   H     0.95070   0.39427   0.20105   0.00000  Uiso   1.00
H444   H     0.95924   0.33976   0.20956   0.00000  Uiso   1.00
C445   C     0.99480   0.38053   0.24046   0.00000  Uiso   1.00
H446   H     0.66856   0.35392   0.25957   0.00000  Uiso   1.00
H447   H     0.69435   0.38679   0.20972   0.00000  Uiso   1.00
H448   H     0.98646   0.40809   0.26288   0.00000  Uiso   1.00
O449   O     0.75260   0.62664   0.24230   0.00000  Uiso   1.00
C450   C     0.75243   0.62809   0.19751   0.00000  Uiso   1.00
H451   H     0.78812   0.61766   0.17178   0.00000  Uiso   1.00
H452   H     0.74463   0.65988   0.18917   0.00000  Uiso   1.00
C453   C     0.71277   0.59984   0.19403   0.00000  Uiso   1.00
H454   H     0.69562   0.61404   0.17135   0.00000  Uiso   1.00
H455   H     0.72898   0.56948   0.17945   0.00000  Uiso   1.00
H456   H     0.68359   0.59447   0.22828   0.00000  Uiso   1.00
C457   C     0.16619   0.91336   0.25017   0.00000  Uiso   1.00
C458   C     0.16684   0.75324   0.25031   0.00000  Uiso   1.00
C459   C     0.11113   0.85849   0.04866   0.00000  Uiso   1.00
C460   C     0.22599   0.83290   0.44864   0.00000  Uiso   1.00
C461   C     0.07795   0.86484   0.02725   0.00000  Uiso   1.00
C462   C     0.26001   0.82807   0.46939   0.00000  Uiso   1.00
C463   C     0.20401   0.97754   0.25644   0.00000  Uiso   1.00
C464   C     0.12804   0.68888   0.24460   0.00000  Uiso   1.00
C465   C     0.20591   0.68664   0.25562   0.00000  Uiso   1.00
C466   C     0.12696   0.97962   0.24376   0.00000  Uiso   1.00
C467   C     0.16728   0.70903   0.25018   0.00000  Uiso   1.00
C468   C     0.16538   0.95745   0.25011   0.00000  Uiso   1.00
C469   C     0.32306   0.81395   0.21556   0.00000  Uiso   1.00
C470   C     0.01055   0.85370   0.28374   0.00000  Uiso   1.00
C471   C     0.03765   0.81370   0.21569   0.00000  Uiso   1.00
C472   C     0.29584   0.85351   0.28388   0.00000  Uiso   1.00
C473   C     0.13640   0.83388   0.33763   0.00000  Uiso   1.00
C474   C     0.19692   0.83279   0.16230   0.00000  Uiso   1.00
C475   C     0.11826   0.83881   0.38721   0.00000  Uiso   1.00
C476   C     0.21508   0.83169   0.11236   0.00000  Uiso   1.00
C477   C     0.05830   0.86383   0.45880   0.00000  Uiso   1.00
C478   C     0.27938   0.82322   0.03790   0.00000  Uiso   1.00
C479   C     0.07149   0.85504   0.41222   0.00000  Uiso   1.00
C480   C     0.26481   0.82523   0.08549   0.00000  Uiso   1.00
C481   C     0.15137   0.83154   0.40860   0.00000  Uiso   1.00
C482   C     0.18054   0.83641   0.09166   0.00000  Uiso   1.00
C483   C     0.14007   0.84290   0.45446   0.00000  Uiso   1.00
C484   C     0.19479   0.83751   0.04418   0.00000  Uiso   1.00
C485   C     0.09188   0.85720   0.48036   0.00000  Uiso   1.00
C486   C     0.24496   0.82955   0.01698   0.00000  Uiso   1.00
C487   C     0.17549   0.83981   0.47502   0.00000  Uiso   1.00
C488   C     0.16013   0.84509   0.02326   0.00000  Uiso   1.00
H489   H     0.04092   0.87507   0.04747   0.00000  Uiso   1.00
H490   H     0.29833   0.82291   0.44804   0.00000  Uiso   1.00
H491   H     0.14209   0.83822   0.11340   0.00000  Uiso   1.00
H492   H     0.18606   0.81678   0.38866   0.00000  Uiso   1.00
H493   H     0.29191   0.82089   0.10122   0.00000  Uiso   1.00
H494   H     0.04586   0.86173   0.39562   0.00000  Uiso   1.00
H495   H     0.02222   0.87638   0.47776   0.00000  Uiso   1.00
H496   H     0.31735   0.81678   0.01768   0.00000  Uiso   1.00
H497   H     0.09749   0.86583   0.08491   0.00000  Uiso   1.00
H498   H     0.24080   0.83266   0.41154   0.00000  Uiso   1.00
H499   H     0.23283   0.96046   0.26258   0.00000  Uiso   1.00
H500   H     0.09764   0.70599   0.24142   0.00000  Uiso   1.00
H501   H     0.31585   0.79843   0.18793   0.00000  Uiso   1.00
H502   H     0.01803   0.86994   0.31072   0.00000  Uiso   1.00
H503   H     0.06664   0.79760   0.18841   0.00000  Uiso   1.00
H504   H     0.26680   0.86956   0.31115   0.00000  Uiso   1.00
N505   N     0.04759   0.83334   0.25001   0.00000  Uiso   1.00
N506   N     0.28574   0.83332   0.24999   0.00000  Uiso   1.00
O507   O     0.12846   0.89442   0.25001   0.00000  Uiso   1.00
O508   O     0.20488   0.77225   0.25000   0.00000  Uiso   1.00
O509   O     0.20490   0.89441   0.25000   0.00000  Uiso   1.00
O510   O     0.12843   0.77226   0.25000   0.00000  Uiso   1.00
O511   O     0.10661   0.83334   0.31613   0.00000  Uiso   1.00
O512   O     0.22672   0.83333   0.18388   0.00000  Uiso   1.00
O513   O     0.18305   0.83333   0.31612   0.00000  Uiso   1.00
O514   O     0.15028   0.83334   0.18388   0.00000  Uiso   1.00
Zn515  Zn    0.11562   0.83334   0.25000   0.00000  Uiso   1.00
Zn516  Zn    0.21771   0.83333   0.25000   0.00000  Uiso   1.00
O517   O     0.24245   0.70568   0.26539   0.00000  Uiso   1.00
C518   C     0.28564   0.70411   0.22631   0.00000  Uiso   1.00
H519   H     0.28403   0.72760   0.20105   0.00000  Uiso   1.00
H520   H     0.29257   0.67309   0.20956   0.00000  Uiso   1.00
C521   C     0.32813   0.71386   0.24046   0.00000  Uiso   1.00
H522   H     0.00190   0.68725   0.25957   0.00000  Uiso   1.00
H523   H     0.02768   0.72012   0.20972   0.00000  Uiso   1.00
H524   H     0.31979   0.74143   0.26288   0.00000  Uiso   1.00
O525   O     0.08594   0.95997   0.24230   0.00000  Uiso   1.00
C526   C     0.08577   0.96143   0.19751   0.00000  Uiso   1.00
H527   H     0.12145   0.95099   0.17178   0.00000  Uiso   1.00
H528   H     0.07796   0.99322   0.18917   0.00000  Uiso   1.00
C529   C     0.04610   0.93317   0.19403   0.00000  Uiso   1.00
H530   H     0.02895   0.94737   0.17135   0.00000  Uiso   1.00
H531   H     0.06231   0.90281   0.17945   0.00000  Uiso   1.00
H532   H     0.01693   0.92780   0.22828   0.00000  Uiso   1.00
C533   C     0.49952   0.91336   0.25017   0.00000  Uiso   1.00
C534   C     0.50017   0.75324   0.25031   0.00000  Uiso   1.00
C535   C     0.44446   0.85849   0.04866   0.00000  Uiso   1.00
C536   C     0.55932   0.83290   0.44864   0.00000  Uiso   1.00
C537   C     0.41128   0.86484   0.02725   0.00000  Uiso   1.00
C538   C     0.59335   0.82807   0.46939   0.00000  Uiso   1.00
C539   C     0.53735   0.97754   0.25644   0.00000  Uiso   1.00
C540   C     0.46138   0.68888   0.24460   0.00000  Uiso   1.00
C541   C     0.53924   0.68664   0.25562   0.00000  Uiso   1.00
C542   C     0.46029   0.97962   0.24376   0.00000  Uiso   1.00
C543   C     0.50062   0.70903   0.25018   0.00000  Uiso   1.00
C544   C     0.49871   0.95745   0.25011   0.00000  Uiso   1.00
C545   C     0.65639   0.81395   0.21556   0.00000  Uiso   1.00
C546   C     0.34389   0.85370   0.28374   0.00000  Uiso   1.00
C547   C     0.37098   0.81370   0.21569   0.00000  Uiso   1.00
C548   C     0.62917   0.85351   0.28388   0.00000  Uiso   1.00
C549   C     0.46973   0.83388   0.33763   0.00000  Uiso   1.00
C550   C     0.53026   0.83279   0.16230   0.00000  Uiso   1.00
C551   C     0.45159   0.83881   0.38721   0.00000  Uiso   1.00
C552   C     0.54842   0.83169   0.11236   0.00000  Uiso   1.00
C553   C     0.39163   0.86383   0.45880   0.00000  Uiso   1.00
C554   C     0.61271   0.82322   0.03790   0.00000  Uiso   1.00
C555   C     0.40482   0.85504   0.41222   0.00000  Uiso   1.00
C556   C     0.59814   0.82523   0.08549   0.00000  Uiso   1.00
C557   C     0.48470   0.83154   0.40860   0.00000  Uiso   1.00
C558   C     0.51387   0.83641   0.09166   0.00000  Uiso   1.00
C559   C     0.47341   0.84290   0.45446   0.00000  Uiso   1.00
C560   C     0.52812   0.83751   0.04418   0.00000  Uiso   1.00
C561   C     0.42521   0.85720   0.48036   0.00000  Uiso   1.00
C562   C     0.57829   0.82955   0.01698   0.00000  Uiso   1.00
C563   C     0.50883   0.83981   0.47502   0.00000  Uiso   1.00
C564   C     0.49347   0.84509   0.02326   0.00000  Uiso   1.00
H565   H     0.37425   0.87507   0.04747   0.00000  Uiso   1.00
H566   H     0.63166   0.82291   0.44804   0.00000  Uiso   1.00
H567   H     0.47542   0.83822   0.11340   0.00000  Uiso   1.00
H568   H     0.51939   0.81678   0.38866   0.00000  Uiso   1.00
H569   H     0.62524   0.82089   0.10122   0.00000  Uiso   1.00
H570   H     0.37919   0.86173   0.39562   0.00000  Uiso   1.00
H571   H     0.35556   0.87638   0.47776   0.00000  Uiso   1.00
H572   H     0.65069   0.81678   0.01768   0.00000  Uiso   1.00
H573   H     0.43082   0.86583   0.08491   0.00000  Uiso   1.00
H574   H     0.57413   0.83266   0.41154   0.00000  Uiso   1.00
H575   H     0.56617   0.96046   0.26258   0.00000  Uiso   1.00
H576   H     0.43097   0.70599   0.24142   0.00000  Uiso   1.00
H577   H     0.64918   0.79843   0.18793   0.00000  Uiso   1.00
H578   H     0.35137   0.86994   0.31072   0.00000  Uiso   1.00
H579   H     0.39997   0.79760   0.18841   0.00000  Uiso   1.00
H580   H     0.60013   0.86956   0.31115   0.00000  Uiso   1.00
N581   N     0.38093   0.83334   0.25001   0.00000  Uiso   1.00
N582   N     0.61907   0.83332   0.24999   0.00000  Uiso   1.00
O583   O     0.46179   0.89442   0.25001   0.00000  Uiso   1.00
O584   O     0.53821   0.77225   0.25000   0.00000  Uiso   1.00
O585   O     0.53823   0.89441   0.25000   0.00000  Uiso   1.00
O586   O     0.46177   0.77226   0.25000   0.00000  Uiso   1.00
O587   O     0.43994   0.83334   0.31613   0.00000  Uiso   1.00
O588   O     0.56006   0.83333   0.18388   0.00000  Uiso   1.00
O589   O     0.51639   0.83333   0.31612   0.00000  Uiso   1.00
O590   O     0.48361   0.83334   0.18388   0.00000  Uiso   1.00
Zn591  Zn    0.44896   0.83334   0.25000   0.00000  Uiso   1.00
Zn592  Zn    0.55104   0.83333   0.25000   0.00000  Uiso   1.00
O593   O     0.57578   0.70568   0.26539   0.00000  Uiso   1.00
C594   C     0.61898   0.70411   0.22631   0.00000  Uiso   1.00
H595   H     0.61737   0.72760   0.20105   0.00000  Uiso   1.00
H596   H     0.62591   0.67309   0.20956   0.00000  Uiso   1.00
C597   C     0.66146   0.71386   0.24046   0.00000  Uiso   1.00
H598   H     0.33523   0.68725   0.25957   0.00000  Uiso   1.00
H599   H     0.36102   0.72012   0.20972   0.00000  Uiso   1.00
H600   H     0.65313   0.74143   0.26288   0.00000  Uiso   1.00
O601   O     0.41927   0.95997   0.24230   0.00000  Uiso   1.00
C602   C     0.41910   0.96143   0.19751   0.00000  Uiso   1.00
H603   H     0.45478   0.95099   0.17178   0.00000  Uiso   1.00
H604   H     0.41130   0.99322   0.18917   0.00000  Uiso   1.00
C605   C     0.37943   0.93317   0.19403   0.00000  Uiso   1.00
H606   H     0.36229   0.94737   0.17135   0.00000  Uiso   1.00
H607   H     0.39564   0.90281   0.17945   0.00000  Uiso   1.00
H608   H     0.35026   0.92780   0.22828   0.00000  Uiso   1.00
C609   C     0.83286   0.91336   0.25017   0.00000  Uiso   1.00
C610   C     0.83350   0.75324   0.25031   0.00000  Uiso   1.00
C611   C     0.77779   0.85849   0.04866   0.00000  Uiso   1.00
C612   C     0.89266   0.83290   0.44864   0.00000  Uiso   1.00
C613   C     0.74461   0.86484   0.02725   0.00000  Uiso   1.00
C614   C     0.92668   0.82807   0.46939   0.00000  Uiso   1.00
C615   C     0.87068   0.97754   0.25644   0.00000  Uiso   1.00
C616   C     0.79471   0.68888   0.24460   0.00000  Uiso   1.00
C617   C     0.87257   0.68664   0.25562   0.00000  Uiso   1.00
C618   C     0.79362   0.97962   0.24376   0.00000  Uiso   1.00
C619   C     0.83395   0.70903   0.25018   0.00000  Uiso   1.00
C620   C     0.83204   0.95745   0.25011   0.00000  Uiso   1.00
C621   C     0.98973   0.81395   0.21556   0.00000  Uiso   1.00
C622   C     0.67722   0.85370   0.28374   0.00000  Uiso   1.00
C623   C     0.70431   0.81370   0.21569   0.00000  Uiso   1.00
C624   C     0.96251   0.85351   0.28388   0.00000  Uiso   1.00
C625   C     0.80306   0.83388   0.33763   0.00000  Uiso   1.00
C626   C     0.86359   0.83279   0.16230   0.00000  Uiso   1.00
C627   C     0.78493   0.83881   0.38721   0.00000  Uiso   1.00
C628   C     0.88175   0.83169   0.11236   0.00000  Uiso   1.00
C629   C     0.72496   0.86383   0.45880   0.00000  Uiso   1.00
C630   C     0.94604   0.82322   0.03790   0.00000  Uiso   1.00
C631   C     0.73816   0.85504   0.41222   0.00000  Uiso   1.00
C632   C     0.93148   0.82523   0.08549   0.00000  Uiso   1.00
C633   C     0.81804   0.83154   0.40860   0.00000  Uiso   1.00
C634   C     0.84721   0.83641   0.09166   0.00000  Uiso   1.00
C635   C     0.80674   0.84290   0.45446   0.00000  Uiso   1.00
C636   C     0.86146   0.83751   0.04418   0.00000  Uiso   1.00
C637   C     0.75854   0.85720   0.48036   0.00000  Uiso   1.00
C638   C     0.91162   0.82955   0.01698   0.00000  Uiso   1.00
C639   C     0.84216   0.83981   0.47502   0.00000  Uiso   1.00
C640   C     0.82680   0.84509   0.02326   0.00000  Uiso   1.00
H641   H     0.70758   0.87507   0.04747   0.00000  Uiso   1.00
H642   H     0.96500   0.82291   0.44804   0.00000  Uiso   1.00
H643   H     0.80876   0.83822   0.11340   0.00000  Uiso   1.00
H644   H     0.85272   0.81678   0.38866   0.00000  Uiso   1.00
H645   H     0.95858   0.82089   0.10122   0.00000  Uiso   1.00
H646   H     0.71253   0.86173   0.39562   0.00000  Uiso   1.00
H647   H     0.68889   0.87638   0.47776   0.00000  Uiso   1.00
H648   H     0.98402   0.81678   0.01768   0.00000  Uiso   1.00
H649   H     0.76416   0.86583   0.08491   0.00000  Uiso   1.00
H650   H     0.90746   0.83266   0.41154   0.00000  Uiso   1.00
H651   H     0.89950   0.96046   0.26258   0.00000  Uiso   1.00
H652   H     0.76431   0.70599   0.24142   0.00000  Uiso   1.00
H653   H     0.98251   0.79843   0.18793   0.00000  Uiso   1.00
H654   H     0.68470   0.86994   0.31072   0.00000  Uiso   1.00
H655   H     0.73330   0.79760   0.18841   0.00000  Uiso   1.00
H656   H     0.93347   0.86956   0.31115   0.00000  Uiso   1.00
N657   N     0.71426   0.83334   0.25001   0.00000  Uiso   1.00
N658   N     0.95241   0.83332   0.24999   0.00000  Uiso   1.00
O659   O     0.79512   0.89442   0.25001   0.00000  Uiso   1.00
O660   O     0.87154   0.77225   0.25000   0.00000  Uiso   1.00
O661   O     0.87157   0.89441   0.25000   0.00000  Uiso   1.00
O662   O     0.79510   0.77226   0.25000   0.00000  Uiso   1.00
O663   O     0.77328   0.83334   0.31613   0.00000  Uiso   1.00
O664   O     0.89339   0.83333   0.18388   0.00000  Uiso   1.00
O665   O     0.84972   0.83333   0.31612   0.00000  Uiso   1.00
O666   O     0.81695   0.83334   0.18388   0.00000  Uiso   1.00
Zn667  Zn    0.78229   0.83334   0.25000   0.00000  Uiso   1.00
Zn668  Zn    0.88438   0.83333   0.25000   0.00000  Uiso   1.00
O669   O     0.90912   0.70568   0.26539   0.00000  Uiso   1.00
C670   C     0.95231   0.70411   0.22631   0.00000  Uiso   1.00
H671   H     0.95070   0.72760   0.20105   0.00000  Uiso   1.00
H672   H     0.95924   0.67309   0.20956   0.00000  Uiso   1.00
C673   C     0.99480   0.71386   0.24046   0.00000  Uiso   1.00
H674   H     0.66856   0.68725   0.25957   0.00000  Uiso   1.00
H675   H     0.69435   0.72012   0.20972   0.00000  Uiso   1.00
H676   H     0.98646   0.74143   0.26288   0.00000  Uiso   1.00
O677   O     0.75260   0.95997   0.24230   0.00000  Uiso   1.00
C678   C     0.75243   0.96143   0.19751   0.00000  Uiso   1.00
H679   H     0.78812   0.95099   0.17178   0.00000  Uiso   1.00
H680   H     0.74463   0.99322   0.18917   0.00000  Uiso   1.00
C681   C     0.71277   0.93317   0.19403   0.00000  Uiso   1.00
H682   H     0.69562   0.94737   0.17135   0.00000  Uiso   1.00
H683   H     0.72898   0.90281   0.17945   0.00000  Uiso   1.00
H684   H     0.68359   0.92780   0.22828   0.00000  Uiso   1.00
C685   C     0.16619   0.24670   0.75017   0.00000  Uiso   1.00
C686   C     0.16684   0.08657   0.75031   0.00000  Uiso   1.00
C687   C     0.11113   0.19182   0.54866   0.00000  Uiso   1.00
C688   C     0.22599   0.16623   0.94864   0.00000  Uiso   1.00
C689   C     0.07795   0.19817   0.52725   0.00000  Uiso   1.00
C690   C     0.26001   0.16140   0.96939   0.00000  Uiso   1.00
C691   C     0.20401   0.31087   0.75644   0.00000  Uiso   1.00
C692   C     0.12804   0.02221   0.74460   0.00000  Uiso   1.00
C693   C     0.20591   0.01998   0.75562   0.00000  Uiso   1.00
C694   C     0.12696   0.31296   0.74376   0.00000  Uiso   1.00
C695   C     0.16728   0.04236   0.75018   0.00000  Uiso   1.00
C696   C     0.16538   0.29079   0.75011   0.00000  Uiso   1.00
C697   C     0.32306   0.14729   0.71556   0.00000  Uiso   1.00
C698   C     0.01055   0.18703   0.78374   0.00000  Uiso   1.00
C699   C     0.03765   0.14704   0.71569   0.00000  Uiso   1.00
C700   C     0.29584   0.18685   0.78388   0.00000  Uiso   1.00
C701   C     0.13640   0.16722   0.83763   0.00000  Uiso   1.00
C702   C     0.19692   0.16612   0.66230   0.00000  Uiso   1.00
C703   C     0.11826   0.17215   0.88721   0.00000  Uiso   1.00
C704   C     0.21508   0.16502   0.61236   0.00000  Uiso   1.00
C705   C     0.05830   0.19716   0.95880   0.00000  Uiso   1.00
C706   C     0.27938   0.15656   0.53790   0.00000  Uiso   1.00
C707   C     0.07149   0.18838   0.91222   0.00000  Uiso   1.00
C708   C     0.26481   0.15856   0.58549   0.00000  Uiso   1.00
C709   C     0.15137   0.16488   0.90860   0.00000  Uiso   1.00
C710   C     0.18054   0.16975   0.59166   0.00000  Uiso   1.00
C711   C     0.14007   0.17623   0.95446   0.00000  Uiso   1.00
C712   C     0.19479   0.17084   0.54418   0.00000  Uiso   1.00
C713   C     0.09188   0.19054   0.98036   0.00000  Uiso   1.00
C714   C     0.24496   0.16288   0.51698   0.00000  Uiso   1.00
C715   C     0.17549   0.17315   0.97502   0.00000  Uiso   1.00
C716   C     0.16013   0.17842   0.52326   0.00000  Uiso   1.00
H717   H     0.04092   0.20841   0.54747   0.00000  Uiso   1.00
H718   H     0.29833   0.15624   0.94804   0.00000  Uiso   1.00
H719   H     0.14209   0.17156   0.61340   0.00000  Uiso   1.00
H720   H     0.18606   0.15012   0.88866   0.00000  Uiso   1.00
H721   H     0.29191   0.15423   0.60122   0.00000  Uiso   1.00
H722   H     0.04586   0.19507   0.89562   0.00000  Uiso   1.00
H723   H     0.02222   0.20972   0.97776   0.00000  Uiso   1.00
H724   H     0.31735   0.15012   0.51768   0.00000  Uiso   1.00
H725   H     0.09749   0.19916   0.58491   0.00000  Uiso   1.00
H726   H     0.24080   0.16599   0.91154   0.00000  Uiso   1.00
H727   H     0.23283   0.29380   0.76258   0.00000  Uiso   1.00
H728   H     0.09764   0.03932   0.74142   0.00000  Uiso   1.00
H729   H     0.31585   0.13176   0.68793   0.00000  Uiso   1.00
H730   H     0.01803   0.20327   0.81072   0.00000  Uiso   1.00
H731   H     0.06664   0.13093   0.68841   0.00000  Uiso   1.00
H732   H     0.26680   0.20289   0.81115   0.00000  Uiso   1.00
N733   N     0.04759   0.16668   0.75001   0.00000  Uiso   1.00
N734   N     0.28574   0.16666   0.74999   0.00000  Uiso   1.00
O735   O     0.12846   0.22775   0.75001   0.00000  Uiso   1.00
O736   O     0.20488   0.10558   0.75000   0.00000  Uiso   1.00
O737   O     0.20490   0.22774   0.75000   0.00000  Uiso   1.00
O738   O     0.12843   0.10559   0.75000   0.00000  Uiso   1.00
O739   O     0.10661   0.16667   0.81613   0.00000  Uiso   1.00
O740   O     0.22672   0.16666   0.68388   0.00000  Uiso   1.00
O741   O     0.18305   0.16666   0.81612   0.00000  Uiso   1.00
O742   O     0.15028   0.16667   0.68388   0.00000  Uiso   1.00
Zn743  Zn    0.11562   0.16667   0.75000   0.00000  Uiso   1.00
Zn744  Zn    0.21771   0.16666   0.75000   0.00000  Uiso   1.00
O745   O     0.24245   0.03901   0.76539   0.00000  Uiso   1.00
C746   C     0.28564   0.03744   0.72631   0.00000  Uiso   1.00
H747   H     0.28403   0.06094   0.70105   0.00000  Uiso   1.00
H748   H     0.29257   0.00643   0.70956   0.00000  Uiso   1.00
C749   C     0.32813   0.04719   0.74046   0.00000  Uiso   1.00
H750   H     0.00190   0.02059   0.75957   0.00000  Uiso   1.00
H751   H     0.02768   0.05346   0.70972   0.00000  Uiso   1.00
H752   H     0.31979   0.07476   0.76288   0.00000  Uiso   1.00
O753   O     0.08594   0.29331   0.74230   0.00000  Uiso   1.00
C754   C     0.08577   0.29476   0.69751   0.00000  Uiso   1.00
H755   H     0.12145   0.28432   0.67178   0.00000  Uiso   1.00
H756   H     0.07796   0.32655   0.68917   0.00000  Uiso   1.00
C757   C     0.04610   0.26651   0.69403   0.00000  Uiso   1.00
H758   H     0.02895   0.28071   0.67135   0.00000  Uiso   1.00
H759   H     0.06231   0.23615   0.67945   0.00000  Uiso   1.00
H760   H     0.01693   0.26113   0.72828   0.00000  Uiso   1.00
C761   C     0.49952   0.24670   0.75017   0.00000  Uiso   1.00
C762   C     0.50017   0.08657   0.75031   0.00000  Uiso   1.00
C763   C     0.44446   0.19182   0.54866   0.00000  Uiso   1.00
C764   C     0.55932   0.16623   0.94864   0.00000  Uiso   1.00
C765   C     0.41128   0.19817   0.52725   0.00000  Uiso   1.00
C766   C     0.59335   0.16140   0.96939   0.00000  Uiso   1.00
C767   C     0.53735   0.31087   0.75644   0.00000  Uiso   1.00
C768   C     0.46138   0.02221   0.74460   0.00000  Uiso   1.00
C769   C     0.53924   0.01998   0.75562   0.00000  Uiso   1.00
C770   C     0.46029   0.31296   0.74376   0.00000  Uiso   1.00
C771   C     0.50062   0.04236   0.75018   0.00000  Uiso   1.00
C772   C     0.49871   0.29079   0.75011   0.00000  Uiso   1.00
C773   C     0.65639   0.14729   0.71556   0.00000  Uiso   1.00
C774   C     0.34389   0.18703   0.78374   0.00000  Uiso   1.00
C775   C     0.37098   0.14704   0.71569   0.00000  Uiso   1.00
C776   C     0.62917   0.18685   0.78388   0.00000  Uiso   1.00
C777   C     0.46973   0.16722   0.83763   0.00000  Uiso   1.00
C778   C     0.53026   0.16612   0.66230   0.00000  Uiso   1.00
C779   C     0.45159   0.17215   0.88721   0.00000  Uiso   1.00
C780   C     0.54842   0.16502   0.61236   0.00000  Uiso   1.00
C781   C     0.39163   0.19716   0.95880   0.00000  Uiso   1.00
C782   C     0.61271   0.15656   0.53790   0.00000  Uiso   1.00
C783   C     0.40482   0.18838   0.91222   0.00000  Uiso   1.00
C784   C     0.59814   0.15856   0.58549   0.00000  Uiso   1.00
C785   C     0.48470   0.16488   0.90860   0.00000  Uiso   1.00
C786   C     0.51387   0.16975   0.59166   0.00000  Uiso   1.00
C787   C     0.47341   0.17623   0.95446   0.00000  Uiso   1.00
C788   C     0.52812   0.17084   0.54418   0.00000  Uiso   1.00
C789   C     0.42521   0.19054   0.98036   0.00000  Uiso   1.00
C790   C     0.57829   0.16288   0.51698   0.00000  Uiso   1.00
C791   C     0.50883   0.17315   0.97502   0.00000  Uiso   1.00
C792   C     0.49347   0.17842   0.52326   0.00000  Uiso   1.00
H793   H     0.37425   0.20841   0.54747   0.00000  Uiso   1.00
H794   H     0.63166   0.15624   0.94804   0.00000  Uiso   1.00
H795   H     0.47542   0.17156   0.61340   0.00000  Uiso   1.00
H796   H     0.51939   0.15012   0.88866   0.00000  Uiso   1.00
H797   H     0.62524   0.15423   0.60122   0.00000  Uiso   1.00
H798   H     0.37919   0.19507   0.89562   0.00000  Uiso   1.00
H799   H     0.35556   0.20972   0.97776   0.00000  Uiso   1.00
H800   H     0.65069   0.15012   0.51768   0.00000  Uiso   1.00
H801   H     0.43082   0.19916   0.58491   0.00000  Uiso   1.00
H802   H     0.57413   0.16599   0.91154   0.00000  Uiso   1.00
H803   H     0.56617   0.29380   0.76258   0.00000  Uiso   1.00
H804   H     0.43097   0.03932   0.74142   0.00000  Uiso   1.00
H805   H     0.64918   0.13176   0.68793   0.00000  Uiso   1.00
H806   H     0.35137   0.20327   0.81072   0.00000  Uiso   1.00
H807   H     0.39997   0.13093   0.68841   0.00000  Uiso   1.00
H808   H     0.60013   0.20289   0.81115   0.00000  Uiso   1.00
N809   N     0.38093   0.16668   0.75001   0.00000  Uiso   1.00
N810   N     0.61907   0.16666   0.74999   0.00000  Uiso   1.00
O811   O     0.46179   0.22775   0.75001   0.00000  Uiso   1.00
O812   O     0.53821   0.10558   0.75000   0.00000  Uiso   1.00
O813   O     0.53823   0.22774   0.75000   0.00000  Uiso   1.00
O814   O     0.46177   0.10559   0.75000   0.00000  Uiso   1.00
O815   O     0.43994   0.16667   0.81613   0.00000  Uiso   1.00
O816   O     0.56006   0.16666   0.68388   0.00000  Uiso   1.00
O817   O     0.51639   0.16666   0.81612   0.00000  Uiso   1.00
O818   O     0.48361   0.16667   0.68388   0.00000  Uiso   1.00
Zn819  Zn    0.44896   0.16667   0.75000   0.00000  Uiso   1.00
Zn820  Zn    0.55104   0.16666   0.75000   0.00000  Uiso   1.00
O821   O     0.57578   0.03901   0.76539   0.00000  Uiso   1.00
C822   C     0.61898   0.03744   0.72631   0.00000  Uiso   1.00
H823   H     0.61737   0.06094   0.70105   0.00000  Uiso   1.00
H824   H     0.62591   0.00643   0.70956   0.00000  Uiso   1.00
C825   C     0.66146   0.04719   0.74046   0.00000  Uiso   1.00
H826   H     0.33523   0.02059   0.75957   0.00000  Uiso   1.00
H827   H     0.36102   0.05346   0.70972   0.00000  Uiso   1.00
H828   H     0.65313   0.07476   0.76288   0.00000  Uiso   1.00
O829   O     0.41927   0.29331   0.74230   0.00000  Uiso   1.00
C830   C     0.41910   0.29476   0.69751   0.00000  Uiso   1.00
H831   H     0.45478   0.28432   0.67178   0.00000  Uiso   1.00
H832   H     0.41130   0.32655   0.68917   0.00000  Uiso   1.00
C833   C     0.37943   0.26651   0.69403   0.00000  Uiso   1.00
H834   H     0.36229   0.28071   0.67135   0.00000  Uiso   1.00
H835   H     0.39564   0.23615   0.67945   0.00000  Uiso   1.00
H836   H     0.35026   0.26113   0.72828   0.00000  Uiso   1.00
C837   C     0.83286   0.24670   0.75017   0.00000  Uiso   1.00
C838   C     0.83350   0.08657   0.75031   0.00000  Uiso   1.00
C839   C     0.77779   0.19182   0.54866   0.00000  Uiso   1.00
C840   C     0.89266   0.16623   0.94864   0.00000  Uiso   1.00
C841   C     0.74461   0.19817   0.52725   0.00000  Uiso   1.00
C842   C     0.92668   0.16140   0.96939   0.00000  Uiso   1.00
C843   C     0.87068   0.31087   0.75644   0.00000  Uiso   1.00
C844   C     0.79471   0.02221   0.74460   0.00000  Uiso   1.00
C845   C     0.87257   0.01998   0.75562   0.00000  Uiso   1.00
C846   C     0.79362   0.31296   0.74376   0.00000  Uiso   1.00
C847   C     0.83395   0.04236   0.75018   0.00000  Uiso   1.00
C848   C     0.83204   0.29079   0.75011   0.00000  Uiso   1.00
C849   C     0.98973   0.14729   0.71556   0.00000  Uiso   1.00
C850   C     0.67722   0.18703   0.78374   0.00000  Uiso   1.00
C851   C     0.70431   0.14704   0.71569   0.00000  Uiso   1.00
C852   C     0.96251   0.18685   0.78388   0.00000  Uiso   1.00
C853   C     0.80306   0.16722   0.83763   0.00000  Uiso   1.00
C854   C     0.86359   0.16612   0.66230   0.00000  Uiso   1.00
C855   C     0.78493   0.17215   0.88721   0.00000  Uiso   1.00
C856   C     0.88175   0.16502   0.61236   0.00000  Uiso   1.00
C857   C     0.72496   0.19716   0.95880   0.00000  Uiso   1.00
C858   C     0.94604   0.15656   0.53790   0.00000  Uiso   1.00
C859   C     0.73816   0.18838   0.91222   0.00000  Uiso   1.00
C860   C     0.93148   0.15856   0.58549   0.00000  Uiso   1.00
C861   C     0.81804   0.16488   0.90860   0.00000  Uiso   1.00
C862   C     0.84721   0.16975   0.59166   0.00000  Uiso   1.00
C863   C     0.80674   0.17623   0.95446   0.00000  Uiso   1.00
C864   C     0.86146   0.17084   0.54418   0.00000  Uiso   1.00
C865   C     0.75854   0.19054   0.98036   0.00000  Uiso   1.00
C866   C     0.91162   0.16288   0.51698   0.00000  Uiso   1.00
C867   C     0.84216   0.17315   0.97502   0.00000  Uiso   1.00
C868   C     0.82680   0.17842   0.52326   0.00000  Uiso   1.00
H869   H     0.70758   0.20841   0.54747   0.00000  Uiso   1.00
H870   H     0.96500   0.15624   0.94804   0.00000  Uiso   1.00
H871   H     0.80876   0.17156   0.61340   0.00000  Uiso   1.00
H872   H     0.85272   0.15012   0.88866   0.00000  Uiso   1.00
H873   H     0.95858   0.15423   0.60122   0.00000  Uiso   1.00
H874   H     0.71253   0.19507   0.89562   0.00000  Uiso   1.00
H875   H     0.68889   0.20972   0.97776   0.00000  Uiso   1.00
H876   H     0.98402   0.15012   0.51768   0.00000  Uiso   1.00
H877   H     0.76416   0.19916   0.58491   0.00000  Uiso   1.00
H878   H     0.90746   0.16599   0.91154   0.00000  Uiso   1.00
H879   H     0.89950   0.29380   0.76258   0.00000  Uiso   1.00
H880   H     0.76431   0.03932   0.74142   0.00000  Uiso   1.00
H881   H     0.98251   0.13176   0.68793   0.00000  Uiso   1.00
H882   H     0.68470   0.20327   0.81072   0.00000  Uiso   1.00
H883   H     0.73330   0.13093   0.68841   0.00000  Uiso   1.00
H884   H     0.93347   0.20289   0.81115   0.00000  Uiso   1.00
N885   N     0.71426   0.16668   0.75001   0.00000  Uiso   1.00
N886   N     0.95241   0.16666   0.74999   0.00000  Uiso   1.00
O887   O     0.79512   0.22775   0.75001   0.00000  Uiso   1.00
O888   O     0.87154   0.10558   0.75000   0.00000  Uiso   1.00
O889   O     0.87157   0.22774   0.75000   0.00000  Uiso   1.00
O890   O     0.79510   0.10559   0.75000   0.00000  Uiso   1.00
O891   O     0.77328   0.16667   0.81613   0.00000  Uiso   1.00
O892   O     0.89339   0.16666   0.68388   0.00000  Uiso   1.00
O893   O     0.84972   0.16666   0.81612   0.00000  Uiso   1.00
O894   O     0.81695   0.16667   0.68388   0.00000  Uiso   1.00
Zn895  Zn    0.78229   0.16667   0.75000   0.00000  Uiso   1.00
Zn896  Zn    0.88438   0.16666   0.75000   0.00000  Uiso   1.00
O897   O     0.90912   0.03901   0.76539   0.00000  Uiso   1.00
C898   C     0.95231   0.03744   0.72631   0.00000  Uiso   1.00
H899   H     0.95070   0.06094   0.70105   0.00000  Uiso   1.00
H900   H     0.95924   0.00643   0.70956   0.00000  Uiso   1.00
C901   C     0.99480   0.04719   0.74046   0.00000  Uiso   1.00
H902   H     0.66856   0.02059   0.75957   0.00000  Uiso   1.00
H903   H     0.69435   0.05346   0.70972   0.00000  Uiso   1.00
H904   H     0.98646   0.07476   0.76288   0.00000  Uiso   1.00
O905   O     0.75260   0.29331   0.74230   0.00000  Uiso   1.00
C906   C     0.75243   0.29476   0.69751   0.00000  Uiso   1.00
H907   H     0.78812   0.28432   0.67178   0.00000  Uiso   1.00
H908   H     0.74463   0.32655   0.68917   0.00000  Uiso   1.00
C909   C     0.71277   0.26651   0.69403   0.00000  Uiso   1.00
H910   H     0.69562   0.28071   0.67135   0.00000  Uiso   1.00
H911   H     0.72898   0.23615   0.67945   0.00000  Uiso   1.00
H912   H     0.68359   0.26113   0.72828   0.00000  Uiso   1.00
C913   C     0.16619   0.58003   0.75017   0.00000  Uiso   1.00
C914   C     0.16684   0.41991   0.75031   0.00000  Uiso   1.00
C915   C     0.11113   0.52515   0.54866   0.00000  Uiso   1.00
C916   C     0.22599   0.49956   0.94864   0.00000  Uiso   1.00
C917   C     0.07795   0.53150   0.52725   0.00000  Uiso   1.00
C918   C     0.26001   0.49473   0.96939   0.00000  Uiso   1.00
C919   C     0.20401   0.64420   0.75644   0.00000  Uiso   1.00
C920   C     0.12804   0.35555   0.74460   0.00000  Uiso   1.00
C921   C     0.20591   0.35331   0.75562   0.00000  Uiso   1.00
C922   C     0.12696   0.64629   0.74376   0.00000  Uiso   1.00
C923   C     0.16728   0.37570   0.75018   0.00000  Uiso   1.00
C924   C     0.16538   0.62412   0.75011   0.00000  Uiso   1.00
C925   C     0.32306   0.48062   0.71556   0.00000  Uiso   1.00
C926   C     0.01055   0.52036   0.78374   0.00000  Uiso   1.00
C927   C     0.03765   0.48037   0.71569   0.00000  Uiso   1.00
C928   C     0.29584   0.52018   0.78388   0.00000  Uiso   1.00
C929   C     0.13640   0.50055   0.83763   0.00000  Uiso   1.00
C930   C     0.19692   0.49945   0.66230   0.00000  Uiso   1.00
C931   C     0.11826   0.50548   0.88721   0.00000  Uiso   1.00
C932   C     0.21508   0.49835   0.61236   0.00000  Uiso   1.00
C933   C     0.05830   0.53049   0.95880   0.00000  Uiso   1.00
C934   C     0.27938   0.48989   0.53790   0.00000  Uiso   1.00
C935   C     0.07149   0.52171   0.91222   0.00000  Uiso   1.00
C936   C     0.26481   0.49189   0.58549   0.00000  Uiso   1.00
C937   C     0.15137   0.49821   0.90860   0.00000  Uiso   1.00
C938   C     0.18054   0.50308   0.59166   0.00000  Uiso   1.00
C939   C     0.14007   0.50957   0.95446   0.00000  Uiso   1.00
C940   C     0.19479   0.50417   0.54418   0.00000  Uiso   1.00
C941   C     0.09188   0.52387   0.98036   0.00000  Uiso   1.00
C942   C     0.24496   0.49621   0.51698   0.00000  Uiso   1.00
C943   C     0.17549   0.50648   0.97502   0.00000  Uiso   1.00
C944   C     0.16013   0.51175   0.52326   0.00000  Uiso   1.00
H945   H     0.04092   0.54174   0.54747   0.00000  Uiso   1.00
H946   H     0.29833   0.48958   0.94804   0.00000  Uiso   1.00
H947   H     0.14209   0.50489   0.61340   0.00000  Uiso   1.00
H948   H     0.18606   0.48345   0.88866   0.00000  Uiso   1.00
H949   H     0.29191   0.48756   0.60122   0.00000  Uiso   1.00
H950   H     0.04586   0.52840   0.89562   0.00000  Uiso   1.00
H951   H     0.02222   0.54305   0.97776   0.00000  Uiso   1.00
H952   H     0.31735   0.48345   0.51768   0.00000  Uiso   1.00
H953   H     0.09749   0.53250   0.58491   0.00000  Uiso   1.00
H954   H     0.24080   0.49932   0.91154   0.00000  Uiso   1.00
H955   H     0.23283   0.62713   0.76258   0.00000  Uiso   1.00
H956   H     0.09764   0.37266   0.74142   0.00000  Uiso   1.00
H957   H     0.31585   0.46509   0.68793   0.00000  Uiso   1.00
H958   H     0.01803   0.53661   0.81072   0.00000  Uiso   1.00
H959   H     0.06664   0.46427   0.68841   0.00000  Uiso   1.00
H960   H     0.26680   0.53623   0.81115   0.00000  Uiso   1.00
N961   N     0.04759   0.50001   0.75001   0.00000  Uiso   1.00
N962   N     0.28574   0.49999   0.74999   0.00000  Uiso   1.00
O963   O     0.12846   0.56108   0.75001   0.00000  Uiso   1.00
O964   O     0.20488   0.43892   0.75000   0.00000  Uiso   1.00
O965   O     0.20490   0.56107   0.75000   0.00000  Uiso   1.00
O966   O     0.12843   0.43893   0.75000   0.00000  Uiso   1.00
O967   O     0.10661   0.50001   0.81613   0.00000  Uiso   1.00
O968   O     0.22672   0.49999   0.68388   0.00000  Uiso   1.00
O969   O     0.18305   0.50000   0.81612   0.00000  Uiso   1.00
O970   O     0.15028   0.50000   0.68388   0.00000  Uiso   1.00
Zn971  Zn    0.11562   0.50001   0.75000   0.00000  Uiso   1.00
Zn972  Zn    0.21771   0.49999   0.75000   0.00000  Uiso   1.00
O973   O     0.24245   0.37234   0.76539   0.00000  Uiso   1.00
C974   C     0.28564   0.37077   0.72631   0.00000  Uiso   1.00
H975   H     0.28403   0.39427   0.70105   0.00000  Uiso   1.00
H976   H     0.29257   0.33976   0.70956   0.00000  Uiso   1.00
C977   C     0.32813   0.38053   0.74046   0.00000  Uiso   1.00
H978   H     0.00190   0.35392   0.75957   0.00000  Uiso   1.00
H979   H     0.02768   0.38679   0.70972   0.00000  Uiso   1.00
H980   H     0.31979   0.40809   0.76288   0.00000  Uiso   1.00
O981   O     0.08594   0.62664   0.74230   0.00000  Uiso   1.00
C982   C     0.08577   0.62809   0.69751   0.00000  Uiso   1.00
H983   H     0.12145   0.61766   0.67178   0.00000  Uiso   1.00
H984   H     0.07796   0.65988   0.68917   0.00000  Uiso   1.00
C985   C     0.04610   0.59984   0.69403   0.00000  Uiso   1.00
H986   H     0.02895   0.61404   0.67135   0.00000  Uiso   1.00
H987   H     0.06231   0.56948   0.67945   0.00000  Uiso   1.00
H988   H     0.01693   0.59447   0.72828   0.00000  Uiso   1.00
C989   C     0.49952   0.58003   0.75017   0.00000  Uiso   1.00
C990   C     0.50017   0.41991   0.75031   0.00000  Uiso   1.00
C991   C     0.44446   0.52515   0.54866   0.00000  Uiso   1.00
C992   C     0.55932   0.49956   0.94864   0.00000  Uiso   1.00
C993   C     0.41128   0.53150   0.52725   0.00000  Uiso   1.00
C994   C     0.59335   0.49473   0.96939   0.00000  Uiso   1.00
C995   C     0.53735   0.64420   0.75644   0.00000  Uiso   1.00
C996   C     0.46138   0.35555   0.74460   0.00000  Uiso   1.00
C997   C     0.53924   0.35331   0.75562   0.00000  Uiso   1.00
C998   C     0.46029   0.64629   0.74376   0.00000  Uiso   1.00
C999   C     0.50062   0.37570   0.75018   0.00000  Uiso   1.00
C1000  C     0.49871   0.62412   0.75011   0.00000  Uiso   1.00
C1001  C     0.65639   0.48062   0.71556   0.00000  Uiso   1.00
C1002  C     0.34389   0.52036   0.78374   0.00000  Uiso   1.00
C1003  C     0.37098   0.48037   0.71569   0.00000  Uiso   1.00
C1004  C     0.62917   0.52018   0.78388   0.00000  Uiso   1.00
C1005  C     0.46973   0.50055   0.83763   0.00000  Uiso   1.00
C1006  C     0.53026   0.49945   0.66230   0.00000  Uiso   1.00
C1007  C     0.45159   0.50548   0.88721   0.00000  Uiso   1.00
C1008  C     0.54842   0.49835   0.61236   0.00000  Uiso   1.00
C1009  C     0.39163   0.53049   0.95880   0.00000  Uiso   1.00
C1010  C     0.61271   0.48989   0.53790   0.00000  Uiso   1.00
C1011  C     0.40482   0.52171   0.91222   0.00000  Uiso   1.00
C1012  C     0.59814   0.49189   0.58549   0.00000  Uiso   1.00
C1013  C     0.48470   0.49821   0.90860   0.00000  Uiso   1.00
C1014  C     0.51387   0.50308   0.59166   0.00000  Uiso   1.00
C1015  C     0.47341   0.50957   0.95446   0.00000  Uiso   1.00
C1016  C     0.52812   0.50417   0.54418   0.00000  Uiso   1.00
C1017  C     0.42521   0.52387   0.98036   0.00000  Uiso   1.00
C1018  C     0.57829   0.49621   0.51698   0.00000  Uiso   1.00
C1019  C     0.50883   0.50648   0.97502   0.00000  Uiso   1.00
C1020  C     0.49347   0.51175   0.52326   0.00000  Uiso   1.00
H1021  H     0.37425   0.54174   0.54747   0.00000  Uiso   1.00
H1022  H     0.63166   0.48958   0.94804   0.00000  Uiso   1.00
H1023  H     0.47542   0.50489   0.61340   0.00000  Uiso   1.00
H1024  H     0.51939   0.48345   0.88866   0.00000  Uiso   1.00
H1025  H     0.62524   0.48756   0.60122   0.00000  Uiso   1.00
H1026  H     0.37919   0.52840   0.89562   0.00000  Uiso   1.00
H1027  H     0.35556   0.54305   0.97776   0.00000  Uiso   1.00
H1028  H     0.65069   0.48345   0.51768   0.00000  Uiso   1.00
H1029  H     0.43082   0.53250   0.58491   0.00000  Uiso   1.00
H1030  H     0.57413   0.49932   0.91154   0.00000  Uiso   1.00
H1031  H     0.56617   0.62713   0.76258   0.00000  Uiso   1.00
H1032  H     0.43097   0.37266   0.74142   0.00000  Uiso   1.00
H1033  H     0.64918   0.46509   0.68793   0.00000  Uiso   1.00
H1034  H     0.35137   0.53661   0.81072   0.00000  Uiso   1.00
H1035  H     0.39997   0.46427   0.68841   0.00000  Uiso   1.00
H1036  H     0.60013   0.53623   0.81115   0.00000  Uiso   1.00
N1037  N     0.38093   0.50001   0.75001   0.00000  Uiso   1.00
N1038  N     0.61907   0.49999   0.74999   0.00000  Uiso   1.00
O1039  O     0.46179   0.56108   0.75001   0.00000  Uiso   1.00
O1040  O     0.53821   0.43892   0.75000   0.00000  Uiso   1.00
O1041  O     0.53823   0.56107   0.75000   0.00000  Uiso   1.00
O1042  O     0.46177   0.43893   0.75000   0.00000  Uiso   1.00
O1043  O     0.43994   0.50001   0.81613   0.00000  Uiso   1.00
O1044  O     0.56006   0.49999   0.68388   0.00000  Uiso   1.00
O1045  O     0.51639   0.50000   0.81612   0.00000  Uiso   1.00
O1046  O     0.48361   0.50000   0.68388   0.00000  Uiso   1.00
Zn1047 Zn    0.44896   0.50001   0.75000   0.00000  Uiso   1.00
Zn1048 Zn    0.55104   0.49999   0.75000   0.00000  Uiso   1.00
O1049  O     0.57578   0.37234   0.76539   0.00000  Uiso   1.00
C1050  C     0.61898   0.37077   0.72631   0.00000  Uiso   1.00
H1051  H     0.61737   0.39427   0.70105   0.00000  Uiso   1.00
H1052  H     0.62591   0.33976   0.70956   0.00000  Uiso   1.00
C1053  C     0.66146   0.38053   0.74046   0.00000  Uiso   1.00
H1054  H     0.33523   0.35392   0.75957   0.00000  Uiso   1.00
H1055  H     0.36102   0.38679   0.70972   0.00000  Uiso   1.00
H1056  H     0.65313   0.40809   0.76288   0.00000  Uiso   1.00
O1057  O     0.41927   0.62664   0.74230   0.00000  Uiso   1.00
C1058  C     0.41910   0.62809   0.69751   0.00000  Uiso   1.00
H1059  H     0.45478   0.61766   0.67178   0.00000  Uiso   1.00
H1060  H     0.41130   0.65988   0.68917   0.00000  Uiso   1.00
C1061  C     0.37943   0.59984   0.69403   0.00000  Uiso   1.00
H1062  H     0.36229   0.61404   0.67135   0.00000  Uiso   1.00
H1063  H     0.39564   0.56948   0.67945   0.00000  Uiso   1.00
H1064  H     0.35026   0.59447   0.72828   0.00000  Uiso   1.00
C1065  C     0.83286   0.58003   0.75017   0.00000  Uiso   1.00
C1066  C     0.83350   0.41991   0.75031   0.00000  Uiso   1.00
C1067  C     0.77779   0.52515   0.54866   0.00000  Uiso   1.00
C1068  C     0.89266   0.49956   0.94864   0.00000  Uiso   1.00
C1069  C     0.74461   0.53150   0.52725   0.00000  Uiso   1.00
C1070  C     0.92668   0.49473   0.96939   0.00000  Uiso   1.00
C1071  C     0.87068   0.64420   0.75644   0.00000  Uiso   1.00
C1072  C     0.79471   0.35555   0.74460   0.00000  Uiso   1.00
C1073  C     0.87257   0.35331   0.75562   0.00000  Uiso   1.00
C1074  C     0.79362   0.64629   0.74376   0.00000  Uiso   1.00
C1075  C     0.83395   0.37570   0.75018   0.00000  Uiso   1.00
C1076  C     0.83204   0.62412   0.75011   0.00000  Uiso   1.00
C1077  C     0.98973   0.48062   0.71556   0.00000  Uiso   1.00
C1078  C     0.67722   0.52036   0.78374   0.00000  Uiso   1.00
C1079  C     0.70431   0.48037   0.71569   0.00000  Uiso   1.00
C1080  C     0.96251   0.52018   0.78388   0.00000  Uiso   1.00
C1081  C     0.80306   0.50055   0.83763   0.00000  Uiso   1.00
C1082  C     0.86359   0.49945   0.66230   0.00000  Uiso   1.00
C1083  C     0.78493   0.50548   0.88721   0.00000  Uiso   1.00
C1084  C     0.88175   0.49835   0.61236   0.00000  Uiso   1.00
C1085  C     0.72496   0.53049   0.95880   0.00000  Uiso   1.00
C1086  C     0.94604   0.48989   0.53790   0.00000  Uiso   1.00
C1087  C     0.73816   0.52171   0.91222   0.00000  Uiso   1.00
C1088  C     0.93148   0.49189   0.58549   0.00000  Uiso   1.00
C1089  C     0.81804   0.49821   0.90860   0.00000  Uiso   1.00
C1090  C     0.84721   0.50308   0.59166   0.00000  Uiso   1.00
C1091  C     0.80674   0.50957   0.95446   0.00000  Uiso   1.00
C1092  C     0.86146   0.50417   0.54418   0.00000  Uiso   1.00
C1093  C     0.75854   0.52387   0.98036   0.00000  Uiso   1.00
C1094  C     0.91162   0.49621   0.51698   0.00000  Uiso   1.00
C1095  C     0.84216   0.50648   0.97502   0.00000  Uiso   1.00
C1096  C     0.82680   0.51175   0.52326   0.00000  Uiso   1.00
H1097  H     0.70758   0.54174   0.54747   0.00000  Uiso   1.00
H1098  H     0.96500   0.48958   0.94804   0.00000  Uiso   1.00
H1099  H     0.80876   0.50489   0.61340   0.00000  Uiso   1.00
H1100  H     0.85272   0.48345   0.88866   0.00000  Uiso   1.00
H1101  H     0.95858   0.48756   0.60122   0.00000  Uiso   1.00
H1102  H     0.71253   0.52840   0.89562   0.00000  Uiso   1.00
H1103  H     0.68889   0.54305   0.97776   0.00000  Uiso   1.00
H1104  H     0.98402   0.48345   0.51768   0.00000  Uiso   1.00
H1105  H     0.76416   0.53250   0.58491   0.00000  Uiso   1.00
H1106  H     0.90746   0.49932   0.91154   0.00000  Uiso   1.00
H1107  H     0.89950   0.62713   0.76258   0.00000  Uiso   1.00
H1108  H     0.76431   0.37266   0.74142   0.00000  Uiso   1.00
H1109  H     0.98251   0.46509   0.68793   0.00000  Uiso   1.00
H1110  H     0.68470   0.53661   0.81072   0.00000  Uiso   1.00
H1111  H     0.73330   0.46427   0.68841   0.00000  Uiso   1.00
H1112  H     0.93347   0.53623   0.81115   0.00000  Uiso   1.00
N1113  N     0.71426   0.50001   0.75001   0.00000  Uiso   1.00
N1114  N     0.95241   0.49999   0.74999   0.00000  Uiso   1.00
O1115  O     0.79512   0.56108   0.75001   0.00000  Uiso   1.00
O1116  O     0.87154   0.43892   0.75000   0.00000  Uiso   1.00
O1117  O     0.87157   0.56107   0.75000   0.00000  Uiso   1.00
O1118  O     0.79510   0.43893   0.75000   0.00000  Uiso   1.00
O1119  O     0.77328   0.50001   0.81613   0.00000  Uiso   1.00
O1120  O     0.89339   0.49999   0.68388   0.00000  Uiso   1.00
O1121  O     0.84972   0.50000   0.81612   0.00000  Uiso   1.00
O1122  O     0.81695   0.50000   0.68388   0.00000  Uiso   1.00
Zn1123 Zn    0.78229   0.50001   0.75000   0.00000  Uiso   1.00
Zn1124 Zn    0.88438   0.49999   0.75000   0.00000  Uiso   1.00
O1125  O     0.90912   0.37234   0.76539   0.00000  Uiso   1.00
C1126  C     0.95231   0.37077   0.72631   0.00000  Uiso   1.00
H1127  H     0.95070   0.39427   0.70105   0.00000  Uiso   1.00
H1128  H     0.95924   0.33976   0.70956   0.00000  Uiso   1.00
C1129  C     0.99480   0.38053   0.74046   0.00000  Uiso   1.00
H1130  H     0.66856   0.35392   0.75957   0.00000  Uiso   1.00
H1131  H     0.69435   0.38679   0.70972   0.00000  Uiso   1.00
H1132  H     0.98646   0.40809   0.76288   0.00000  Uiso   1.00
O1133  O     0.75260   0.62664   0.74230   0.00000  Uiso   1.00
C1134  C     0.75243   0.62809   0.69751   0.00000  Uiso   1.00
H1135  H     0.78812   0.61766   0.67178   0.00000  Uiso   1.00
H1136  H     0.74463   0.65988   0.68917   0.00000  Uiso   1.00
C1137  C     0.71277   0.59984   0.69403   0.00000  Uiso   1.00
H1138  H     0.69562   0.61404   0.67135   0.00000  Uiso   1.00
H1139  H     0.72898   0.56948   0.67945   0.00000  Uiso   1.00
H1140  H     0.68359   0.59447   0.72828   0.00000  Uiso   1.00
C1141  C     0.16619   0.91336   0.75017   0.00000  Uiso   1.00
C1142  C     0.16684   0.75324   0.75031   0.00000  Uiso   1.00
C1143  C     0.11113   0.85849   0.54866   0.00000  Uiso   1.00
C1144  C     0.22599   0.83290   0.94864   0.00000  Uiso   1.00
C1145  C     0.07795   0.86484   0.52725   0.00000  Uiso   1.00
C1146  C     0.26001   0.82807   0.96939   0.00000  Uiso   1.00
C1147  C     0.20401   0.97754   0.75644   0.00000  Uiso   1.00
C1148  C     0.12804   0.68888   0.74460   0.00000  Uiso   1.00
C1149  C     0.20591   0.68664   0.75562   0.00000  Uiso   1.00
C1150  C     0.12696   0.97962   0.74376   0.00000  Uiso   1.00
C1151  C     0.16728   0.70903   0.75018   0.00000  Uiso   1.00
C1152  C     0.16538   0.95745   0.75011   0.00000  Uiso   1.00
C1153  C     0.32306   0.81395   0.71556   0.00000  Uiso   1.00
C1154  C     0.01055   0.85370   0.78374   0.00000  Uiso   1.00
C1155  C     0.03765   0.81370   0.71569   0.00000  Uiso   1.00
C1156  C     0.29584   0.85351   0.78388   0.00000  Uiso   1.00
C1157  C     0.13640   0.83388   0.83763   0.00000  Uiso   1.00
C1158  C     0.19692   0.83279   0.66230   0.00000  Uiso   1.00
C1159  C     0.11826   0.83881   0.88721   0.00000  Uiso   1.00
C1160  C     0.21508   0.83169   0.61236   0.00000  Uiso   1.00
C1161  C     0.05830   0.86383   0.95880   0.00000  Uiso   1.00
C1162  C     0.27938   0.82322   0.53790   0.00000  Uiso   1.00
C1163  C     0.07149   0.85504   0.91222   0.00000  Uiso   1.00
C1164  C     0.26481   0.82523   0.58549   0.00000  Uiso   1.00
C1165  C     0.15137   0.83154   0.90860   0.00000  Uiso   1.00
C1166  C     0.18054   0.83641   0.59166   0.00000  Uiso   1.00
C1167  C     0.14007   0.84290   0.95446   0.00000  Uiso   1.00
C1168  C     0.19479   0.83751   0.54418   0.00000  Uiso   1.00
C1169  C     0.09188   0.85720   0.98036   0.00000  Uiso   1.00
C1170  C     0.24496   0.82955   0.51698   0.00000  Uiso   1.00
C1171  C     0.17549   0.83981   0.97502   0.00000  Uiso   1.00
C1172  C     0.16013   0.84509   0.52326   0.00000  Uiso   1.00
H1173  H     0.04092   0.87507   0.54747   0.00000  Uiso   1.00
H1174  H     0.29833   0.82291   0.94804   0.00000  Uiso   1.00
H1175  H     0.14209   0.83822   0.61340   0.00000  Uiso   1.00
H1176  H     0.18606   0.81678   0.88866   0.00000  Uiso   1.00
H1177  H     0.29191   0.82089   0.60122   0.00000  Uiso   1.00
H1178  H     0.04586   0.86173   0.89562   0.00000  Uiso   1.00
H1179  H     0.02222   0.87638   0.97776   0.00000  Uiso   1.00
H1180  H     0.31735   0.81678   0.51768   0.00000  Uiso   1.00
H1181  H     0.09749   0.86583   0.58491   0.00000  Uiso   1.00
H1182  H     0.24080   0.83266   0.91154   0.00000  Uiso   1.00
H1183  H     0.23283   0.96046   0.76258   0.00000  Uiso   1.00
H1184  H     0.09764   0.70599   0.74142   0.00000  Uiso   1.00
H1185  H     0.31585   0.79843   0.68793   0.00000  Uiso   1.00
H1186  H     0.01803   0.86994   0.81072   0.00000  Uiso   1.00
H1187  H     0.06664   0.79760   0.68841   0.00000  Uiso   1.00
H1188  H     0.26680   0.86956   0.81115   0.00000  Uiso   1.00
N1189  N     0.04759   0.83334   0.75001   0.00000  Uiso   1.00
N1190  N     0.28574   0.83332   0.74999   0.00000  Uiso   1.00
O1191  O     0.12846   0.89442   0.75001   0.00000  Uiso   1.00
O1192  O     0.20488   0.77225   0.75000   0.00000  Uiso   1.00
O1193  O     0.20490   0.89441   0.75000   0.00000  Uiso   1.00
O1194  O     0.12843   0.77226   0.75000   0.00000  Uiso   1.00
O1195  O     0.10661   0.83334   0.81613   0.00000  Uiso   1.00
O1196  O     0.22672   0.83333   0.68388   0.00000  Uiso   1.00
O1197  O     0.18305   0.83333   0.81612   0.00000  Uiso   1.00
O1198  O     0.15028   0.83334   0.68388   0.00000  Uiso   1.00
Zn1199 Zn    0.11562   0.83334   0.75000   0.00000  Uiso   1.00
Zn1200 Zn    0.21771   0.83333   0.75000   0.00000  Uiso   1.00
O1201  O     0.24245   0.70568   0.76539   0.00000  Uiso   1.00
C1202  C     0.28564   0.70411   0.72631   0.00000  Uiso   1.00
H1203  H     0.28403   0.72760   0.70105   0.00000  Uiso   1.00
H1204  H     0.29257   0.67309   0.70956   0.00000  Uiso   1.00
C1205  C     0.32813   0.71386   0.74046   0.00000  Uiso   1.00
H1206  H     0.00190   0.68725   0.75957   0.00000  Uiso   1.00
H1207  H     0.02768   0.72012   0.70972   0.00000  Uiso   1.00
H1208  H     0.31979   0.74143   0.76288   0.00000  Uiso   1.00
O1209  O     0.08594   0.95997   0.74230   0.00000  Uiso   1.00
C1210  C     0.08577   0.96143   0.69751   0.00000  Uiso   1.00
H1211  H     0.12145   0.95099   0.67178   0.00000  Uiso   1.00
H1212  H     0.07796   0.99322   0.68917   0.00000  Uiso   1.00
C1213  C     0.04610   0.93317   0.69403   0.00000  Uiso   1.00
H1214  H     0.02895   0.94737   0.67135   0.00000  Uiso   1.00
H1215  H     0.06231   0.90281   0.67945   0.00000  Uiso   1.00
H1216  H     0.01693   0.92780   0.72828   0.00000  Uiso   1.00
C1217  C     0.49952   0.91336   0.75017   0.00000  Uiso   1.00
C1218  C     0.50017   0.75324   0.75031   0.00000  Uiso   1.00
C1219  C     0.44446   0.85849   0.54866   0.00000  Uiso   1.00
C1220  C     0.55932   0.83290   0.94864   0.00000  Uiso   1.00
C1221  C     0.41128   0.86484   0.52725   0.00000  Uiso   1.00
C1222  C     0.59335   0.82807   0.96939   0.00000  Uiso   1.00
C1223  C     0.53735   0.97754   0.75644   0.00000  Uiso   1.00
C1224  C     0.46138   0.68888   0.74460   0.00000  Uiso   1.00
C1225  C     0.53924   0.68664   0.75562   0.00000  Uiso   1.00
C1226  C     0.46029   0.97962   0.74376   0.00000  Uiso   1.00
C1227  C     0.50062   0.70903   0.75018   0.00000  Uiso   1.00
C1228  C     0.49871   0.95745   0.75011   0.00000  Uiso   1.00
C1229  C     0.65639   0.81395   0.71556   0.00000  Uiso   1.00
C1230  C     0.34389   0.85370   0.78374   0.00000  Uiso   1.00
C1231  C     0.37098   0.81370   0.71569   0.00000  Uiso   1.00
C1232  C     0.62917   0.85351   0.78388   0.00000  Uiso   1.00
C1233  C     0.46973   0.83388   0.83763   0.00000  Uiso   1.00
C1234  C     0.53026   0.83279   0.66230   0.00000  Uiso   1.00
C1235  C     0.45159   0.83881   0.88721   0.00000  Uiso   1.00
C1236  C     0.54842   0.83169   0.61236   0.00000  Uiso   1.00
C1237  C     0.39163   0.86383   0.95880   0.00000  Uiso   1.00
C1238  C     0.61271   0.82322   0.53790   0.00000  Uiso   1.00
C1239  C     0.40482   0.85504   0.91222   0.00000  Uiso   1.00
C1240  C     0.59814   0.82523   0.58549   0.00000  Uiso   1.00
C1241  C     0.48470   0.83154   0.90860   0.00000  Uiso   1.00
C1242  C     0.51387   0.83641   0.59166   0.00000  Uiso   1.00
C1243  C     0.47341   0.84290   0.95446   0.00000  Uiso   1.00
C1244  C     0.52812   0.83751   0.54418   0.00000  Uiso   1.00
C1245  C     0.42521   0.85720   0.98036   0.00000  Uiso   1.00
C1246  C     0.57829   0.82955   0.51698   0.00000  Uiso   1.00
C1247  C     0.50883   0.83981   0.97502   0.00000  Uiso   1.00
C1248  C     0.49347   0.84509   0.52326   0.00000  Uiso   1.00
H1249  H     0.37425   0.87507   0.54747   0.00000  Uiso   1.00
H1250  H     0.63166   0.82291   0.94804   0.00000  Uiso   1.00
H1251  H     0.47542   0.83822   0.61340   0.00000  Uiso   1.00
H1252  H     0.51939   0.81678   0.88866   0.00000  Uiso   1.00
H1253  H     0.62524   0.82089   0.60122   0.00000  Uiso   1.00
H1254  H     0.37919   0.86173   0.89562   0.00000  Uiso   1.00
H1255  H     0.35556   0.87638   0.97776   0.00000  Uiso   1.00
H1256  H     0.65069   0.81678   0.51768   0.00000  Uiso   1.00
H1257  H     0.43082   0.86583   0.58491   0.00000  Uiso   1.00
H1258  H     0.57413   0.83266   0.91154   0.00000  Uiso   1.00
H1259  H     0.56617   0.96046   0.76258   0.00000  Uiso   1.00
H1260  H     0.43097   0.70599   0.74142   0.00000  Uiso   1.00
H1261  H     0.64918   0.79843   0.68793   0.00000  Uiso   1.00
H1262  H     0.35137   0.86994   0.81072   0.00000  Uiso   1.00
H1263  H     0.39997   0.79760   0.68841   0.00000  Uiso   1.00
H1264  H     0.60013   0.86956   0.81115   0.00000  Uiso   1.00
N1265  N     0.38093   0.83334   0.75001   0.00000  Uiso   1.00
N1266  N     0.61907   0.83332   0.74999   0.00000  Uiso   1.00
O1267  O     0.46179   0.89442   0.75001   0.00000  Uiso   1.00
O1268  O     0.53821   0.77225   0.75000   0.00000  Uiso   1.00
O1269  O     0.53823   0.89441   0.75000   0.00000  Uiso   1.00
O1270  O     0.46177   0.77226   0.75000   0.00000  Uiso   1.00
O1271  O     0.43994   0.83334   0.81613   0.00000  Uiso   1.00
O1272  O     0.56006   0.83333   0.68388   0.00000  Uiso   1.00
O1273  O     0.51639   0.83333   0.81612   0.00000  Uiso   1.00
O1274  O     0.48361   0.83334   0.68388   0.00000  Uiso   1.00
Zn1275 Zn    0.44896   0.83334   0.75000   0.00000  Uiso   1.00
Zn1276 Zn    0.55104   0.83333   0.75000   0.00000  Uiso   1.00
O1277  O     0.57578   0.70568   0.76539   0.00000  Uiso   1.00
C1278  C     0.61898   0.70411   0.72631   0.00000  Uiso   1.00
H1279  H     0.61737   0.72760   0.70105   0.00000  Uiso   1.00
H1280  H     0.62591   0.67309   0.70956   0.00000  Uiso   1.00
C1281  C     0.66146   0.71386   0.74046   0.00000  Uiso   1.00
H1282  H     0.33523   0.68725   0.75957   0.00000  Uiso   1.00
H1283  H     0.36102   0.72012   0.70972   0.00000  Uiso   1.00
H1284  H     0.65313   0.74143   0.76288   0.00000  Uiso   1.00
O1285  O     0.41927   0.95997   0.74230   0.00000  Uiso   1.00
C1286  C     0.41910   0.96143   0.69751   0.00000  Uiso   1.00
H1287  H     0.45478   0.95099   0.67178   0.00000  Uiso   1.00
H1288  H     0.41130   0.99322   0.68917   0.00000  Uiso   1.00
C1289  C     0.37943   0.93317   0.69403   0.00000  Uiso   1.00
H1290  H     0.36229   0.94737   0.67135   0.00000  Uiso   1.00
H1291  H     0.39564   0.90281   0.67945   0.00000  Uiso   1.00
H1292  H     0.35026   0.92780   0.72828   0.00000  Uiso   1.00
C1293  C     0.83286   0.91336   0.75017   0.00000  Uiso   1.00
C1294  C     0.83350   0.75324   0.75031   0.00000  Uiso   1.00
C1295  C     0.77779   0.85849   0.54866   0.00000  Uiso   1.00
C1296  C     0.89266   0.83290   0.94864   0.00000  Uiso   1.00
C1297  C     0.74461   0.86484   0.52725   0.00000  Uiso   1.00
C1298  C     0.92668   0.82807   0.96939   0.00000  Uiso   1.00
C1299  C     0.87068   0.97754   0.75644   0.00000  Uiso   1.00
C1300  C     0.79471   0.68888   0.74460   0.00000  Uiso   1.00
C1301  C     0.87257   0.68664   0.75562   0.00000  Uiso   1.00
C1302  C     0.79362   0.97962   0.74376   0.00000  Uiso   1.00
C1303  C     0.83395   0.70903   0.75018   0.00000  Uiso   1.00
C1304  C     0.83204   0.95745   0.75011   0.00000  Uiso   1.00
C1305  C     0.98973   0.81395   0.71556   0.00000  Uiso   1.00
C1306  C     0.67722   0.85370   0.78374   0.00000  Uiso   1.00
C1307  C     0.70431   0.81370   0.71569   0.00000  Uiso   1.00
C1308  C     0.96251   0.85351   0.78388   0.00000  Uiso   1.00
C1309  C     0.80306   0.83388   0.83763   0.00000  Uiso   1.00
C1310  C     0.86359   0.83279   0.66230   0.00000  Uiso   1.00
C1311  C     0.78493   0.83881   0.88721   0.00000  Uiso   1.00
C1312  C     0.88175   0.83169   0.61236   0.00000  Uiso   1.00
C1313  C     0.72496   0.86383   0.95880   0.00000  Uiso   1.00
C1314  C     0.94604   0.82322   0.53790   0.00000  Uiso   1.00
C1315  C     0.73816   0.85504   0.91222   0.00000  Uiso   1.00
C1316  C     0.93148   0.82523   0.58549   0.00000  Uiso   1.00
C1317  C     0.81804   0.83154   0.90860   0.00000  Uiso   1.00
C1318  C     0.84721   0.83641   0.59166   0.00000  Uiso   1.00
C1319  C     0.80674   0.84290   0.95446   0.00000  Uiso   1.00
C1320  C     0.86146   0.83751   0.54418   0.00000  Uiso   1.00
C1321  C     0.75854   0.85720   0.98036   0.00000  Uiso   1.00
C1322  C     0.91162   0.82955   0.51698   0.00000  Uiso   1.00
C1323  C     0.84216   0.83981   0.97502   0.00000  Uiso   1.00
C1324  C     0.82680   0.84509   0.52326   0.00000  Uiso   1.00
H1325  H     0.70758   0.87507   0.54747   0.00000  Uiso   1.00
H1326  H     0.96500   0.82291   0.94804   0.00000  Uiso   1.00
H1327  H     0.80876   0.83822   0.61340   0.00000  Uiso   1.00
H1328  H     0.85272   0.81678   0.88866   0.00000  Uiso   1.00
H1329  H     0.95858   0.82089   0.60122   0.00000  Uiso   1.00
H1330  H     0.71253   0.86173   0.89562   0.00000  Uiso   1.00
H1331  H     0.68889   0.87638   0.97776   0.00000  Uiso   1.00
H1332  H     0.98402   0.81678   0.51768   0.00000  Uiso   1.00
H1333  H     0.76416   0.86583   0.58491   0.00000  Uiso   1.00
H1334  H     0.90746   0.83266   0.91154   0.00000  Uiso   1.00
H1335  H     0.89950   0.96046   0.76258   0.00000  Uiso   1.00
H1336  H     0.76431   0.70599   0.74142   0.00000  Uiso   1.00
H1337  H     0.98251   0.79843   0.68793   0.00000  Uiso   1.00
H1338  H     0.68470   0.86994   0.81072   0.00000  Uiso   1.00
H1339  H     0.73330   0.79760   0.68841   0.00000  Uiso   1.00
H1340  H     0.93347   0.86956   0.81115   0.00000  Uiso   1.00
N1341  N     0.71426   0.83334   0.75001   0.00000  Uiso   1.00
N1342  N     0.95241   0.83332   0.74999   0.00000  Uiso   1.00
O1343  O     0.79512   0.89442   0.75001   0.00000  Uiso   1.00
O1344  O     0.87154   0.77225   0.75000   0.00000  Uiso   1.00
O1345  O     0.87157   0.89441   0.75000   0.00000  Uiso   1.00
O1346  O     0.79510   0.77226   0.75000   0.00000  Uiso   1.00
O1347  O     0.77328   0.83334   0.81613   0.00000  Uiso   1.00
O1348  O     0.89339   0.83333   0.68388   0.00000  Uiso   1.00
O1349  O     0.84972   0.83333   0.81612   0.00000  Uiso   1.00
O1350  O     0.81695   0.83334   0.68388   0.00000  Uiso   1.00
Zn1351 Zn    0.78229   0.83334   0.75000   0.00000  Uiso   1.00
Zn1352 Zn    0.88438   0.83333   0.75000   0.00000  Uiso   1.00
O1353  O     0.90912   0.70568   0.76539   0.00000  Uiso   1.00
C1354  C     0.95231   0.70411   0.72631   0.00000  Uiso   1.00
H1355  H     0.95070   0.72760   0.70105   0.00000  Uiso   1.00
H1356  H     0.95924   0.67309   0.70956   0.00000  Uiso   1.00
C1357  C     0.99480   0.71386   0.74046   0.00000  Uiso   1.00
H1358  H     0.66856   0.68725   0.75957   0.00000  Uiso   1.00
H1359  H     0.69435   0.72012   0.70972   0.00000  Uiso   1.00
H1360  H     0.98646   0.74143   0.76288   0.00000  Uiso   1.00
O1361  O     0.75260   0.95997   0.74230   0.00000  Uiso   1.00
C1362  C     0.75243   0.96143   0.69751   0.00000  Uiso   1.00
H1363  H     0.78812   0.95099   0.67178   0.00000  Uiso   1.00
H1364  H     0.74463   0.99322   0.68917   0.00000  Uiso   1.00
C1365  C     0.71277   0.93317   0.69403   0.00000  Uiso   1.00
H1366  H     0.69562   0.94737   0.67135   0.00000  Uiso   1.00
H1367  H     0.72898   0.90281   0.67945   0.00000  Uiso   1.00
H1368  H     0.68359   0.92780   0.72828   0.00000  Uiso   1.00
loop_
_geom_bond_atom_site_label_1
_geom_bond_atom_site_label_2
_geom_bond_distance
_geom_bond_site_symmetry_2
_ccdc_geom_bond_type
C1     O53     1.286   .     A
C1     C12     1.424   .     S
C1     O51     1.278   .     A
C2     C11     1.428   .     S
C2     O54     1.284   .     A
C2     O52     1.282   .     A
C3     H41     1.080   .     S
C3     C5      1.389   .     A
C3     C32     1.428   .     A
C4     H42     1.080   .     S
C4     C6      1.390   .     A
C4     C31     1.424   .     A
C5     H33     1.086   .     S
C5     C713    1.392   1_554 S
C6     H34     1.089   .     S
C6     C714    1.390   .     S
C7     H43     1.082   .     S
C7     C12     1.394   .     A
C7     C237    1.372   .     S
C8     H44     1.082   .     S
C8     C11     1.400   .     A
C8     C466    1.376   1_545 S
C9     O61     1.376   .     S
C9     C11     1.403   .     A
C9     C463    1.372   1_545 S
C10    C12     1.407   .     A
C10    O69     1.388   .     S
C10    C236    1.376   .     S
C13    H45     1.088   .     S
C13    N50     1.367   .     A
C13    C91     1.414   .     S
C14    H46     1.086   .     S
C14    N49     1.366   .     A
C14    C168    1.414   1_455 S
C15    H47     1.085   .     S
C15    N49     1.372   .     A
C15    C165    1.414   1_455 S
C16    H48     1.085   .     S
C16    N50     1.371   .     A
C16    C90     1.414   .     S
C17    O55     1.290   .     A
C17    C19     1.451   .     S
C17    O57     1.288   .     A
C18    O58     1.288   .     A
C18    O56     1.292   .     A
C18    C20     1.454   .     S
C19    C23     1.403   .     A
C19    C25     1.391   .     A
C20    C24     1.406   .     A
C20    C26     1.402   .     A
C21    C23     1.392   .     A
C21    C29     1.404   .     A
C21    H39     1.081   .     S
C22    H40     1.080   .     S
C22    C24     1.392   .     A
C22    C30     1.410   .     A
C23    H38     1.084   .     S
C24    H37     1.090   .     S
C25    C27     1.397   .     A
C25    H36     1.085   .     S
C26    C28     1.389   .     A
C26    H35     1.085   .     S
C27    C29     1.421   .     A
C27    C31     1.417   .     A
C28    C32     1.422   .     A
C28    C30     1.426   .     A
C29    C689    1.392   .     S
C30    C690    1.390   1_554 S
C31    C716    1.418   .     S
C32    C715    1.418   1_554 S
N49    Zn59    2.005   .     S
N50    Zn60    2.005   .     S
O51    Zn59    2.013   .     S
O52    Zn60    2.013   .     S
O53    Zn60    2.003   .     S
O54    Zn59    2.003   .     S
O55    Zn59    1.989   .     S
O56    Zn60    1.989   .     S
O57    Zn60    1.941   .     S
O58    Zn59    1.941   .     S
O61    C62     1.402   .     S
C62    H64     1.111   .     S
C62    H63     1.110   .     S
C62    C65     1.511   .     S
C65    H68     1.101   .     S
C65    H142    1.109   .     S
C65    H143    1.105   .     S
H66    C217    1.109   1_455 S
H67    C217    1.105   1_455 S
O69    C70     1.406   .     S
C70    H71     1.110   .     S
C70    C73     1.527   .     S
C70    H72     1.102   .     S
C73    H74     1.109   .     S
C73    H75     1.106   .     S
C73    H76     1.114   .     S
C77    O129    1.286   .     A
C77    C88     1.424   .     S
C77    O127    1.278   .     A
C78    C87     1.428   .     S
C78    O130    1.284   .     A
C78    O128    1.282   .     A
C79    H117    1.080   .     S
C79    C81     1.389   .     A
C79    C108    1.428   .     A
C80    H118    1.080   .     S
C80    C82     1.390   .     A
C80    C107    1.424   .     A
C81    H109    1.086   .     S
C81    C789    1.392   1_554 S
C82    H110    1.089   .     S
C82    C790    1.390   .     S
C83    H119    1.082   .     S
C83    C88     1.394   .     A
C83    C313    1.372   .     S
C84    H120    1.082   .     S
C84    C87     1.400   .     A
C84    C542    1.376   1_545 S
C85    O137    1.376   .     S
C85    C87     1.403   .     A
C85    C539    1.372   1_545 S
C86    C88     1.407   .     A
C86    O145    1.388   .     S
C86    C312    1.376   .     S
C89    H121    1.088   .     S
C89    N126    1.367   .     A
C89    C167    1.414   .     S
C90    H122    1.086   .     S
C90    N125    1.366   .     A
C91    H123    1.085   .     S
C91    N125    1.372   .     A
C92    H124    1.085   .     S
C92    N126    1.371   .     A
C92    C166    1.414   .     S
C93    O131    1.290   .     A
C93    C95     1.451   .     S
C93    O133    1.288   .     A
C94    O134    1.288   .     A
C94    O132    1.292   .     A
C94    C96     1.454   .     S
C95    C99     1.403   .     A
C95    C101    1.391   .     A
C96    C100    1.406   .     A
C96    C102    1.402   .     A
C97    C99     1.392   .     A
C97    C105    1.404   .     A
C97    H115    1.081   .     S
C98    H116    1.080   .     S
C98    C100    1.392   .     A
C98    C106    1.410   .     A
C99    H114    1.084   .     S
C100   H113    1.090   .     S
C101   C103    1.397   .     A
C101   H112    1.085   .     S
C102   C104    1.389   .     A
C102   H111    1.085   .     S
C103   C105    1.421   .     A
C103   C107    1.417   .     A
C104   C108    1.422   .     A
C104   C106    1.426   .     A
C105   C765    1.392   .     S
C106   C766    1.390   1_554 S
C107   C792    1.418   .     S
C108   C791    1.418   1_554 S
N125   Zn135   2.005   .     S
N126   Zn136   2.005   .     S
O127   Zn135   2.013   .     S
O128   Zn136   2.013   .     S
O129   Zn136   2.003   .     S
O130   Zn135   2.003   .     S
O131   Zn135   1.989   .     S
O132   Zn136   1.989   .     S
O133   Zn136   1.941   .     S
O134   Zn135   1.941   .     S
O137   C138    1.402   .     S
C138   H140    1.111   .     S
C138   H139    1.110   .     S
C138   C141    1.511   .     S
C141   H144    1.101   .     S
C141   H218    1.109   .     S
C141   H219    1.105   .     S
O145   C146    1.406   .     S
C146   H147    1.110   .     S
C146   C149    1.527   .     S
C146   H148    1.102   .     S
C149   H150    1.109   .     S
C149   H151    1.106   .     S
C149   H152    1.114   .     S
C153   O205    1.286   .     A
C153   C164    1.424   .     S
C153   O203    1.278   .     A
C154   C163    1.428   .     S
C154   O206    1.284   .     A
C154   O204    1.282   .     A
C155   H193    1.080   .     S
C155   C157    1.389   .     A
C155   C184    1.428   .     A
C156   H194    1.080   .     S
C156   C158    1.390   .     A
C156   C183    1.424   .     A
C157   H185    1.086   .     S
C157   C865    1.392   1_554 S
C158   H186    1.089   .     S
C158   C866    1.390   .     S
C159   H195    1.082   .     S
C159   C164    1.394   .     A
C159   C389    1.372   .     S
C160   H196    1.082   .     S
C160   C163    1.400   .     A
C160   C618    1.376   1_545 S
C161   O213    1.376   .     S
C161   C163    1.403   .     A
C161   C615    1.372   1_545 S
C162   C164    1.407   .     A
C162   O221    1.388   .     S
C162   C388    1.376   .     S
C165   H197    1.088   .     S
C165   N202    1.367   .     A
C165   C15     1.414   1_655 S
C166   H198    1.086   .     S
C166   N201    1.366   .     A
C167   H199    1.085   .     S
C167   N201    1.372   .     A
C168   H200    1.085   .     S
C168   N202    1.371   .     A
C168   C14     1.414   1_655 S
C169   O207    1.290   .     A
C169   C171    1.451   .     S
C169   O209    1.288   .     A
C170   O210    1.288   .     A
C170   O208    1.292   .     A
C170   C172    1.454   .     S
C171   C175    1.403   .     A
C171   C177    1.391   .     A
C172   C176    1.406   .     A
C172   C178    1.402   .     A
C173   C175    1.392   .     A
C173   C181    1.404   .     A
C173   H191    1.081   .     S
C174   H192    1.080   .     S
C174   C176    1.392   .     A
C174   C182    1.410   .     A
C175   H190    1.084   .     S
C176   H189    1.090   .     S
C177   C179    1.397   .     A
C177   H188    1.085   .     S
C178   C180    1.389   .     A
C178   H187    1.085   .     S
C179   C181    1.421   .     A
C179   C183    1.417   .     A
C180   C184    1.422   .     A
C180   C182    1.426   .     A
C181   C841    1.392   .     S
C182   C842    1.390   1_554 S
C183   C868    1.418   .     S
C184   C867    1.418   1_554 S
N201   Zn211   2.005   .     S
N202   Zn212   2.005   .     S
O203   Zn211   2.013   .     S
O204   Zn212   2.013   .     S
O205   Zn212   2.003   .     S
O206   Zn211   2.003   .     S
O207   Zn211   1.989   .     S
O208   Zn212   1.989   .     S
O209   Zn212   1.941   .     S
O210   Zn211   1.941   .     S
O213   C214    1.402   .     S
C214   H216    1.111   .     S
C214   H215    1.110   .     S
C214   C217    1.511   .     S
C217   H220    1.101   .     S
C217   H66     1.109   1_655 S
C217   H67     1.105   1_655 S
O221   C222    1.406   .     S
C222   H223    1.110   .     S
C222   C225    1.527   .     S
C222   H224    1.102   .     S
C225   H226    1.109   .     S
C225   H227    1.106   .     S
C225   H228    1.114   .     S
C229   O281    1.286   .     A
C229   C240    1.424   .     S
C229   O279    1.278   .     A
C230   C239    1.428   .     S
C230   O282    1.284   .     A
C230   O280    1.282   .     A
C231   H269    1.080   .     S
C231   C233    1.389   .     A
C231   C260    1.428   .     A
C232   H270    1.080   .     S
C232   C234    1.390   .     A
C232   C259    1.424   .     A
C233   H261    1.086   .     S
C233   C941    1.392   1_554 S
C234   H262    1.089   .     S
C234   C942    1.390   .     S
C235   H271    1.082   .     S
C235   C240    1.394   .     A
C235   C465    1.372   .     S
C236   H272    1.082   .     S
C236   C239    1.400   .     A
C237   O289    1.376   .     S
C237   C239    1.403   .     A
C238   C240    1.407   .     A
C238   O297    1.388   .     S
C238   C464    1.376   .     S
C241   H273    1.088   .     S
C241   N278    1.367   .     A
C241   C319    1.414   .     S
C242   H274    1.086   .     S
C242   N277    1.366   .     A
C242   C396    1.414   1_455 S
C243   H275    1.085   .     S
C243   N277    1.372   .     A
C243   C393    1.414   1_455 S
C244   H276    1.085   .     S
C244   N278    1.371   .     A
C244   C318    1.414   .     S
C245   O283    1.290   .     A
C245   C247    1.451   .     S
C245   O285    1.288   .     A
C246   O286    1.288   .     A
C246   O284    1.292   .     A
C246   C248    1.454   .     S
C247   C251    1.403   .     A
C247   C253    1.391   .     A
C248   C252    1.406   .     A
C248   C254    1.402   .     A
C249   C251    1.392   .     A
C249   C257    1.404   .     A
C249   H267    1.081   .     S
C250   H268    1.080   .     S
C250   C252    1.392   .     A
C250   C258    1.410   .     A
C251   H266    1.084   .     S
C252   H265    1.090   .     S
C253   C255    1.397   .     A
C253   H264    1.085   .     S
C254   C256    1.389   .     A
C254   H263    1.085   .     S
C255   C257    1.421   .     A
C255   C259    1.417   .     A
C256   C260    1.422   .     A
C256   C258    1.426   .     A
C257   C917    1.392   .     S
C258   C918    1.390   1_554 S
C259   C944    1.418   .     S
C260   C943    1.418   1_554 S
N277   Zn287   2.005   .     S
N278   Zn288   2.005   .     S
O279   Zn287   2.013   .     S
O280   Zn288   2.013   .     S
O281   Zn288   2.003   .     S
O282   Zn287   2.003   .     S
O283   Zn287   1.989   .     S
O284   Zn288   1.989   .     S
O285   Zn288   1.941   .     S
O286   Zn287   1.941   .     S
O289   C290    1.402   .     S
C290   H292    1.111   .     S
C290   H291    1.110   .     S
C290   C293    1.511   .     S
C293   H296    1.101   .     S
C293   H370    1.109   .     S
C293   H371    1.105   .     S
H294   C445    1.109   1_455 S
H295   C445    1.105   1_455 S
O297   C298    1.406   .     S
C298   H299    1.110   .     S
C298   C301    1.527   .     S
C298   H300    1.102   .     S
C301   H302    1.109   .     S
C301   H303    1.106   .     S
C301   H304    1.114   .     S
C305   O357    1.286   .     A
C305   C316    1.424   .     S
C305   O355    1.278   .     A
C306   C315    1.428   .     S
C306   O358    1.284   .     A
C306   O356    1.282   .     A
C307   H345    1.080   .     S
C307   C309    1.389   .     A
C307   C336    1.428   .     A
C308   H346    1.080   .     S
C308   C310    1.390   .     A
C308   C335    1.424   .     A
C309   H337    1.086   .     S
C309   C1017   1.392   1_554 S
C310   H338    1.089   .     S
C310   C1018   1.390   .     S
C311   H347    1.082   .     S
C311   C316    1.394   .     A
C311   C541    1.372   .     S
C312   H348    1.082   .     S
C312   C315    1.400   .     A
C313   O365    1.376   .     S
C313   C315    1.403   .     A
C314   C316    1.407   .     A
C314   O373    1.388   .     S
C314   C540    1.376   .     S
C317   H349    1.088   .     S
C317   N354    1.367   .     A
C317   C395    1.414   .     S
C318   H350    1.086   .     S
C318   N353    1.366   .     A
C319   H351    1.085   .     S
C319   N353    1.372   .     A
C320   H352    1.085   .     S
C320   N354    1.371   .     A
C320   C394    1.414   .     S
C321   O359    1.290   .     A
C321   C323    1.451   .     S
C321   O361    1.288   .     A
C322   O362    1.288   .     A
C322   O360    1.292   .     A
C322   C324    1.454   .     S
C323   C327    1.403   .     A
C323   C329    1.391   .     A
C324   C328    1.406   .     A
C324   C330    1.402   .     A
C325   C327    1.392   .     A
C325   C333    1.404   .     A
C325   H343    1.081   .     S
C326   H344    1.080   .     S
C326   C328    1.392   .     A
C326   C334    1.410   .     A
C327   H342    1.084   .     S
C328   H341    1.090   .     S
C329   C331    1.397   .     A
C329   H340    1.085   .     S
C330   C332    1.389   .     A
C330   H339    1.085   .     S
C331   C333    1.421   .     A
C331   C335    1.417   .     A
C332   C336    1.422   .     A
C332   C334    1.426   .     A
C333   C993    1.392   .     S
C334   C994    1.390   1_554 S
C335   C1020   1.418   .     S
C336   C1019   1.418   1_554 S
N353   Zn363   2.005   .     S
N354   Zn364   2.005   .     S
O355   Zn363   2.013   .     S
O356   Zn364   2.013   .     S
O357   Zn364   2.003   .     S
O358   Zn363   2.003   .     S
O359   Zn363   1.989   .     S
O360   Zn364   1.989   .     S
O361   Zn364   1.941   .     S
O362   Zn363   1.941   .     S
O365   C366    1.402   .     S
C366   H368    1.111   .     S
C366   H367    1.110   .     S
C366   C369    1.511   .     S
C369   H372    1.101   .     S
C369   H446    1.109   .     S
C369   H447    1.105   .     S
O373   C374    1.406   .     S
C374   H375    1.110   .     S
C374   C377    1.527   .     S
C374   H376    1.102   .     S
C377   H378    1.109   .     S
C377   H379    1.106   .     S
C377   H380    1.114   .     S
C381   O433    1.286   .     A
C381   C392    1.424   .     S
C381   O431    1.278   .     A
C382   C391    1.428   .     S
C382   O434    1.284   .     A
C382   O432    1.282   .     A
C383   H421    1.080   .     S
C383   C385    1.389   .     A
C383   C412    1.428   .     A
C384   H422    1.080   .     S
C384   C386    1.390   .     A
C384   C411    1.424   .     A
C385   H413    1.086   .     S
C385   C1093   1.392   1_554 S
C386   H414    1.089   .     S
C386   C1094   1.390   .     S
C387   H423    1.082   .     S
C387   C392    1.394   .     A
C387   C617    1.372   .     S
C388   H424    1.082   .     S
C388   C391    1.400   .     A
C389   O441    1.376   .     S
C389   C391    1.403   .     A
C390   C392    1.407   .     A
C390   O449    1.388   .     S
C390   C616    1.376   .     S
C393   H425    1.088   .     S
C393   N430    1.367   .     A
C393   C243    1.414   1_655 S
C394   H426    1.086   .     S
C394   N429    1.366   .     A
C395   H427    1.085   .     S
C395   N429    1.372   .     A
C396   H428    1.085   .     S
C396   N430    1.371   .     A
C396   C242    1.414   1_655 S
C397   O435    1.290   .     A
C397   C399    1.451   .     S
C397   O437    1.288   .     A
C398   O438    1.288   .     A
C398   O436    1.292   .     A
C398   C400    1.454   .     S
C399   C403    1.403   .     A
C399   C405    1.391   .     A
C400   C404    1.406   .     A
C400   C406    1.402   .     A
C401   C403    1.392   .     A
C401   C409    1.404   .     A
C401   H419    1.081   .     S
C402   H420    1.080   .     S
C402   C404    1.392   .     A
C402   C410    1.410   .     A
C403   H418    1.084   .     S
C404   H417    1.090   .     S
C405   C407    1.397   .     A
C405   H416    1.085   .     S
C406   C408    1.389   .     A
C406   H415    1.085   .     S
C407   C409    1.421   .     A
C407   C411    1.417   .     A
C408   C412    1.422   .     A
C408   C410    1.426   .     A
C409   C1069   1.392   .     S
C410   C1070   1.390   1_554 S
C411   C1096   1.418   .     S
C412   C1095   1.418   1_554 S
N429   Zn439   2.005   .     S
N430   Zn440   2.005   .     S
O431   Zn439   2.013   .     S
O432   Zn440   2.013   .     S
O433   Zn440   2.003   .     S
O434   Zn439   2.003   .     S
O435   Zn439   1.989   .     S
O436   Zn440   1.989   .     S
O437   Zn440   1.941   .     S
O438   Zn439   1.941   .     S
O441   C442    1.402   .     S
C442   H444    1.111   .     S
C442   H443    1.110   .     S
C442   C445    1.511   .     S
C445   H448    1.101   .     S
C445   H294    1.109   1_655 S
C445   H295    1.105   1_655 S
O449   C450    1.406   .     S
C450   H451    1.110   .     S
C450   C453    1.527   .     S
C450   H452    1.102   .     S
C453   H454    1.109   .     S
C453   H455    1.106   .     S
C453   H456    1.114   .     S
C457   O509    1.286   .     A
C457   C468    1.424   .     S
C457   O507    1.278   .     A
C458   C467    1.428   .     S
C458   O510    1.284   .     A
C458   O508    1.282   .     A
C459   H497    1.080   .     S
C459   C461    1.389   .     A
C459   C488    1.428   .     A
C460   H498    1.080   .     S
C460   C462    1.390   .     A
C460   C487    1.424   .     A
C461   H489    1.086   .     S
C461   C1169   1.392   1_554 S
C462   H490    1.089   .     S
C462   C1170   1.390   .     S
C463   H499    1.082   .     S
C463   C468    1.394   .     A
C463   C9      1.372   1_565 S
C464   H500    1.082   .     S
C464   C467    1.400   .     A
C465   O517    1.376   .     S
C465   C467    1.403   .     A
C466   C468    1.407   .     A
C466   O525    1.388   .     S
C466   C8      1.376   1_565 S
C469   H501    1.088   .     S
C469   N506    1.367   .     A
C469   C547    1.414   .     S
C470   H502    1.086   .     S
C470   N505    1.366   .     A
C470   C624    1.414   1_455 S
C471   H503    1.085   .     S
C471   N505    1.372   .     A
C471   C621    1.414   1_455 S
C472   H504    1.085   .     S
C472   N506    1.371   .     A
C472   C546    1.414   .     S
C473   O511    1.290   .     A
C473   C475    1.451   .     S
C473   O513    1.288   .     A
C474   O514    1.288   .     A
C474   O512    1.292   .     A
C474   C476    1.454   .     S
C475   C479    1.403   .     A
C475   C481    1.391   .     A
C476   C480    1.406   .     A
C476   C482    1.402   .     A
C477   C479    1.392   .     A
C477   C485    1.404   .     A
C477   H495    1.081   .     S
C478   H496    1.080   .     S
C478   C480    1.392   .     A
C478   C486    1.410   .     A
C479   H494    1.084   .     S
C480   H493    1.090   .     S
C481   C483    1.397   .     A
C481   H492    1.085   .     S
C482   C484    1.389   .     A
C482   H491    1.085   .     S
C483   C485    1.421   .     A
C483   C487    1.417   .     A
C484   C488    1.422   .     A
C484   C486    1.426   .     A
C485   C1145   1.392   .     S
C486   C1146   1.390   1_554 S
C487   C1172   1.418   .     S
C488   C1171   1.418   1_554 S
N505   Zn515   2.005   .     S
N506   Zn516   2.005   .     S
O507   Zn515   2.013   .     S
O508   Zn516   2.013   .     S
O509   Zn516   2.003   .     S
O510   Zn515   2.003   .     S
O511   Zn515   1.989   .     S
O512   Zn516   1.989   .     S
O513   Zn516   1.941   .     S
O514   Zn515   1.941   .     S
O517   C518    1.402   .     S
C518   H520    1.111   .     S
C518   H519    1.110   .     S
C518   C521    1.511   .     S
C521   H524    1.101   .     S
C521   H598    1.109   .     S
C521   H599    1.105   .     S
H522   C673    1.109   1_455 S
H523   C673    1.105   1_455 S
O525   C526    1.406   .     S
C526   H527    1.110   .     S
C526   C529    1.527   .     S
C526   H528    1.102   .     S
C529   H530    1.109   .     S
C529   H531    1.106   .     S
C529   H532    1.114   .     S
C533   O585    1.286   .     A
C533   C544    1.424   .     S
C533   O583    1.278   .     A
C534   C543    1.428   .     S
C534   O586    1.284   .     A
C534   O584    1.282   .     A
C535   H573    1.080   .     S
C535   C537    1.389   .     A
C535   C564    1.428   .     A
C536   H574    1.080   .     S
C536   C538    1.390   .     A
C536   C563    1.424   .     A
C537   H565    1.086   .     S
C537   C1245   1.392   1_554 S
C538   H566    1.089   .     S
C538   C1246   1.390   .     S
C539   H575    1.082   .     S
C539   C544    1.394   .     A
C539   C85     1.372   1_565 S
C540   H576    1.082   .     S
C540   C543    1.400   .     A
C541   O593    1.376   .     S
C541   C543    1.403   .     A
C542   C544    1.407   .     A
C542   O601    1.388   .     S
C542   C84     1.376   1_565 S
C545   H577    1.088   .     S
C545   N582    1.367   .     A
C545   C623    1.414   .     S
C546   H578    1.086   .     S
C546   N581    1.366   .     A
C547   H579    1.085   .     S
C547   N581    1.372   .     A
C548   H580    1.085   .     S
C548   N582    1.371   .     A
C548   C622    1.414   .     S
C549   O587    1.290   .     A
C549   C551    1.451   .     S
C549   O589    1.288   .     A
C550   O590    1.288   .     A
C550   O588    1.292   .     A
C550   C552    1.454   .     S
C551   C555    1.403   .     A
C551   C557    1.391   .     A
C552   C556    1.406   .     A
C552   C558    1.402   .     A
C553   C555    1.392   .     A
C553   C561    1.404   .     A
C553   H571    1.081   .     S
C554   H572    1.080   .     S
C554   C556    1.392   .     A
C554   C562    1.410   .     A
C555   H570    1.084   .     S
C556   H569    1.090   .     S
C557   C559    1.397   .     A
C557   H568    1.085   .     S
C558   C560    1.389   .     A
C558   H567    1.085   .     S
C559   C561    1.421   .     A
C559   C563    1.417   .     A
C560   C564    1.422   .     A
C560   C562    1.426   .     A
C561   C1221   1.392   .     S
C562   C1222   1.390   1_554 S
C563   C1248   1.418   .     S
C564   C1247   1.418   1_554 S
N581   Zn591   2.005   .     S
N582   Zn592   2.005   .     S
O583   Zn591   2.013   .     S
O584   Zn592   2.013   .     S
O585   Zn592   2.003   .     S
O586   Zn591   2.003   .     S
O587   Zn591   1.989   .     S
O588   Zn592   1.989   .     S
O589   Zn592   1.941   .     S
O590   Zn591   1.941   .     S
O593   C594    1.402   .     S
C594   H596    1.111   .     S
C594   H595    1.110   .     S
C594   C597    1.511   .     S
C597   H600    1.101   .     S
C597   H674    1.109   .     S
C597   H675    1.105   .     S
O601   C602    1.406   .     S
C602   H603    1.110   .     S
C602   C605    1.527   .     S
C602   H604    1.102   .     S
C605   H606    1.109   .     S
C605   H607    1.106   .     S
C605   H608    1.114   .     S
C609   O661    1.286   .     A
C609   C620    1.424   .     S
C609   O659    1.278   .     A
C610   C619    1.428   .     S
C610   O662    1.284   .     A
C610   O660    1.282   .     A
C611   H649    1.080   .     S
C611   C613    1.389   .     A
C611   C640    1.428   .     A
C612   H650    1.080   .     S
C612   C614    1.390   .     A
C612   C639    1.424   .     A
C613   H641    1.086   .     S
C613   C1321   1.392   1_554 S
C614   H642    1.089   .     S
C614   C1322   1.390   .     S
C615   H651    1.082   .     S
C615   C620    1.394   .     A
C615   C161    1.372   1_565 S
C616   H652    1.082   .     S
C616   C619    1.400   .     A
C617   O669    1.376   .     S
C617   C619    1.403   .     A
C618   C620    1.407   .     A
C618   O677    1.388   .     S
C618   C160    1.376   1_565 S
C621   H653    1.088   .     S
C621   N658    1.367   .     A
C621   C471    1.414   1_655 S
C622   H654    1.086   .     S
C622   N657    1.366   .     A
C623   H655    1.085   .     S
C623   N657    1.372   .     A
C624   H656    1.085   .     S
C624   N658    1.371   .     A
C624   C470    1.414   1_655 S
C625   O663    1.290   .     A
C625   C627    1.451   .     S
C625   O665    1.288   .     A
C626   O666    1.288   .     A
C626   O664    1.292   .     A
C626   C628    1.454   .     S
C627   C631    1.403   .     A
C627   C633    1.391   .     A
C628   C632    1.406   .     A
C628   C634    1.402   .     A
C629   C631    1.392   .     A
C629   C637    1.404   .     A
C629   H647    1.081   .     S
C630   H648    1.080   .     S
C630   C632    1.392   .     A
C630   C638    1.410   .     A
C631   H646    1.084   .     S
C632   H645    1.090   .     S
C633   C635    1.397   .     A
C633   H644    1.085   .     S
C634   C636    1.389   .     A
C634   H643    1.085   .     S
C635   C637    1.421   .     A
C635   C639    1.417   .     A
C636   C640    1.422   .     A
C636   C638    1.426   .     A
C637   C1297   1.392   .     S
C638   C1298   1.390   1_554 S
C639   C1324   1.418   .     S
C640   C1323   1.418   1_554 S
N657   Zn667   2.005   .     S
N658   Zn668   2.005   .     S
O659   Zn667   2.013   .     S
O660   Zn668   2.013   .     S
O661   Zn668   2.003   .     S
O662   Zn667   2.003   .     S
O663   Zn667   1.989   .     S
O664   Zn668   1.989   .     S
O665   Zn668   1.941   .     S
O666   Zn667   1.941   .     S
O669   C670    1.402   .     S
C670   H672    1.111   .     S
C670   H671    1.110   .     S
C670   C673    1.511   .     S
C673   H676    1.101   .     S
C673   H522    1.109   1_655 S
C673   H523    1.105   1_655 S
O677   C678    1.406   .     S
C678   H679    1.110   .     S
C678   C681    1.527   .     S
C678   H680    1.102   .     S
C681   H682    1.109   .     S
C681   H683    1.106   .     S
C681   H684    1.114   .     S
C685   O737    1.286   .     A
C685   C696    1.424   .     S
C685   O735    1.278   .     A
C686   C695    1.428   .     S
C686   O738    1.284   .     A
C686   O736    1.282   .     A
C687   H725    1.080   .     S
C687   C689    1.389   .     A
C687   C716    1.428   .     A
C688   H726    1.080   .     S
C688   C690    1.390   .     A
C688   C715    1.424   .     A
C689   H717    1.086   .     S
C690   H718    1.089   .     S
C690   C30     1.390   1_556 S
C691   H727    1.082   .     S
C691   C696    1.394   .     A
C691   C921    1.372   .     S
C692   H728    1.082   .     S
C692   C695    1.400   .     A
C692   C1150   1.376   1_545 S
C693   O745    1.376   .     S
C693   C695    1.403   .     A
C693   C1147   1.372   1_545 S
C694   C696    1.407   .     A
C694   O753    1.388   .     S
C694   C920    1.376   .     S
C697   H729    1.088   .     S
C697   N734    1.367   .     A
C697   C775    1.414   .     S
C698   H730    1.086   .     S
C698   N733    1.366   .     A
C698   C852    1.414   1_455 S
C699   H731    1.085   .     S
C699   N733    1.372   .     A
C699   C849    1.414   1_455 S
C700   H732    1.085   .     S
C700   N734    1.371   .     A
C700   C774    1.414   .     S
C701   O739    1.290   .     A
C701   C703    1.451   .     S
C701   O741    1.288   .     A
C702   O742    1.288   .     A
C702   O740    1.292   .     A
C702   C704    1.454   .     S
C703   C707    1.403   .     A
C703   C709    1.391   .     A
C704   C708    1.406   .     A
C704   C710    1.402   .     A
C705   C707    1.392   .     A
C705   C713    1.404   .     A
C705   H723    1.081   .     S
C706   H724    1.080   .     S
C706   C708    1.392   .     A
C706   C714    1.410   .     A
C707   H722    1.084   .     S
C708   H721    1.090   .     S
C709   C711    1.397   .     A
C709   H720    1.085   .     S
C710   C712    1.389   .     A
C710   H719    1.085   .     S
C711   C713    1.421   .     A
C711   C715    1.417   .     A
C712   C716    1.422   .     A
C712   C714    1.426   .     A
C713   C5      1.392   1_556 S
C715   C32     1.418   1_556 S
N733   Zn743   2.005   .     S
N734   Zn744   2.005   .     S
O735   Zn743   2.013   .     S
O736   Zn744   2.013   .     S
O737   Zn744   2.003   .     S
O738   Zn743   2.003   .     S
O739   Zn743   1.989   .     S
O740   Zn744   1.989   .     S
O741   Zn744   1.941   .     S
O742   Zn743   1.941   .     S
O745   C746    1.402   .     S
C746   H748    1.111   .     S
C746   H747    1.110   .     S
C746   C749    1.511   .     S
C749   H752    1.101   .     S
C749   H826    1.109   .     S
C749   H827    1.105   .     S
H750   C901    1.109   1_455 S
H751   C901    1.105   1_455 S
O753   C754    1.406   .     S
C754   H755    1.110   .     S
C754   C757    1.527   .     S
C754   H756    1.102   .     S
C757   H758    1.109   .     S
C757   H759    1.106   .     S
C757   H760    1.114   .     S
C761   O813    1.286   .     A
C761   C772    1.424   .     S
C761   O811    1.278   .     A
C762   C771    1.428   .     S
C762   O814    1.284   .     A
C762   O812    1.282   .     A
C763   H801    1.080   .     S
C763   C765    1.389   .     A
C763   C792    1.428   .     A
C764   H802    1.080   .     S
C764   C766    1.390   .     A
C764   C791    1.424   .     A
C765   H793    1.086   .     S
C766   H794    1.089   .     S
C766   C106    1.390   1_556 S
C767   H803    1.082   .     S
C767   C772    1.394   .     A
C767   C997    1.372   .     S
C768   H804    1.082   .     S
C768   C771    1.400   .     A
C768   C1226   1.376   1_545 S
C769   O821    1.376   .     S
C769   C771    1.403   .     A
C769   C1223   1.372   1_545 S
C770   C772    1.407   .     A
C770   O829    1.388   .     S
C770   C996    1.376   .     S
C773   H805    1.088   .     S
C773   N810    1.367   .     A
C773   C851    1.414   .     S
C774   H806    1.086   .     S
C774   N809    1.366   .     A
C775   H807    1.085   .     S
C775   N809    1.372   .     A
C776   H808    1.085   .     S
C776   N810    1.371   .     A
C776   C850    1.414   .     S
C777   O815    1.290   .     A
C777   C779    1.451   .     S
C777   O817    1.288   .     A
C778   O818    1.288   .     A
C778   O816    1.292   .     A
C778   C780    1.454   .     S
C779   C783    1.403   .     A
C779   C785    1.391   .     A
C780   C784    1.406   .     A
C780   C786    1.402   .     A
C781   C783    1.392   .     A
C781   C789    1.404   .     A
C781   H799    1.081   .     S
C782   H800    1.080   .     S
C782   C784    1.392   .     A
C782   C790    1.410   .     A
C783   H798    1.084   .     S
C784   H797    1.090   .     S
C785   C787    1.397   .     A
C785   H796    1.085   .     S
C786   C788    1.389   .     A
C786   H795    1.085   .     S
C787   C789    1.421   .     A
C787   C791    1.417   .     A
C788   C792    1.422   .     A
C788   C790    1.426   .     A
C789   C81     1.392   1_556 S
C791   C108    1.418   1_556 S
N809   Zn819   2.005   .     S
N810   Zn820   2.005   .     S
O811   Zn819   2.013   .     S
O812   Zn820   2.013   .     S
O813   Zn820   2.003   .     S
O814   Zn819   2.003   .     S
O815   Zn819   1.989   .     S
O816   Zn820   1.989   .     S
O817   Zn820   1.941   .     S
O818   Zn819   1.941   .     S
O821   C822    1.402   .     S
C822   H824    1.111   .     S
C822   H823    1.110   .     S
C822   C825    1.511   .     S
C825   H828    1.101   .     S
C825   H902    1.109   .     S
C825   H903    1.105   .     S
O829   C830    1.406   .     S
C830   H831    1.110   .     S
C830   C833    1.527   .     S
C830   H832    1.102   .     S
C833   H834    1.109   .     S
C833   H835    1.106   .     S
C833   H836    1.114   .     S
C837   O889    1.286   .     A
C837   C848    1.424   .     S
C837   O887    1.278   .     A
C838   C847    1.428   .     S
C838   O890    1.284   .     A
C838   O888    1.282   .     A
C839   H877    1.080   .     S
C839   C841    1.389   .     A
C839   C868    1.428   .     A
C840   H878    1.080   .     S
C840   C842    1.390   .     A
C840   C867    1.424   .     A
C841   H869    1.086   .     S
C842   H870    1.089   .     S
C842   C182    1.390   1_556 S
C843   H879    1.082   .     S
C843   C848    1.394   .     A
C843   C1073   1.372   .     S
C844   H880    1.082   .     S
C844   C847    1.400   .     A
C844   C1302   1.376   1_545 S
C845   O897    1.376   .     S
C845   C847    1.403   .     A
C845   C1299   1.372   1_545 S
C846   C848    1.407   .     A
C846   O905    1.388   .     S
C846   C1072   1.376   .     S
C849   H881    1.088   .     S
C849   N886    1.367   .     A
C849   C699    1.414   1_655 S
C850   H882    1.086   .     S
C850   N885    1.366   .     A
C851   H883    1.085   .     S
C851   N885    1.372   .     A
C852   H884    1.085   .     S
C852   N886    1.371   .     A
C852   C698    1.414   1_655 S
C853   O891    1.290   .     A
C853   C855    1.451   .     S
C853   O893    1.288   .     A
C854   O894    1.288   .     A
C854   O892    1.292   .     A
C854   C856    1.454   .     S
C855   C859    1.403   .     A
C855   C861    1.391   .     A
C856   C860    1.406   .     A
C856   C862    1.402   .     A
C857   C859    1.392   .     A
C857   C865    1.404   .     A
C857   H875    1.081   .     S
C858   H876    1.080   .     S
C858   C860    1.392   .     A
C858   C866    1.410   .     A
C859   H874    1.084   .     S
C860   H873    1.090   .     S
C861   C863    1.397   .     A
C861   H872    1.085   .     S
C862   C864    1.389   .     A
C862   H871    1.085   .     S
C863   C865    1.421   .     A
C863   C867    1.417   .     A
C864   C868    1.422   .     A
C864   C866    1.426   .     A
C865   C157    1.392   1_556 S
C867   C184    1.418   1_556 S
N885   Zn895   2.005   .     S
N886   Zn896   2.005   .     S
O887   Zn895   2.013   .     S
O888   Zn896   2.013   .     S
O889   Zn896   2.003   .     S
O890   Zn895   2.003   .     S
O891   Zn895   1.989   .     S
O892   Zn896   1.989   .     S
O893   Zn896   1.941   .     S
O894   Zn895   1.941   .     S
O897   C898    1.402   .     S
C898   H900    1.111   .     S
C898   H899    1.110   .     S
C898   C901    1.511   .     S
C901   H904    1.101   .     S
C901   H750    1.109   1_655 S
C901   H751    1.105   1_655 S
O905   C906    1.406   .     S
C906   H907    1.110   .     S
C906   C909    1.527   .     S
C906   H908    1.102   .     S
C909   H910    1.109   .     S
C909   H911    1.106   .     S
C909   H912    1.114   .     S
C913   O965    1.286   .     A
C913   C924    1.424   .     S
C913   O963    1.278   .     A
C914   C923    1.428   .     S
C914   O966    1.284   .     A
C914   O964    1.282   .     A
C915   H953    1.080   .     S
C915   C917    1.389   .     A
C915   C944    1.428   .     A
C916   H954    1.080   .     S
C916   C918    1.390   .     A
C916   C943    1.424   .     A
C917   H945    1.086   .     S
C918   H946    1.089   .     S
C918   C258    1.390   1_556 S
C919   H955    1.082   .     S
C919   C924    1.394   .     A
C919   C1149   1.372   .     S
C920   H956    1.082   .     S
C920   C923    1.400   .     A
C921   O973    1.376   .     S
C921   C923    1.403   .     A
C922   C924    1.407   .     A
C922   O981    1.388   .     S
C922   C1148   1.376   .     S
C925   H957    1.088   .     S
C925   N962    1.367   .     A
C925   C1003   1.414   .     S
C926   H958    1.086   .     S
C926   N961    1.366   .     A
C926   C1080   1.414   1_455 S
C927   H959    1.085   .     S
C927   N961    1.372   .     A
C927   C1077   1.414   1_455 S
C928   H960    1.085   .     S
C928   N962    1.371   .     A
C928   C1002   1.414   .     S
C929   O967    1.290   .     A
C929   C931    1.451   .     S
C929   O969    1.288   .     A
C930   O970    1.288   .     A
C930   O968    1.292   .     A
C930   C932    1.454   .     S
C931   C935    1.403   .     A
C931   C937    1.391   .     A
C932   C936    1.406   .     A
C932   C938    1.402   .     A
C933   C935    1.392   .     A
C933   C941    1.404   .     A
C933   H951    1.081   .     S
C934   H952    1.080   .     S
C934   C936    1.392   .     A
C934   C942    1.410   .     A
C935   H950    1.084   .     S
C936   H949    1.090   .     S
C937   C939    1.397   .     A
C937   H948    1.085   .     S
C938   C940    1.389   .     A
C938   H947    1.085   .     S
C939   C941    1.421   .     A
C939   C943    1.417   .     A
C940   C944    1.422   .     A
C940   C942    1.426   .     A
C941   C233    1.392   1_556 S
C943   C260    1.418   1_556 S
N961   Zn971   2.005   .     S
N962   Zn972   2.005   .     S
O963   Zn971   2.013   .     S
O964   Zn972   2.013   .     S
O965   Zn972   2.003   .     S
O966   Zn971   2.003   .     S
O967   Zn971   1.989   .     S
O968   Zn972   1.989   .     S
O969   Zn972   1.941   .     S
O970   Zn971   1.941   .     S
O973   C974    1.402   .     S
C974   H976    1.111   .     S
C974   H975    1.110   .     S
C974   C977    1.511   .     S
C977   H980    1.101   .     S
C977   H1054   1.109   .     S
C977   H1055   1.105   .     S
H978   C1129   1.109   1_455 S
H979   C1129   1.105   1_455 S
O981   C982    1.406   .     S
C982   H983    1.110   .     S
C982   C985    1.527   .     S
C982   H984    1.102   .     S
C985   H986    1.109   .     S
C985   H987    1.106   .     S
C985   H988    1.114   .     S
C989   O1041   1.286   .     A
C989   C1000   1.424   .     S
C989   O1039   1.278   .     A
C990   C999    1.428   .     S
C990   O1042   1.284   .     A
C990   O1040   1.282   .     A
C991   H1029   1.080   .     S
C991   C993    1.389   .     A
C991   C1020   1.428   .     A
C992   H1030   1.080   .     S
C992   C994    1.390   .     A
C992   C1019   1.424   .     A
C993   H1021   1.086   .     S
C994   H1022   1.089   .     S
C994   C334    1.390   1_556 S
C995   H1031   1.082   .     S
C995   C1000   1.394   .     A
C995   C1225   1.372   .     S
C996   H1032   1.082   .     S
C996   C999    1.400   .     A
C997   O1049   1.376   .     S
C997   C999    1.403   .     A
C998   C1000   1.407   .     A
C998   O1057   1.388   .     S
C998   C1224   1.376   .     S
C1001  H1033   1.088   .     S
C1001  N1038   1.367   .     A
C1001  C1079   1.414   .     S
C1002  H1034   1.086   .     S
C1002  N1037   1.366   .     A
C1003  H1035   1.085   .     S
C1003  N1037   1.372   .     A
C1004  H1036   1.085   .     S
C1004  N1038   1.371   .     A
C1004  C1078   1.414   .     S
C1005  O1043   1.290   .     A
C1005  C1007   1.451   .     S
C1005  O1045   1.288   .     A
C1006  O1046   1.288   .     A
C1006  O1044   1.292   .     A
C1006  C1008   1.454   .     S
C1007  C1011   1.403   .     A
C1007  C1013   1.391   .     A
C1008  C1012   1.406   .     A
C1008  C1014   1.402   .     A
C1009  C1011   1.392   .     A
C1009  C1017   1.404   .     A
C1009  H1027   1.081   .     S
C1010  H1028   1.080   .     S
C1010  C1012   1.392   .     A
C1010  C1018   1.410   .     A
C1011  H1026   1.084   .     S
C1012  H1025   1.090   .     S
C1013  C1015   1.397   .     A
C1013  H1024   1.085   .     S
C1014  C1016   1.389   .     A
C1014  H1023   1.085   .     S
C1015  C1017   1.421   .     A
C1015  C1019   1.417   .     A
C1016  C1020   1.422   .     A
C1016  C1018   1.426   .     A
C1017  C309    1.392   1_556 S
C1019  C336    1.418   1_556 S
N1037  Zn1047  2.005   .     S
N1038  Zn1048  2.005   .     S
O1039  Zn1047  2.013   .     S
O1040  Zn1048  2.013   .     S
O1041  Zn1048  2.003   .     S
O1042  Zn1047  2.003   .     S
O1043  Zn1047  1.989   .     S
O1044  Zn1048  1.989   .     S
O1045  Zn1048  1.941   .     S
O1046  Zn1047  1.941   .     S
O1049  C1050   1.402   .     S
C1050  H1052   1.111   .     S
C1050  H1051   1.110   .     S
C1050  C1053   1.511   .     S
C1053  H1056   1.101   .     S
C1053  H1130   1.109   .     S
C1053  H1131   1.105   .     S
O1057  C1058   1.406   .     S
C1058  H1059   1.110   .     S
C1058  C1061   1.527   .     S
C1058  H1060   1.102   .     S
C1061  H1062   1.109   .     S
C1061  H1063   1.106   .     S
C1061  H1064   1.114   .     S
C1065  O1117   1.286   .     A
C1065  C1076   1.424   .     S
C1065  O1115   1.278   .     A
C1066  C1075   1.428   .     S
C1066  O1118   1.284   .     A
C1066  O1116   1.282   .     A
C1067  H1105   1.080   .     S
C1067  C1069   1.389   .     A
C1067  C1096   1.428   .     A
C1068  H1106   1.080   .     S
C1068  C1070   1.390   .     A
C1068  C1095   1.424   .     A
C1069  H1097   1.086   .     S
C1070  H1098   1.089   .     S
C1070  C410    1.390   1_556 S
C1071  H1107   1.082   .     S
C1071  C1076   1.394   .     A
C1071  C1301   1.372   .     S
C1072  H1108   1.082   .     S
C1072  C1075   1.400   .     A
C1073  O1125   1.376   .     S
C1073  C1075   1.403   .     A
C1074  C1076   1.407   .     A
C1074  O1133   1.388   .     S
C1074  C1300   1.376   .     S
C1077  H1109   1.088   .     S
C1077  N1114   1.367   .     A
C1077  C927    1.414   1_655 S
C1078  H1110   1.086   .     S
C1078  N1113   1.366   .     A
C1079  H1111   1.085   .     S
C1079  N1113   1.372   .     A
C1080  H1112   1.085   .     S
C1080  N1114   1.371   .     A
C1080  C926    1.414   1_655 S
C1081  O1119   1.290   .     A
C1081  C1083   1.451   .     S
C1081  O1121   1.288   .     A
C1082  O1122   1.288   .     A
C1082  O1120   1.292   .     A
C1082  C1084   1.454   .     S
C1083  C1087   1.403   .     A
C1083  C1089   1.391   .     A
C1084  C1088   1.406   .     A
C1084  C1090   1.402   .     A
C1085  C1087   1.392   .     A
C1085  C1093   1.404   .     A
C1085  H1103   1.081   .     S
C1086  H1104   1.080   .     S
C1086  C1088   1.392   .     A
C1086  C1094   1.410   .     A
C1087  H1102   1.084   .     S
C1088  H1101   1.090   .     S
C1089  C1091   1.397   .     A
C1089  H1100   1.085   .     S
C1090  C1092   1.389   .     A
C1090  H1099   1.085   .     S
C1091  C1093   1.421   .     A
C1091  C1095   1.417   .     A
C1092  C1096   1.422   .     A
C1092  C1094   1.426   .     A
C1093  C385    1.392   1_556 S
C1095  C412    1.418   1_556 S
N1113  Zn1123  2.005   .     S
N1114  Zn1124  2.005   .     S
O1115  Zn1123  2.013   .     S
O1116  Zn1124  2.013   .     S
O1117  Zn1124  2.003   .     S
O1118  Zn1123  2.003   .     S
O1119  Zn1123  1.989   .     S
O1120  Zn1124  1.989   .     S
O1121  Zn1124  1.941   .     S
O1122  Zn1123  1.941   .     S
O1125  C1126   1.402   .     S
C1126  H1128   1.111   .     S
C1126  H1127   1.110   .     S
C1126  C1129   1.511   .     S
C1129  H1132   1.101   .     S
C1129  H978    1.109   1_655 S
C1129  H979    1.105   1_655 S
O1133  C1134   1.406   .     S
C1134  H1135   1.110   .     S
C1134  C1137   1.527   .     S
C1134  H1136   1.102   .     S
C1137  H1138   1.109   .     S
C1137  H1139   1.106   .     S
C1137  H1140   1.114   .     S
C1141  O1193   1.286   .     A
C1141  C1152   1.424   .     S
C1141  O1191   1.278   .     A
C1142  C1151   1.428   .     S
C1142  O1194   1.284   .     A
C1142  O1192   1.282   .     A
C1143  H1181   1.080   .     S
C1143  C1145   1.389   .     A
C1143  C1172   1.428   .     A
C1144  H1182   1.080   .     S
C1144  C1146   1.390   .     A
C1144  C1171   1.424   .     A
C1145  H1173   1.086   .     S
C1146  H1174   1.089   .     S
C1146  C486    1.390   1_556 S
C1147  H1183   1.082   .     S
C1147  C1152   1.394   .     A
C1147  C693    1.372   1_565 S
C1148  H1184   1.082   .     S
C1148  C1151   1.400   .     A
C1149  O1201   1.376   .     S
C1149  C1151   1.403   .     A
C1150  C1152   1.407   .     A
C1150  O1209   1.388   .     S
C1150  C692    1.376   1_565 S
C1153  H1185   1.088   .     S
C1153  N1190   1.367   .     A
C1153  C1231   1.414   .     S
C1154  H1186   1.086   .     S
C1154  N1189   1.366   .     A
C1154  C1308   1.414   1_455 S
C1155  H1187   1.085   .     S
C1155  N1189   1.372   .     A
C1155  C1305   1.414   1_455 S
C1156  H1188   1.085   .     S
C1156  N1190   1.371   .     A
C1156  C1230   1.414   .     S
C1157  O1195   1.290   .     A
C1157  C1159   1.451   .     S
C1157  O1197   1.288   .     A
C1158  O1198   1.288   .     A
C1158  O1196   1.292   .     A
C1158  C1160   1.454   .     S
C1159  C1163   1.403   .     A
C1159  C1165   1.391   .     A
C1160  C1164   1.406   .     A
C1160  C1166   1.402   .     A
C1161  C1163   1.392   .     A
C1161  C1169   1.404   .     A
C1161  H1179   1.081   .     S
C1162  H1180   1.080   .     S
C1162  C1164   1.392   .     A
C1162  C1170   1.410   .     A
C1163  H1178   1.084   .     S
C1164  H1177   1.090   .     S
C1165  C1167   1.397   .     A
C1165  H1176   1.085   .     S
C1166  C1168   1.389   .     A
C1166  H1175   1.085   .     S
C1167  C1169   1.421   .     A
C1167  C1171   1.417   .     A
C1168  C1172   1.422   .     A
C1168  C1170   1.426   .     A
C1169  C461    1.392   1_556 S
C1171  C488    1.418   1_556 S
N1189  Zn1199  2.005   .     S
N1190  Zn1200  2.005   .     S
O1191  Zn1199  2.013   .     S
O1192  Zn1200  2.013   .     S
O1193  Zn1200  2.003   .     S
O1194  Zn1199  2.003   .     S
O1195  Zn1199  1.989   .     S
O1196  Zn1200  1.989   .     S
O1197  Zn1200  1.941   .     S
O1198  Zn1199  1.941   .     S
O1201  C1202   1.402   .     S
C1202  H1204   1.111   .     S
C1202  H1203   1.110   .     S
C1202  C1205   1.511   .     S
C1205  H1208   1.101   .     S
C1205  H1282   1.109   .     S
C1205  H1283   1.105   .     S
H1206  C1357   1.109   1_455 S
H1207  C1357   1.105   1_455 S
O1209  C1210   1.406   .     S
C1210  H1211   1.110   .     S
C1210  C1213   1.527   .     S
C1210  H1212   1.102   .     S
C1213  H1214   1.109   .     S
C1213  H1215   1.106   .     S
C1213  H1216   1.114   .     S
C1217  O1269   1.286   .     A
C1217  C1228   1.424   .     S
C1217  O1267   1.278   .     A
C1218  C1227   1.428   .     S
C1218  O1270   1.284   .     A
C1218  O1268   1.282   .     A
C1219  H1257   1.080   .     S
C1219  C1221   1.389   .     A
C1219  C1248   1.428   .     A
C1220  H1258   1.080   .     S
C1220  C1222   1.390   .     A
C1220  C1247   1.424   .     A
C1221  H1249   1.086   .     S
C1222  H1250   1.089   .     S
C1222  C562    1.390   1_556 S
C1223  H1259   1.082   .     S
C1223  C1228   1.394   .     A
C1223  C769    1.372   1_565 S
C1224  H1260   1.082   .     S
C1224  C1227   1.400   .     A
C1225  O1277   1.376   .     S
C1225  C1227   1.403   .     A
C1226  C1228   1.407   .     A
C1226  O1285   1.388   .     S
C1226  C768    1.376   1_565 S
C1229  H1261   1.088   .     S
C1229  N1266   1.367   .     A
C1229  C1307   1.414   .     S
C1230  H1262   1.086   .     S
C1230  N1265   1.366   .     A
C1231  H1263   1.085   .     S
C1231  N1265   1.372   .     A
C1232  H1264   1.085   .     S
C1232  N1266   1.371   .     A
C1232  C1306   1.414   .     S
C1233  O1271   1.290   .     A
C1233  C1235   1.451   .     S
C1233  O1273   1.288   .     A
C1234  O1274   1.288   .     A
C1234  O1272   1.292   .     A
C1234  C1236   1.454   .     S
C1235  C1239   1.403   .     A
C1235  C1241   1.391   .     A
C1236  C1240   1.406   .     A
C1236  C1242   1.402   .     A
C1237  C1239   1.392   .     A
C1237  C1245   1.404   .     A
C1237  H1255   1.081   .     S
C1238  H1256   1.080   .     S
C1238  C1240   1.392   .     A
C1238  C1246   1.410   .     A
C1239  H1254   1.084   .     S
C1240  H1253   1.090   .     S
C1241  C1243   1.397   .     A
C1241  H1252   1.085   .     S
C1242  C1244   1.389   .     A
C1242  H1251   1.085   .     S
C1243  C1245   1.421   .     A
C1243  C1247   1.417   .     A
C1244  C1248   1.422   .     A
C1244  C1246   1.426   .     A
C1245  C537    1.392   1_556 S
C1247  C564    1.418   1_556 S
N1265  Zn1275  2.005   .     S
N1266  Zn1276  2.005   .     S
O1267  Zn1275  2.013   .     S
O1268  Zn1276  2.013   .     S
O1269  Zn1276  2.003   .     S
O1270  Zn1275  2.003   .     S
O1271  Zn1275  1.989   .     S
O1272  Zn1276  1.989   .     S
O1273  Zn1276  1.941   .     S
O1274  Zn1275  1.941   .     S
O1277  C1278   1.402   .     S
C1278  H1280   1.111   .     S
C1278  H1279   1.110   .     S
C1278  C1281   1.511   .     S
C1281  H1284   1.101   .     S
C1281  H1358   1.109   .     S
C1281  H1359   1.105   .     S
O1285  C1286   1.406   .     S
C1286  H1287   1.110   .     S
C1286  C1289   1.527   .     S
C1286  H1288   1.102   .     S
C1289  H1290   1.109   .     S
C1289  H1291   1.106   .     S
C1289  H1292   1.114   .     S
C1293  O1345   1.286   .     A
C1293  C1304   1.424   .     S
C1293  O1343   1.278   .     A
C1294  C1303   1.428   .     S
C1294  O1346   1.284   .     A
C1294  O1344   1.282   .     A
C1295  H1333   1.080   .     S
C1295  C1297   1.389   .     A
C1295  C1324   1.428   .     A
C1296  H1334   1.080   .     S
C1296  C1298   1.390   .     A
C1296  C1323   1.424   .     A
C1297  H1325   1.086   .     S
C1298  H1326   1.089   .     S
C1298  C638    1.390   1_556 S
C1299  H1335   1.082   .     S
C1299  C1304   1.394   .     A
C1299  C845    1.372   1_565 S
C1300  H1336   1.082   .     S
C1300  C1303   1.400   .     A
C1301  O1353   1.376   .     S
C1301  C1303   1.403   .     A
C1302  C1304   1.407   .     A
C1302  O1361   1.388   .     S
C1302  C844    1.376   1_565 S
C1305  H1337   1.088   .     S
C1305  N1342   1.367   .     A
C1305  C1155   1.414   1_655 S
C1306  H1338   1.086   .     S
C1306  N1341   1.366   .     A
C1307  H1339   1.085   .     S
C1307  N1341   1.372   .     A
C1308  H1340   1.085   .     S
C1308  N1342   1.371   .     A
C1308  C1154   1.414   1_655 S
C1309  O1347   1.290   .     A
C1309  C1311   1.451   .     S
C1309  O1349   1.288   .     A
C1310  O1350   1.288   .     A
C1310  O1348   1.292   .     A
C1310  C1312   1.454   .     S
C1311  C1315   1.403   .     A
C1311  C1317   1.391   .     A
C1312  C1316   1.406   .     A
C1312  C1318   1.402   .     A
C1313  C1315   1.392   .     A
C1313  C1321   1.404   .     A
C1313  H1331   1.081   .     S
C1314  H1332   1.080   .     S
C1314  C1316   1.392   .     A
C1314  C1322   1.410   .     A
C1315  H1330   1.084   .     S
C1316  H1329   1.090   .     S
C1317  C1319   1.397   .     A
C1317  H1328   1.085   .     S
C1318  C1320   1.389   .     A
C1318  H1327   1.085   .     S
C1319  C1321   1.421   .     A
C1319  C1323   1.417   .     A
C1320  C1324   1.422   .     A
C1320  C1322   1.426   .     A
C1321  C613    1.392   1_556 S
C1323  C640    1.418   1_556 S
N1341  Zn1351  2.005   .     S
N1342  Zn1352  2.005   .     S
O1343  Zn1351  2.013   .     S
O1344  Zn1352  2.013   .     S
O1345  Zn1352  2.003   .     S
O1346  Zn1351  2.003   .     S
O1347  Zn1351  1.989   .     S
O1348  Zn1352  1.989   .     S
O1349  Zn1352  1.941   .     S
O1350  Zn1351  1.941   .     S
O1353  C1354   1.402   .     S
C1354  H1356   1.111   .     S
C1354  H1355   1.110   .     S
C1354  C1357   1.511   .     S
C1357  H1360   1.101   .     S
C1357  H1206   1.109   1_655 S
C1357  H1207   1.105   1_655 S
O1361  C1362   1.406   .     S
C1362  H1363   1.110   .     S
C1362  C1365   1.527   .     S
C1362  H1364   1.102   .     S
C1365  H1366   1.109   .     S
C1365  H1367   1.106   .     S
C1365  H1368   1.114   .     S
