data_str_m3_o10_o17_pcu_sym.38
_audit_creation_date              2020-01-03
_audit_creation_method            'Materials Studio'
_symmetry_space_group_name_H-M    'P1'
_symmetry_Int_Tables_number       1
_symmetry_cell_setting            triclinic
loop_
_symmetry_equiv_pos_as_xyz
  x,y,z
_cell_length_a                    23.3116
_cell_length_b                    25.6848
_cell_length_c                    29.7785
_cell_angle_alpha                 90.7815
_cell_angle_beta                  86.2600
_cell_angle_gamma                 93.6749
loop_
_atom_site_label
_atom_site_type_symbol
_atom_site_fract_x
_atom_site_fract_y
_atom_site_fract_z
_atom_site_U_iso_or_equiv
_atom_site_adp_type
_atom_site_occupancy
C1     C     0.18192   0.26490   0.24879   0.00000  Uiso   1.00
C2     C     0.18671   0.21472   0.40632   0.00000  Uiso   1.00
C3     C     0.16314   0.16503   0.11623   0.00000  Uiso   1.00
C4     C     0.17019   0.16831   0.38377   0.00000  Uiso   1.00
C5     C     0.18088   0.21075   0.09372   0.00000  Uiso   1.00
C6     C     0.15246   0.12258   0.40628   0.00000  Uiso   1.00
C7     C     0.18232   0.21173   0.04741   0.00000  Uiso   1.00
C8     C     0.15102   0.12160   0.45259   0.00000  Uiso   1.00
C9     C     0.16589   0.16600   0.02349   0.00000  Uiso   1.00
C10    C     0.16744   0.16734   0.47651   0.00000  Uiso   1.00
C11    C     0.14796   0.11902   0.04649   0.00000  Uiso   1.00
C12    C     0.15141   0.06844   0.25121   0.00000  Uiso   1.00
C13    C     0.18537   0.21431   0.45351   0.00000  Uiso   1.00
C14    C     0.20043   0.25777   0.02485   0.00000  Uiso   1.00
C15    C     0.13291   0.07556   0.47515   0.00000  Uiso   1.00
C16    C     0.13007   0.07024   0.11957   0.00000  Uiso   1.00
C17    C     0.20326   0.26310   0.38043   0.00000  Uiso   1.00
C18    C     0.20226   0.25908   0.47830   0.00000  Uiso   1.00
C19    C     0.13108   0.07425   0.02171   0.00000  Uiso   1.00
C20    C     0.18995   0.31942   0.24819   0.00000  Uiso   1.00
C21    C     0.14338   0.01392   0.25181   0.00000  Uiso   1.00
C22    C     0.16772   0.16720   0.33628   0.00000  Uiso   1.00
C23    C     0.16561   0.16613   0.16372   0.00000  Uiso   1.00
C24    C     0.14663   0.11862   0.09368   0.00000  Uiso   1.00
H25    H     0.19412   0.24548   0.11255   0.00000  Uiso   1.00
H26    H     0.32879   0.20568   0.28387   0.00000  Uiso   1.00
H27    H     0.14606   0.32906   0.13169   0.00000  Uiso   1.00
H28    H     0.18728   0.00428   0.36832   0.00000  Uiso   1.00
H29    H     0.13921   0.08785   0.38745   0.00000  Uiso   1.00
H30    H     0.21348   0.29280   0.04324   0.00000  Uiso   1.00
H31    H     0.11986   0.04053   0.45676   0.00000  Uiso   1.00
H32    H     0.21742   0.29530   0.46214   0.00000  Uiso   1.00
H33    H     0.11592   0.03803   0.03786   0.00000  Uiso   1.00
H34    H     0.23394   0.00313   0.24481   0.00000  Uiso   1.00
H35    H     0.09940   0.33020   0.25519   0.00000  Uiso   1.00
H36    H     0.00454   0.12765   0.21613   0.00000  Uiso   1.00
N37    N     0.31678   0.15265   0.23783   0.00000  Uiso   1.00
N38    N     0.01656   0.18068   0.26217   0.00000  Uiso   1.00
O39    O     0.12975   0.24619   0.25299   0.00000  Uiso   1.00
O40    O     0.16113   0.02588   0.11171   0.00000  Uiso   1.00
O41    O     0.24355   0.26380   0.35196   0.00000  Uiso   1.00
O42    O     0.17221   0.30745   0.38829   0.00000  Uiso   1.00
O43    O     0.20358   0.08714   0.24702   0.00000  Uiso   1.00
O44    O     0.22613   0.23721   0.24519   0.00000  Uiso   1.00
O45    O     0.10720   0.09613   0.25482   0.00000  Uiso   1.00
O46    O     0.11847   0.17117   0.31998   0.00000  Uiso   1.00
O47    O     0.21486   0.16216   0.18003   0.00000  Uiso   1.00
O48    O     0.21485   0.16219   0.31218   0.00000  Uiso   1.00
O49    O     0.11848   0.17115   0.18783   0.00000  Uiso   1.00
O50    O     0.08978   0.06953   0.14803   0.00000  Uiso   1.00
Zn51   Zn    0.10231   0.17266   0.25521   0.00000  Uiso   1.00
Zn52   Zn    0.23102   0.16067   0.24479   0.00000  Uiso   1.00
C53    C     0.51526   0.26490   0.24879   0.00000  Uiso   1.00
C54    C     0.52004   0.21472   0.40632   0.00000  Uiso   1.00
C55    C     0.49647   0.16503   0.11623   0.00000  Uiso   1.00
C56    C     0.50353   0.16831   0.38377   0.00000  Uiso   1.00
C57    C     0.51421   0.21075   0.09372   0.00000  Uiso   1.00
C58    C     0.48579   0.12258   0.40628   0.00000  Uiso   1.00
C59    C     0.51565   0.21173   0.04741   0.00000  Uiso   1.00
C60    C     0.48435   0.12160   0.45259   0.00000  Uiso   1.00
C61    C     0.49923   0.16600   0.02349   0.00000  Uiso   1.00
C62    C     0.50078   0.16734   0.47651   0.00000  Uiso   1.00
C63    C     0.48130   0.11902   0.04649   0.00000  Uiso   1.00
C64    C     0.48474   0.06844   0.25121   0.00000  Uiso   1.00
C65    C     0.51871   0.21431   0.45351   0.00000  Uiso   1.00
C66    C     0.53376   0.25777   0.02485   0.00000  Uiso   1.00
C67    C     0.46624   0.07556   0.47515   0.00000  Uiso   1.00
C68    C     0.46340   0.07024   0.11957   0.00000  Uiso   1.00
C69    C     0.53660   0.26310   0.38043   0.00000  Uiso   1.00
C70    C     0.53559   0.25908   0.47830   0.00000  Uiso   1.00
C71    C     0.46441   0.07425   0.02171   0.00000  Uiso   1.00
C72    C     0.52329   0.31942   0.24819   0.00000  Uiso   1.00
C73    C     0.47671   0.01392   0.25181   0.00000  Uiso   1.00
C74    C     0.50106   0.16720   0.33628   0.00000  Uiso   1.00
C75    C     0.49894   0.16613   0.16372   0.00000  Uiso   1.00
C76    C     0.47996   0.11862   0.09368   0.00000  Uiso   1.00
H77    H     0.52745   0.24548   0.11255   0.00000  Uiso   1.00
H78    H     0.66213   0.20568   0.28387   0.00000  Uiso   1.00
H79    H     0.47939   0.32906   0.13169   0.00000  Uiso   1.00
H80    H     0.52061   0.00428   0.36832   0.00000  Uiso   1.00
H81    H     0.47255   0.08785   0.38745   0.00000  Uiso   1.00
H82    H     0.54681   0.29280   0.04324   0.00000  Uiso   1.00
H83    H     0.45319   0.04053   0.45676   0.00000  Uiso   1.00
H84    H     0.55075   0.29530   0.46214   0.00000  Uiso   1.00
H85    H     0.44925   0.03803   0.03786   0.00000  Uiso   1.00
H86    H     0.56727   0.00313   0.24481   0.00000  Uiso   1.00
H87    H     0.43273   0.33020   0.25519   0.00000  Uiso   1.00
H88    H     0.33787   0.12765   0.21613   0.00000  Uiso   1.00
N89    N     0.65011   0.15265   0.23783   0.00000  Uiso   1.00
N90    N     0.34989   0.18068   0.26217   0.00000  Uiso   1.00
O91    O     0.46308   0.24619   0.25299   0.00000  Uiso   1.00
O92    O     0.49447   0.02588   0.11171   0.00000  Uiso   1.00
O93    O     0.57688   0.26380   0.35196   0.00000  Uiso   1.00
O94    O     0.50554   0.30745   0.38829   0.00000  Uiso   1.00
O95    O     0.53692   0.08714   0.24702   0.00000  Uiso   1.00
O96    O     0.55946   0.23721   0.24519   0.00000  Uiso   1.00
O97    O     0.44054   0.09613   0.25482   0.00000  Uiso   1.00
O98    O     0.45181   0.17117   0.31998   0.00000  Uiso   1.00
O99    O     0.54819   0.16216   0.18003   0.00000  Uiso   1.00
O100   O     0.54819   0.16219   0.31218   0.00000  Uiso   1.00
O101   O     0.45181   0.17115   0.18783   0.00000  Uiso   1.00
O102   O     0.42311   0.06953   0.14803   0.00000  Uiso   1.00
Zn103  Zn    0.43565   0.17266   0.25521   0.00000  Uiso   1.00
Zn104  Zn    0.56435   0.16067   0.24479   0.00000  Uiso   1.00
C105   C     0.84859   0.26490   0.24879   0.00000  Uiso   1.00
C106   C     0.85337   0.21472   0.40632   0.00000  Uiso   1.00
C107   C     0.82981   0.16503   0.11623   0.00000  Uiso   1.00
C108   C     0.83686   0.16831   0.38377   0.00000  Uiso   1.00
C109   C     0.84755   0.21075   0.09372   0.00000  Uiso   1.00
C110   C     0.81912   0.12258   0.40628   0.00000  Uiso   1.00
C111   C     0.84898   0.21173   0.04741   0.00000  Uiso   1.00
C112   C     0.81769   0.12160   0.45259   0.00000  Uiso   1.00
C113   C     0.83256   0.16600   0.02349   0.00000  Uiso   1.00
C114   C     0.83411   0.16734   0.47651   0.00000  Uiso   1.00
C115   C     0.81463   0.11902   0.04649   0.00000  Uiso   1.00
C116   C     0.81808   0.06844   0.25121   0.00000  Uiso   1.00
C117   C     0.85204   0.21431   0.45351   0.00000  Uiso   1.00
C118   C     0.86709   0.25777   0.02485   0.00000  Uiso   1.00
C119   C     0.79958   0.07556   0.47515   0.00000  Uiso   1.00
C120   C     0.79674   0.07024   0.11957   0.00000  Uiso   1.00
C121   C     0.86993   0.26310   0.38043   0.00000  Uiso   1.00
C122   C     0.86892   0.25908   0.47830   0.00000  Uiso   1.00
C123   C     0.79775   0.07425   0.02171   0.00000  Uiso   1.00
C124   C     0.85662   0.31942   0.24819   0.00000  Uiso   1.00
C125   C     0.81005   0.01392   0.25181   0.00000  Uiso   1.00
C126   C     0.83439   0.16720   0.33628   0.00000  Uiso   1.00
C127   C     0.83228   0.16613   0.16372   0.00000  Uiso   1.00
C128   C     0.81329   0.11862   0.09368   0.00000  Uiso   1.00
H129   H     0.86079   0.24548   0.11255   0.00000  Uiso   1.00
H130   H     0.99546   0.20568   0.28387   0.00000  Uiso   1.00
H131   H     0.81273   0.32906   0.13169   0.00000  Uiso   1.00
H132   H     0.85395   0.00428   0.36832   0.00000  Uiso   1.00
H133   H     0.80588   0.08785   0.38745   0.00000  Uiso   1.00
H134   H     0.88014   0.29280   0.04324   0.00000  Uiso   1.00
H135   H     0.78653   0.04053   0.45676   0.00000  Uiso   1.00
H136   H     0.88408   0.29530   0.46214   0.00000  Uiso   1.00
H137   H     0.78259   0.03803   0.03786   0.00000  Uiso   1.00
H138   H     0.90060   0.00313   0.24481   0.00000  Uiso   1.00
H139   H     0.76606   0.33020   0.25519   0.00000  Uiso   1.00
H140   H     0.67121   0.12765   0.21613   0.00000  Uiso   1.00
N141   N     0.98344   0.15265   0.23783   0.00000  Uiso   1.00
N142   N     0.68322   0.18068   0.26217   0.00000  Uiso   1.00
O143   O     0.79642   0.24619   0.25299   0.00000  Uiso   1.00
O144   O     0.82780   0.02588   0.11171   0.00000  Uiso   1.00
O145   O     0.91021   0.26380   0.35196   0.00000  Uiso   1.00
O146   O     0.83887   0.30745   0.38829   0.00000  Uiso   1.00
O147   O     0.87025   0.08714   0.24702   0.00000  Uiso   1.00
O148   O     0.89280   0.23721   0.24519   0.00000  Uiso   1.00
O149   O     0.77387   0.09613   0.25482   0.00000  Uiso   1.00
O150   O     0.78514   0.17117   0.31998   0.00000  Uiso   1.00
O151   O     0.88153   0.16216   0.18003   0.00000  Uiso   1.00
O152   O     0.88152   0.16219   0.31218   0.00000  Uiso   1.00
O153   O     0.78515   0.17115   0.18783   0.00000  Uiso   1.00
O154   O     0.75645   0.06953   0.14803   0.00000  Uiso   1.00
Zn155  Zn    0.76898   0.17266   0.25521   0.00000  Uiso   1.00
Zn156  Zn    0.89769   0.16067   0.24479   0.00000  Uiso   1.00
C157   C     0.18192   0.59823   0.24879   0.00000  Uiso   1.00
C158   C     0.18671   0.54805   0.40632   0.00000  Uiso   1.00
C159   C     0.16314   0.49836   0.11623   0.00000  Uiso   1.00
C160   C     0.17019   0.50164   0.38377   0.00000  Uiso   1.00
C161   C     0.18088   0.54408   0.09372   0.00000  Uiso   1.00
C162   C     0.15246   0.45592   0.40628   0.00000  Uiso   1.00
C163   C     0.18232   0.54506   0.04741   0.00000  Uiso   1.00
C164   C     0.15102   0.45494   0.45259   0.00000  Uiso   1.00
C165   C     0.16589   0.49933   0.02349   0.00000  Uiso   1.00
C166   C     0.16744   0.50067   0.47651   0.00000  Uiso   1.00
C167   C     0.14796   0.45235   0.04649   0.00000  Uiso   1.00
C168   C     0.15141   0.40177   0.25121   0.00000  Uiso   1.00
C169   C     0.18537   0.54765   0.45351   0.00000  Uiso   1.00
C170   C     0.20043   0.59110   0.02485   0.00000  Uiso   1.00
C171   C     0.13291   0.40890   0.47515   0.00000  Uiso   1.00
C172   C     0.13007   0.40357   0.11957   0.00000  Uiso   1.00
C173   C     0.20326   0.59643   0.38043   0.00000  Uiso   1.00
C174   C     0.20226   0.59242   0.47830   0.00000  Uiso   1.00
C175   C     0.13108   0.40758   0.02171   0.00000  Uiso   1.00
C176   C     0.18995   0.65275   0.24819   0.00000  Uiso   1.00
C177   C     0.14338   0.34725   0.25181   0.00000  Uiso   1.00
C178   C     0.16772   0.50053   0.33628   0.00000  Uiso   1.00
C179   C     0.16561   0.49947   0.16372   0.00000  Uiso   1.00
C180   C     0.14663   0.45195   0.09368   0.00000  Uiso   1.00
H181   H     0.19412   0.57881   0.11255   0.00000  Uiso   1.00
H182   H     0.32879   0.53901   0.28387   0.00000  Uiso   1.00
H183   H     0.14606   0.66239   0.13169   0.00000  Uiso   1.00
H184   H     0.18728   0.33761   0.36832   0.00000  Uiso   1.00
H185   H     0.13921   0.42119   0.38745   0.00000  Uiso   1.00
H186   H     0.21348   0.62613   0.04324   0.00000  Uiso   1.00
H187   H     0.11986   0.37387   0.45676   0.00000  Uiso   1.00
H188   H     0.21742   0.62863   0.46214   0.00000  Uiso   1.00
H189   H     0.11592   0.37137   0.03786   0.00000  Uiso   1.00
H190   H     0.23394   0.33646   0.24481   0.00000  Uiso   1.00
H191   H     0.09940   0.66354   0.25519   0.00000  Uiso   1.00
H192   H     0.00454   0.46099   0.21613   0.00000  Uiso   1.00
N193   N     0.31678   0.48598   0.23783   0.00000  Uiso   1.00
N194   N     0.01656   0.51402   0.26217   0.00000  Uiso   1.00
O195   O     0.12975   0.57952   0.25299   0.00000  Uiso   1.00
O196   O     0.16113   0.35922   0.11171   0.00000  Uiso   1.00
O197   O     0.24355   0.59713   0.35196   0.00000  Uiso   1.00
O198   O     0.17221   0.64079   0.38829   0.00000  Uiso   1.00
O199   O     0.20358   0.42048   0.24702   0.00000  Uiso   1.00
O200   O     0.22613   0.57054   0.24519   0.00000  Uiso   1.00
O201   O     0.10720   0.42946   0.25482   0.00000  Uiso   1.00
O202   O     0.11847   0.50450   0.31998   0.00000  Uiso   1.00
O203   O     0.21486   0.49550   0.18003   0.00000  Uiso   1.00
O204   O     0.21485   0.49552   0.31218   0.00000  Uiso   1.00
O205   O     0.11848   0.50448   0.18783   0.00000  Uiso   1.00
O206   O     0.08978   0.40286   0.14803   0.00000  Uiso   1.00
Zn207  Zn    0.10231   0.50600   0.25521   0.00000  Uiso   1.00
Zn208  Zn    0.23102   0.49400   0.24479   0.00000  Uiso   1.00
C209   C     0.51526   0.59823   0.24879   0.00000  Uiso   1.00
C210   C     0.52004   0.54805   0.40632   0.00000  Uiso   1.00
C211   C     0.49647   0.49836   0.11623   0.00000  Uiso   1.00
C212   C     0.50353   0.50164   0.38377   0.00000  Uiso   1.00
C213   C     0.51421   0.54408   0.09372   0.00000  Uiso   1.00
C214   C     0.48579   0.45592   0.40628   0.00000  Uiso   1.00
C215   C     0.51565   0.54506   0.04741   0.00000  Uiso   1.00
C216   C     0.48435   0.45494   0.45259   0.00000  Uiso   1.00
C217   C     0.49923   0.49933   0.02349   0.00000  Uiso   1.00
C218   C     0.50078   0.50067   0.47651   0.00000  Uiso   1.00
C219   C     0.48130   0.45235   0.04649   0.00000  Uiso   1.00
C220   C     0.48474   0.40177   0.25121   0.00000  Uiso   1.00
C221   C     0.51871   0.54765   0.45351   0.00000  Uiso   1.00
C222   C     0.53376   0.59110   0.02485   0.00000  Uiso   1.00
C223   C     0.46624   0.40890   0.47515   0.00000  Uiso   1.00
C224   C     0.46340   0.40357   0.11957   0.00000  Uiso   1.00
C225   C     0.53660   0.59643   0.38043   0.00000  Uiso   1.00
C226   C     0.53559   0.59242   0.47830   0.00000  Uiso   1.00
C227   C     0.46441   0.40758   0.02171   0.00000  Uiso   1.00
C228   C     0.52329   0.65275   0.24819   0.00000  Uiso   1.00
C229   C     0.47671   0.34725   0.25181   0.00000  Uiso   1.00
C230   C     0.50106   0.50053   0.33628   0.00000  Uiso   1.00
C231   C     0.49894   0.49947   0.16372   0.00000  Uiso   1.00
C232   C     0.47996   0.45195   0.09368   0.00000  Uiso   1.00
H233   H     0.52745   0.57881   0.11255   0.00000  Uiso   1.00
H234   H     0.66213   0.53901   0.28387   0.00000  Uiso   1.00
H235   H     0.47939   0.66239   0.13169   0.00000  Uiso   1.00
H236   H     0.52061   0.33761   0.36832   0.00000  Uiso   1.00
H237   H     0.47255   0.42119   0.38745   0.00000  Uiso   1.00
H238   H     0.54681   0.62613   0.04324   0.00000  Uiso   1.00
H239   H     0.45319   0.37387   0.45676   0.00000  Uiso   1.00
H240   H     0.55075   0.62863   0.46214   0.00000  Uiso   1.00
H241   H     0.44925   0.37137   0.03786   0.00000  Uiso   1.00
H242   H     0.56727   0.33646   0.24481   0.00000  Uiso   1.00
H243   H     0.43273   0.66354   0.25519   0.00000  Uiso   1.00
H244   H     0.33787   0.46099   0.21613   0.00000  Uiso   1.00
N245   N     0.65011   0.48598   0.23783   0.00000  Uiso   1.00
N246   N     0.34989   0.51402   0.26217   0.00000  Uiso   1.00
O247   O     0.46308   0.57952   0.25299   0.00000  Uiso   1.00
O248   O     0.49447   0.35922   0.11171   0.00000  Uiso   1.00
O249   O     0.57688   0.59713   0.35196   0.00000  Uiso   1.00
O250   O     0.50554   0.64079   0.38829   0.00000  Uiso   1.00
O251   O     0.53692   0.42048   0.24702   0.00000  Uiso   1.00
O252   O     0.55946   0.57054   0.24519   0.00000  Uiso   1.00
O253   O     0.44054   0.42946   0.25482   0.00000  Uiso   1.00
O254   O     0.45181   0.50450   0.31998   0.00000  Uiso   1.00
O255   O     0.54819   0.49550   0.18003   0.00000  Uiso   1.00
O256   O     0.54819   0.49552   0.31218   0.00000  Uiso   1.00
O257   O     0.45181   0.50448   0.18783   0.00000  Uiso   1.00
O258   O     0.42311   0.40286   0.14803   0.00000  Uiso   1.00
Zn259  Zn    0.43565   0.50600   0.25521   0.00000  Uiso   1.00
Zn260  Zn    0.56435   0.49400   0.24479   0.00000  Uiso   1.00
C261   C     0.84859   0.59823   0.24879   0.00000  Uiso   1.00
C262   C     0.85337   0.54805   0.40632   0.00000  Uiso   1.00
C263   C     0.82981   0.49836   0.11623   0.00000  Uiso   1.00
C264   C     0.83686   0.50164   0.38377   0.00000  Uiso   1.00
C265   C     0.84755   0.54408   0.09372   0.00000  Uiso   1.00
C266   C     0.81912   0.45592   0.40628   0.00000  Uiso   1.00
C267   C     0.84898   0.54506   0.04741   0.00000  Uiso   1.00
C268   C     0.81769   0.45494   0.45259   0.00000  Uiso   1.00
C269   C     0.83256   0.49933   0.02349   0.00000  Uiso   1.00
C270   C     0.83411   0.50067   0.47651   0.00000  Uiso   1.00
C271   C     0.81463   0.45235   0.04649   0.00000  Uiso   1.00
C272   C     0.81808   0.40177   0.25121   0.00000  Uiso   1.00
C273   C     0.85204   0.54765   0.45351   0.00000  Uiso   1.00
C274   C     0.86709   0.59110   0.02485   0.00000  Uiso   1.00
C275   C     0.79958   0.40890   0.47515   0.00000  Uiso   1.00
C276   C     0.79674   0.40357   0.11957   0.00000  Uiso   1.00
C277   C     0.86993   0.59643   0.38043   0.00000  Uiso   1.00
C278   C     0.86892   0.59242   0.47830   0.00000  Uiso   1.00
C279   C     0.79775   0.40758   0.02171   0.00000  Uiso   1.00
C280   C     0.85662   0.65275   0.24819   0.00000  Uiso   1.00
C281   C     0.81005   0.34725   0.25181   0.00000  Uiso   1.00
C282   C     0.83439   0.50053   0.33628   0.00000  Uiso   1.00
C283   C     0.83228   0.49947   0.16372   0.00000  Uiso   1.00
C284   C     0.81329   0.45195   0.09368   0.00000  Uiso   1.00
H285   H     0.86079   0.57881   0.11255   0.00000  Uiso   1.00
H286   H     0.99546   0.53901   0.28387   0.00000  Uiso   1.00
H287   H     0.81273   0.66239   0.13169   0.00000  Uiso   1.00
H288   H     0.85395   0.33761   0.36832   0.00000  Uiso   1.00
H289   H     0.80588   0.42119   0.38745   0.00000  Uiso   1.00
H290   H     0.88014   0.62613   0.04324   0.00000  Uiso   1.00
H291   H     0.78653   0.37387   0.45676   0.00000  Uiso   1.00
H292   H     0.88408   0.62863   0.46214   0.00000  Uiso   1.00
H293   H     0.78259   0.37137   0.03786   0.00000  Uiso   1.00
H294   H     0.90060   0.33646   0.24481   0.00000  Uiso   1.00
H295   H     0.76606   0.66354   0.25519   0.00000  Uiso   1.00
H296   H     0.67121   0.46099   0.21613   0.00000  Uiso   1.00
N297   N     0.98344   0.48598   0.23783   0.00000  Uiso   1.00
N298   N     0.68322   0.51402   0.26217   0.00000  Uiso   1.00
O299   O     0.79642   0.57952   0.25299   0.00000  Uiso   1.00
O300   O     0.82780   0.35922   0.11171   0.00000  Uiso   1.00
O301   O     0.91021   0.59713   0.35196   0.00000  Uiso   1.00
O302   O     0.83887   0.64079   0.38829   0.00000  Uiso   1.00
O303   O     0.87025   0.42048   0.24702   0.00000  Uiso   1.00
O304   O     0.89280   0.57054   0.24519   0.00000  Uiso   1.00
O305   O     0.77387   0.42946   0.25482   0.00000  Uiso   1.00
O306   O     0.78514   0.50450   0.31998   0.00000  Uiso   1.00
O307   O     0.88153   0.49550   0.18003   0.00000  Uiso   1.00
O308   O     0.88152   0.49552   0.31218   0.00000  Uiso   1.00
O309   O     0.78515   0.50448   0.18783   0.00000  Uiso   1.00
O310   O     0.75645   0.40286   0.14803   0.00000  Uiso   1.00
Zn311  Zn    0.76898   0.50600   0.25521   0.00000  Uiso   1.00
Zn312  Zn    0.89769   0.49400   0.24479   0.00000  Uiso   1.00
C313   C     0.18192   0.93156   0.24879   0.00000  Uiso   1.00
C314   C     0.18671   0.88139   0.40632   0.00000  Uiso   1.00
C315   C     0.16314   0.83170   0.11623   0.00000  Uiso   1.00
C316   C     0.17019   0.83497   0.38377   0.00000  Uiso   1.00
C317   C     0.18088   0.87742   0.09372   0.00000  Uiso   1.00
C318   C     0.15246   0.78925   0.40628   0.00000  Uiso   1.00
C319   C     0.18232   0.87840   0.04741   0.00000  Uiso   1.00
C320   C     0.15102   0.78827   0.45259   0.00000  Uiso   1.00
C321   C     0.16589   0.83266   0.02349   0.00000  Uiso   1.00
C322   C     0.16744   0.83400   0.47651   0.00000  Uiso   1.00
C323   C     0.14796   0.78569   0.04649   0.00000  Uiso   1.00
C324   C     0.15141   0.73510   0.25121   0.00000  Uiso   1.00
C325   C     0.18537   0.88098   0.45351   0.00000  Uiso   1.00
C326   C     0.20043   0.92444   0.02485   0.00000  Uiso   1.00
C327   C     0.13291   0.74223   0.47515   0.00000  Uiso   1.00
C328   C     0.13007   0.73691   0.11957   0.00000  Uiso   1.00
C329   C     0.20326   0.92976   0.38043   0.00000  Uiso   1.00
C330   C     0.20226   0.92575   0.47830   0.00000  Uiso   1.00
C331   C     0.13108   0.74092   0.02171   0.00000  Uiso   1.00
C332   C     0.18995   0.98608   0.24819   0.00000  Uiso   1.00
C333   C     0.14338   0.68058   0.25181   0.00000  Uiso   1.00
C334   C     0.16772   0.83387   0.33628   0.00000  Uiso   1.00
C335   C     0.16561   0.83280   0.16372   0.00000  Uiso   1.00
C336   C     0.14663   0.78528   0.09368   0.00000  Uiso   1.00
H337   H     0.19412   0.91215   0.11255   0.00000  Uiso   1.00
H338   H     0.32879   0.87235   0.28387   0.00000  Uiso   1.00
H339   H     0.14606   0.99572   0.13169   0.00000  Uiso   1.00
H340   H     0.18728   0.67095   0.36832   0.00000  Uiso   1.00
H341   H     0.13921   0.75452   0.38745   0.00000  Uiso   1.00
H342   H     0.21348   0.95947   0.04324   0.00000  Uiso   1.00
H343   H     0.11986   0.70720   0.45676   0.00000  Uiso   1.00
H344   H     0.21742   0.96196   0.46214   0.00000  Uiso   1.00
H345   H     0.11592   0.70470   0.03786   0.00000  Uiso   1.00
H346   H     0.23394   0.66980   0.24481   0.00000  Uiso   1.00
H347   H     0.09940   0.99687   0.25519   0.00000  Uiso   1.00
H348   H     0.00454   0.79432   0.21613   0.00000  Uiso   1.00
N349   N     0.31678   0.81932   0.23783   0.00000  Uiso   1.00
N350   N     0.01656   0.84735   0.26217   0.00000  Uiso   1.00
O351   O     0.12975   0.91286   0.25299   0.00000  Uiso   1.00
O352   O     0.16113   0.69255   0.11171   0.00000  Uiso   1.00
O353   O     0.24355   0.93047   0.35196   0.00000  Uiso   1.00
O354   O     0.17221   0.97412   0.38829   0.00000  Uiso   1.00
O355   O     0.20358   0.75381   0.24702   0.00000  Uiso   1.00
O356   O     0.22613   0.90387   0.24519   0.00000  Uiso   1.00
O357   O     0.10720   0.76279   0.25482   0.00000  Uiso   1.00
O358   O     0.11847   0.83784   0.31998   0.00000  Uiso   1.00
O359   O     0.21486   0.82883   0.18003   0.00000  Uiso   1.00
O360   O     0.21485   0.82885   0.31218   0.00000  Uiso   1.00
O361   O     0.11848   0.83781   0.18783   0.00000  Uiso   1.00
O362   O     0.08978   0.73620   0.14803   0.00000  Uiso   1.00
Zn363  Zn    0.10231   0.83933   0.25521   0.00000  Uiso   1.00
Zn364  Zn    0.23102   0.82734   0.24479   0.00000  Uiso   1.00
C365   C     0.51526   0.93156   0.24879   0.00000  Uiso   1.00
C366   C     0.52004   0.88139   0.40632   0.00000  Uiso   1.00
C367   C     0.49647   0.83170   0.11623   0.00000  Uiso   1.00
C368   C     0.50353   0.83497   0.38377   0.00000  Uiso   1.00
C369   C     0.51421   0.87742   0.09372   0.00000  Uiso   1.00
C370   C     0.48579   0.78925   0.40628   0.00000  Uiso   1.00
C371   C     0.51565   0.87840   0.04741   0.00000  Uiso   1.00
C372   C     0.48435   0.78827   0.45259   0.00000  Uiso   1.00
C373   C     0.49923   0.83266   0.02349   0.00000  Uiso   1.00
C374   C     0.50078   0.83400   0.47651   0.00000  Uiso   1.00
C375   C     0.48130   0.78569   0.04649   0.00000  Uiso   1.00
C376   C     0.48474   0.73510   0.25121   0.00000  Uiso   1.00
C377   C     0.51871   0.88098   0.45351   0.00000  Uiso   1.00
C378   C     0.53376   0.92444   0.02485   0.00000  Uiso   1.00
C379   C     0.46624   0.74223   0.47515   0.00000  Uiso   1.00
C380   C     0.46340   0.73691   0.11957   0.00000  Uiso   1.00
C381   C     0.53660   0.92976   0.38043   0.00000  Uiso   1.00
C382   C     0.53559   0.92575   0.47830   0.00000  Uiso   1.00
C383   C     0.46441   0.74092   0.02171   0.00000  Uiso   1.00
C384   C     0.52329   0.98608   0.24819   0.00000  Uiso   1.00
C385   C     0.47671   0.68058   0.25181   0.00000  Uiso   1.00
C386   C     0.50106   0.83387   0.33628   0.00000  Uiso   1.00
C387   C     0.49894   0.83280   0.16372   0.00000  Uiso   1.00
C388   C     0.47996   0.78528   0.09368   0.00000  Uiso   1.00
H389   H     0.52745   0.91215   0.11255   0.00000  Uiso   1.00
H390   H     0.66213   0.87235   0.28387   0.00000  Uiso   1.00
H391   H     0.47939   0.99572   0.13169   0.00000  Uiso   1.00
H392   H     0.52061   0.67095   0.36832   0.00000  Uiso   1.00
H393   H     0.47255   0.75452   0.38745   0.00000  Uiso   1.00
H394   H     0.54681   0.95947   0.04324   0.00000  Uiso   1.00
H395   H     0.45319   0.70720   0.45676   0.00000  Uiso   1.00
H396   H     0.55075   0.96196   0.46214   0.00000  Uiso   1.00
H397   H     0.44925   0.70470   0.03786   0.00000  Uiso   1.00
H398   H     0.56727   0.66980   0.24481   0.00000  Uiso   1.00
H399   H     0.43273   0.99687   0.25519   0.00000  Uiso   1.00
H400   H     0.33787   0.79432   0.21613   0.00000  Uiso   1.00
N401   N     0.65011   0.81932   0.23783   0.00000  Uiso   1.00
N402   N     0.34989   0.84735   0.26217   0.00000  Uiso   1.00
O403   O     0.46308   0.91286   0.25299   0.00000  Uiso   1.00
O404   O     0.49447   0.69255   0.11171   0.00000  Uiso   1.00
O405   O     0.57688   0.93047   0.35196   0.00000  Uiso   1.00
O406   O     0.50554   0.97412   0.38829   0.00000  Uiso   1.00
O407   O     0.53692   0.75381   0.24702   0.00000  Uiso   1.00
O408   O     0.55946   0.90387   0.24519   0.00000  Uiso   1.00
O409   O     0.44054   0.76279   0.25482   0.00000  Uiso   1.00
O410   O     0.45181   0.83784   0.31998   0.00000  Uiso   1.00
O411   O     0.54819   0.82883   0.18003   0.00000  Uiso   1.00
O412   O     0.54819   0.82885   0.31218   0.00000  Uiso   1.00
O413   O     0.45181   0.83781   0.18783   0.00000  Uiso   1.00
O414   O     0.42311   0.73620   0.14803   0.00000  Uiso   1.00
Zn415  Zn    0.43565   0.83933   0.25521   0.00000  Uiso   1.00
Zn416  Zn    0.56435   0.82734   0.24479   0.00000  Uiso   1.00
C417   C     0.84859   0.93156   0.24879   0.00000  Uiso   1.00
C418   C     0.85337   0.88139   0.40632   0.00000  Uiso   1.00
C419   C     0.82981   0.83170   0.11623   0.00000  Uiso   1.00
C420   C     0.83686   0.83497   0.38377   0.00000  Uiso   1.00
C421   C     0.84755   0.87742   0.09372   0.00000  Uiso   1.00
C422   C     0.81912   0.78925   0.40628   0.00000  Uiso   1.00
C423   C     0.84898   0.87840   0.04741   0.00000  Uiso   1.00
C424   C     0.81769   0.78827   0.45259   0.00000  Uiso   1.00
C425   C     0.83256   0.83266   0.02349   0.00000  Uiso   1.00
C426   C     0.83411   0.83400   0.47651   0.00000  Uiso   1.00
C427   C     0.81463   0.78569   0.04649   0.00000  Uiso   1.00
C428   C     0.81808   0.73510   0.25121   0.00000  Uiso   1.00
C429   C     0.85204   0.88098   0.45351   0.00000  Uiso   1.00
C430   C     0.86709   0.92444   0.02485   0.00000  Uiso   1.00
C431   C     0.79958   0.74223   0.47515   0.00000  Uiso   1.00
C432   C     0.79674   0.73691   0.11957   0.00000  Uiso   1.00
C433   C     0.86993   0.92976   0.38043   0.00000  Uiso   1.00
C434   C     0.86892   0.92575   0.47830   0.00000  Uiso   1.00
C435   C     0.79775   0.74092   0.02171   0.00000  Uiso   1.00
C436   C     0.85662   0.98608   0.24819   0.00000  Uiso   1.00
C437   C     0.81005   0.68058   0.25181   0.00000  Uiso   1.00
C438   C     0.83439   0.83387   0.33628   0.00000  Uiso   1.00
C439   C     0.83228   0.83280   0.16372   0.00000  Uiso   1.00
C440   C     0.81329   0.78528   0.09368   0.00000  Uiso   1.00
H441   H     0.86079   0.91215   0.11255   0.00000  Uiso   1.00
H442   H     0.99546   0.87235   0.28387   0.00000  Uiso   1.00
H443   H     0.81273   0.99572   0.13169   0.00000  Uiso   1.00
H444   H     0.85395   0.67095   0.36832   0.00000  Uiso   1.00
H445   H     0.80588   0.75452   0.38745   0.00000  Uiso   1.00
H446   H     0.88014   0.95947   0.04324   0.00000  Uiso   1.00
H447   H     0.78653   0.70720   0.45676   0.00000  Uiso   1.00
H448   H     0.88408   0.96196   0.46214   0.00000  Uiso   1.00
H449   H     0.78259   0.70470   0.03786   0.00000  Uiso   1.00
H450   H     0.90060   0.66980   0.24481   0.00000  Uiso   1.00
H451   H     0.76606   0.99687   0.25519   0.00000  Uiso   1.00
H452   H     0.67121   0.79432   0.21613   0.00000  Uiso   1.00
N453   N     0.98344   0.81932   0.23783   0.00000  Uiso   1.00
N454   N     0.68322   0.84735   0.26217   0.00000  Uiso   1.00
O455   O     0.79642   0.91286   0.25299   0.00000  Uiso   1.00
O456   O     0.82780   0.69255   0.11171   0.00000  Uiso   1.00
O457   O     0.91021   0.93047   0.35196   0.00000  Uiso   1.00
O458   O     0.83887   0.97412   0.38829   0.00000  Uiso   1.00
O459   O     0.87025   0.75381   0.24702   0.00000  Uiso   1.00
O460   O     0.89280   0.90387   0.24519   0.00000  Uiso   1.00
O461   O     0.77387   0.76279   0.25482   0.00000  Uiso   1.00
O462   O     0.78514   0.83784   0.31998   0.00000  Uiso   1.00
O463   O     0.88153   0.82883   0.18003   0.00000  Uiso   1.00
O464   O     0.88152   0.82885   0.31218   0.00000  Uiso   1.00
O465   O     0.78515   0.83781   0.18783   0.00000  Uiso   1.00
O466   O     0.75645   0.73620   0.14803   0.00000  Uiso   1.00
Zn467  Zn    0.76898   0.83933   0.25521   0.00000  Uiso   1.00
Zn468  Zn    0.89769   0.82734   0.24479   0.00000  Uiso   1.00
C469   C     0.18192   0.26490   0.74879   0.00000  Uiso   1.00
C470   C     0.18671   0.21472   0.90632   0.00000  Uiso   1.00
C471   C     0.16314   0.16503   0.61623   0.00000  Uiso   1.00
C472   C     0.17019   0.16831   0.88377   0.00000  Uiso   1.00
C473   C     0.18088   0.21075   0.59372   0.00000  Uiso   1.00
C474   C     0.15246   0.12258   0.90628   0.00000  Uiso   1.00
C475   C     0.18232   0.21173   0.54741   0.00000  Uiso   1.00
C476   C     0.15102   0.12160   0.95259   0.00000  Uiso   1.00
C477   C     0.16589   0.16600   0.52349   0.00000  Uiso   1.00
C478   C     0.16744   0.16734   0.97651   0.00000  Uiso   1.00
C479   C     0.14796   0.11902   0.54649   0.00000  Uiso   1.00
C480   C     0.15141   0.06844   0.75121   0.00000  Uiso   1.00
C481   C     0.18537   0.21431   0.95351   0.00000  Uiso   1.00
C482   C     0.20043   0.25777   0.52485   0.00000  Uiso   1.00
C483   C     0.13291   0.07556   0.97515   0.00000  Uiso   1.00
C484   C     0.13007   0.07024   0.61957   0.00000  Uiso   1.00
C485   C     0.20326   0.26310   0.88043   0.00000  Uiso   1.00
C486   C     0.20226   0.25908   0.97830   0.00000  Uiso   1.00
C487   C     0.13108   0.07425   0.52171   0.00000  Uiso   1.00
C488   C     0.18995   0.31942   0.74819   0.00000  Uiso   1.00
C489   C     0.14338   0.01392   0.75181   0.00000  Uiso   1.00
C490   C     0.16772   0.16720   0.83628   0.00000  Uiso   1.00
C491   C     0.16561   0.16613   0.66372   0.00000  Uiso   1.00
C492   C     0.14663   0.11862   0.59368   0.00000  Uiso   1.00
H493   H     0.19412   0.24548   0.61255   0.00000  Uiso   1.00
H494   H     0.32879   0.20568   0.78387   0.00000  Uiso   1.00
H495   H     0.14606   0.32906   0.63169   0.00000  Uiso   1.00
H496   H     0.18728   0.00428   0.86832   0.00000  Uiso   1.00
H497   H     0.13921   0.08785   0.88745   0.00000  Uiso   1.00
H498   H     0.21348   0.29280   0.54324   0.00000  Uiso   1.00
H499   H     0.11986   0.04053   0.95676   0.00000  Uiso   1.00
H500   H     0.21742   0.29530   0.96214   0.00000  Uiso   1.00
H501   H     0.11592   0.03803   0.53786   0.00000  Uiso   1.00
H502   H     0.23394   0.00313   0.74481   0.00000  Uiso   1.00
H503   H     0.09940   0.33020   0.75519   0.00000  Uiso   1.00
H504   H     0.00454   0.12765   0.71613   0.00000  Uiso   1.00
N505   N     0.31678   0.15265   0.73783   0.00000  Uiso   1.00
N506   N     0.01656   0.18068   0.76217   0.00000  Uiso   1.00
O507   O     0.12975   0.24619   0.75299   0.00000  Uiso   1.00
O508   O     0.16113   0.02588   0.61171   0.00000  Uiso   1.00
O509   O     0.24355   0.26380   0.85196   0.00000  Uiso   1.00
O510   O     0.17221   0.30745   0.88829   0.00000  Uiso   1.00
O511   O     0.20358   0.08714   0.74702   0.00000  Uiso   1.00
O512   O     0.22613   0.23721   0.74519   0.00000  Uiso   1.00
O513   O     0.10720   0.09613   0.75482   0.00000  Uiso   1.00
O514   O     0.11847   0.17117   0.81998   0.00000  Uiso   1.00
O515   O     0.21486   0.16216   0.68003   0.00000  Uiso   1.00
O516   O     0.21485   0.16219   0.81218   0.00000  Uiso   1.00
O517   O     0.11848   0.17115   0.68783   0.00000  Uiso   1.00
O518   O     0.08978   0.06953   0.64803   0.00000  Uiso   1.00
Zn519  Zn    0.10231   0.17266   0.75521   0.00000  Uiso   1.00
Zn520  Zn    0.23102   0.16067   0.74479   0.00000  Uiso   1.00
C521   C     0.51526   0.26490   0.74879   0.00000  Uiso   1.00
C522   C     0.52004   0.21472   0.90632   0.00000  Uiso   1.00
C523   C     0.49647   0.16503   0.61623   0.00000  Uiso   1.00
C524   C     0.50353   0.16831   0.88377   0.00000  Uiso   1.00
C525   C     0.51421   0.21075   0.59372   0.00000  Uiso   1.00
C526   C     0.48579   0.12258   0.90628   0.00000  Uiso   1.00
C527   C     0.51565   0.21173   0.54741   0.00000  Uiso   1.00
C528   C     0.48435   0.12160   0.95259   0.00000  Uiso   1.00
C529   C     0.49923   0.16600   0.52349   0.00000  Uiso   1.00
C530   C     0.50078   0.16734   0.97651   0.00000  Uiso   1.00
C531   C     0.48130   0.11902   0.54649   0.00000  Uiso   1.00
C532   C     0.48474   0.06844   0.75121   0.00000  Uiso   1.00
C533   C     0.51871   0.21431   0.95351   0.00000  Uiso   1.00
C534   C     0.53376   0.25777   0.52485   0.00000  Uiso   1.00
C535   C     0.46624   0.07556   0.97515   0.00000  Uiso   1.00
C536   C     0.46340   0.07024   0.61957   0.00000  Uiso   1.00
C537   C     0.53660   0.26310   0.88043   0.00000  Uiso   1.00
C538   C     0.53559   0.25908   0.97830   0.00000  Uiso   1.00
C539   C     0.46441   0.07425   0.52171   0.00000  Uiso   1.00
C540   C     0.52329   0.31942   0.74819   0.00000  Uiso   1.00
C541   C     0.47671   0.01392   0.75181   0.00000  Uiso   1.00
C542   C     0.50106   0.16720   0.83628   0.00000  Uiso   1.00
C543   C     0.49894   0.16613   0.66372   0.00000  Uiso   1.00
C544   C     0.47996   0.11862   0.59368   0.00000  Uiso   1.00
H545   H     0.52745   0.24548   0.61255   0.00000  Uiso   1.00
H546   H     0.66213   0.20568   0.78387   0.00000  Uiso   1.00
H547   H     0.47939   0.32906   0.63169   0.00000  Uiso   1.00
H548   H     0.52061   0.00428   0.86832   0.00000  Uiso   1.00
H549   H     0.47255   0.08785   0.88745   0.00000  Uiso   1.00
H550   H     0.54681   0.29280   0.54324   0.00000  Uiso   1.00
H551   H     0.45319   0.04053   0.95676   0.00000  Uiso   1.00
H552   H     0.55075   0.29530   0.96214   0.00000  Uiso   1.00
H553   H     0.44925   0.03803   0.53786   0.00000  Uiso   1.00
H554   H     0.56727   0.00313   0.74481   0.00000  Uiso   1.00
H555   H     0.43273   0.33020   0.75519   0.00000  Uiso   1.00
H556   H     0.33787   0.12765   0.71613   0.00000  Uiso   1.00
N557   N     0.65011   0.15265   0.73783   0.00000  Uiso   1.00
N558   N     0.34989   0.18068   0.76217   0.00000  Uiso   1.00
O559   O     0.46308   0.24619   0.75299   0.00000  Uiso   1.00
O560   O     0.49447   0.02588   0.61171   0.00000  Uiso   1.00
O561   O     0.57688   0.26380   0.85196   0.00000  Uiso   1.00
O562   O     0.50554   0.30745   0.88829   0.00000  Uiso   1.00
O563   O     0.53692   0.08714   0.74702   0.00000  Uiso   1.00
O564   O     0.55946   0.23721   0.74519   0.00000  Uiso   1.00
O565   O     0.44054   0.09613   0.75482   0.00000  Uiso   1.00
O566   O     0.45181   0.17117   0.81998   0.00000  Uiso   1.00
O567   O     0.54819   0.16216   0.68003   0.00000  Uiso   1.00
O568   O     0.54819   0.16219   0.81218   0.00000  Uiso   1.00
O569   O     0.45181   0.17115   0.68783   0.00000  Uiso   1.00
O570   O     0.42311   0.06953   0.64803   0.00000  Uiso   1.00
Zn571  Zn    0.43565   0.17266   0.75521   0.00000  Uiso   1.00
Zn572  Zn    0.56435   0.16067   0.74479   0.00000  Uiso   1.00
C573   C     0.84859   0.26490   0.74879   0.00000  Uiso   1.00
C574   C     0.85337   0.21472   0.90632   0.00000  Uiso   1.00
C575   C     0.82981   0.16503   0.61623   0.00000  Uiso   1.00
C576   C     0.83686   0.16831   0.88377   0.00000  Uiso   1.00
C577   C     0.84755   0.21075   0.59372   0.00000  Uiso   1.00
C578   C     0.81912   0.12258   0.90628   0.00000  Uiso   1.00
C579   C     0.84898   0.21173   0.54741   0.00000  Uiso   1.00
C580   C     0.81769   0.12160   0.95259   0.00000  Uiso   1.00
C581   C     0.83256   0.16600   0.52349   0.00000  Uiso   1.00
C582   C     0.83411   0.16734   0.97651   0.00000  Uiso   1.00
C583   C     0.81463   0.11902   0.54649   0.00000  Uiso   1.00
C584   C     0.81808   0.06844   0.75121   0.00000  Uiso   1.00
C585   C     0.85204   0.21431   0.95351   0.00000  Uiso   1.00
C586   C     0.86709   0.25777   0.52485   0.00000  Uiso   1.00
C587   C     0.79958   0.07556   0.97515   0.00000  Uiso   1.00
C588   C     0.79674   0.07024   0.61957   0.00000  Uiso   1.00
C589   C     0.86993   0.26310   0.88043   0.00000  Uiso   1.00
C590   C     0.86892   0.25908   0.97830   0.00000  Uiso   1.00
C591   C     0.79775   0.07425   0.52171   0.00000  Uiso   1.00
C592   C     0.85662   0.31942   0.74819   0.00000  Uiso   1.00
C593   C     0.81005   0.01392   0.75181   0.00000  Uiso   1.00
C594   C     0.83439   0.16720   0.83628   0.00000  Uiso   1.00
C595   C     0.83228   0.16613   0.66372   0.00000  Uiso   1.00
C596   C     0.81329   0.11862   0.59368   0.00000  Uiso   1.00
H597   H     0.86079   0.24548   0.61255   0.00000  Uiso   1.00
H598   H     0.99546   0.20568   0.78387   0.00000  Uiso   1.00
H599   H     0.81273   0.32906   0.63169   0.00000  Uiso   1.00
H600   H     0.85395   0.00428   0.86832   0.00000  Uiso   1.00
H601   H     0.80588   0.08785   0.88745   0.00000  Uiso   1.00
H602   H     0.88014   0.29280   0.54324   0.00000  Uiso   1.00
H603   H     0.78653   0.04053   0.95676   0.00000  Uiso   1.00
H604   H     0.88408   0.29530   0.96214   0.00000  Uiso   1.00
H605   H     0.78259   0.03803   0.53786   0.00000  Uiso   1.00
H606   H     0.90060   0.00313   0.74481   0.00000  Uiso   1.00
H607   H     0.76606   0.33020   0.75519   0.00000  Uiso   1.00
H608   H     0.67121   0.12765   0.71613   0.00000  Uiso   1.00
N609   N     0.98344   0.15265   0.73783   0.00000  Uiso   1.00
N610   N     0.68322   0.18068   0.76217   0.00000  Uiso   1.00
O611   O     0.79642   0.24619   0.75299   0.00000  Uiso   1.00
O612   O     0.82780   0.02588   0.61171   0.00000  Uiso   1.00
O613   O     0.91021   0.26380   0.85196   0.00000  Uiso   1.00
O614   O     0.83887   0.30745   0.88829   0.00000  Uiso   1.00
O615   O     0.87025   0.08714   0.74702   0.00000  Uiso   1.00
O616   O     0.89280   0.23721   0.74519   0.00000  Uiso   1.00
O617   O     0.77387   0.09613   0.75482   0.00000  Uiso   1.00
O618   O     0.78514   0.17117   0.81998   0.00000  Uiso   1.00
O619   O     0.88153   0.16216   0.68003   0.00000  Uiso   1.00
O620   O     0.88152   0.16219   0.81218   0.00000  Uiso   1.00
O621   O     0.78515   0.17115   0.68783   0.00000  Uiso   1.00
O622   O     0.75645   0.06953   0.64803   0.00000  Uiso   1.00
Zn623  Zn    0.76898   0.17266   0.75521   0.00000  Uiso   1.00
Zn624  Zn    0.89769   0.16067   0.74479   0.00000  Uiso   1.00
C625   C     0.18192   0.59823   0.74879   0.00000  Uiso   1.00
C626   C     0.18671   0.54805   0.90632   0.00000  Uiso   1.00
C627   C     0.16314   0.49836   0.61623   0.00000  Uiso   1.00
C628   C     0.17019   0.50164   0.88377   0.00000  Uiso   1.00
C629   C     0.18088   0.54408   0.59372   0.00000  Uiso   1.00
C630   C     0.15246   0.45592   0.90628   0.00000  Uiso   1.00
C631   C     0.18232   0.54506   0.54741   0.00000  Uiso   1.00
C632   C     0.15102   0.45494   0.95259   0.00000  Uiso   1.00
C633   C     0.16589   0.49933   0.52349   0.00000  Uiso   1.00
C634   C     0.16744   0.50067   0.97651   0.00000  Uiso   1.00
C635   C     0.14796   0.45235   0.54649   0.00000  Uiso   1.00
C636   C     0.15141   0.40177   0.75121   0.00000  Uiso   1.00
C637   C     0.18537   0.54765   0.95351   0.00000  Uiso   1.00
C638   C     0.20043   0.59110   0.52485   0.00000  Uiso   1.00
C639   C     0.13291   0.40890   0.97515   0.00000  Uiso   1.00
C640   C     0.13007   0.40357   0.61957   0.00000  Uiso   1.00
C641   C     0.20326   0.59643   0.88043   0.00000  Uiso   1.00
C642   C     0.20226   0.59242   0.97830   0.00000  Uiso   1.00
C643   C     0.13108   0.40758   0.52171   0.00000  Uiso   1.00
C644   C     0.18995   0.65275   0.74819   0.00000  Uiso   1.00
C645   C     0.14338   0.34725   0.75181   0.00000  Uiso   1.00
C646   C     0.16772   0.50053   0.83628   0.00000  Uiso   1.00
C647   C     0.16561   0.49947   0.66372   0.00000  Uiso   1.00
C648   C     0.14663   0.45195   0.59368   0.00000  Uiso   1.00
H649   H     0.19412   0.57881   0.61255   0.00000  Uiso   1.00
H650   H     0.32879   0.53901   0.78387   0.00000  Uiso   1.00
H651   H     0.14606   0.66239   0.63169   0.00000  Uiso   1.00
H652   H     0.18728   0.33761   0.86832   0.00000  Uiso   1.00
H653   H     0.13921   0.42119   0.88745   0.00000  Uiso   1.00
H654   H     0.21348   0.62613   0.54324   0.00000  Uiso   1.00
H655   H     0.11986   0.37387   0.95676   0.00000  Uiso   1.00
H656   H     0.21742   0.62863   0.96214   0.00000  Uiso   1.00
H657   H     0.11592   0.37137   0.53786   0.00000  Uiso   1.00
H658   H     0.23394   0.33646   0.74481   0.00000  Uiso   1.00
H659   H     0.09940   0.66354   0.75519   0.00000  Uiso   1.00
H660   H     0.00454   0.46099   0.71613   0.00000  Uiso   1.00
N661   N     0.31678   0.48598   0.73783   0.00000  Uiso   1.00
N662   N     0.01656   0.51402   0.76217   0.00000  Uiso   1.00
O663   O     0.12975   0.57952   0.75299   0.00000  Uiso   1.00
O664   O     0.16113   0.35922   0.61171   0.00000  Uiso   1.00
O665   O     0.24355   0.59713   0.85196   0.00000  Uiso   1.00
O666   O     0.17221   0.64079   0.88829   0.00000  Uiso   1.00
O667   O     0.20358   0.42048   0.74702   0.00000  Uiso   1.00
O668   O     0.22613   0.57054   0.74519   0.00000  Uiso   1.00
O669   O     0.10720   0.42946   0.75482   0.00000  Uiso   1.00
O670   O     0.11847   0.50450   0.81998   0.00000  Uiso   1.00
O671   O     0.21486   0.49550   0.68003   0.00000  Uiso   1.00
O672   O     0.21485   0.49552   0.81218   0.00000  Uiso   1.00
O673   O     0.11848   0.50448   0.68783   0.00000  Uiso   1.00
O674   O     0.08978   0.40286   0.64803   0.00000  Uiso   1.00
Zn675  Zn    0.10231   0.50600   0.75521   0.00000  Uiso   1.00
Zn676  Zn    0.23102   0.49400   0.74479   0.00000  Uiso   1.00
C677   C     0.51526   0.59823   0.74879   0.00000  Uiso   1.00
C678   C     0.52004   0.54805   0.90632   0.00000  Uiso   1.00
C679   C     0.49647   0.49836   0.61623   0.00000  Uiso   1.00
C680   C     0.50353   0.50164   0.88377   0.00000  Uiso   1.00
C681   C     0.51421   0.54408   0.59372   0.00000  Uiso   1.00
C682   C     0.48579   0.45592   0.90628   0.00000  Uiso   1.00
C683   C     0.51565   0.54506   0.54741   0.00000  Uiso   1.00
C684   C     0.48435   0.45494   0.95259   0.00000  Uiso   1.00
C685   C     0.49923   0.49933   0.52349   0.00000  Uiso   1.00
C686   C     0.50078   0.50067   0.97651   0.00000  Uiso   1.00
C687   C     0.48130   0.45235   0.54649   0.00000  Uiso   1.00
C688   C     0.48474   0.40177   0.75121   0.00000  Uiso   1.00
C689   C     0.51871   0.54765   0.95351   0.00000  Uiso   1.00
C690   C     0.53376   0.59110   0.52485   0.00000  Uiso   1.00
C691   C     0.46624   0.40890   0.97515   0.00000  Uiso   1.00
C692   C     0.46340   0.40357   0.61957   0.00000  Uiso   1.00
C693   C     0.53660   0.59643   0.88043   0.00000  Uiso   1.00
C694   C     0.53559   0.59242   0.97830   0.00000  Uiso   1.00
C695   C     0.46441   0.40758   0.52171   0.00000  Uiso   1.00
C696   C     0.52329   0.65275   0.74819   0.00000  Uiso   1.00
C697   C     0.47671   0.34725   0.75181   0.00000  Uiso   1.00
C698   C     0.50106   0.50053   0.83628   0.00000  Uiso   1.00
C699   C     0.49894   0.49947   0.66372   0.00000  Uiso   1.00
C700   C     0.47996   0.45195   0.59368   0.00000  Uiso   1.00
H701   H     0.52745   0.57881   0.61255   0.00000  Uiso   1.00
H702   H     0.66213   0.53901   0.78387   0.00000  Uiso   1.00
H703   H     0.47939   0.66239   0.63169   0.00000  Uiso   1.00
H704   H     0.52061   0.33761   0.86832   0.00000  Uiso   1.00
H705   H     0.47255   0.42119   0.88745   0.00000  Uiso   1.00
H706   H     0.54681   0.62613   0.54324   0.00000  Uiso   1.00
H707   H     0.45319   0.37387   0.95676   0.00000  Uiso   1.00
H708   H     0.55075   0.62863   0.96214   0.00000  Uiso   1.00
H709   H     0.44925   0.37137   0.53786   0.00000  Uiso   1.00
H710   H     0.56727   0.33646   0.74481   0.00000  Uiso   1.00
H711   H     0.43273   0.66354   0.75519   0.00000  Uiso   1.00
H712   H     0.33787   0.46099   0.71613   0.00000  Uiso   1.00
N713   N     0.65011   0.48598   0.73783   0.00000  Uiso   1.00
N714   N     0.34989   0.51402   0.76217   0.00000  Uiso   1.00
O715   O     0.46308   0.57952   0.75299   0.00000  Uiso   1.00
O716   O     0.49447   0.35922   0.61171   0.00000  Uiso   1.00
O717   O     0.57688   0.59713   0.85196   0.00000  Uiso   1.00
O718   O     0.50554   0.64079   0.88829   0.00000  Uiso   1.00
O719   O     0.53692   0.42048   0.74702   0.00000  Uiso   1.00
O720   O     0.55946   0.57054   0.74519   0.00000  Uiso   1.00
O721   O     0.44054   0.42946   0.75482   0.00000  Uiso   1.00
O722   O     0.45181   0.50450   0.81998   0.00000  Uiso   1.00
O723   O     0.54819   0.49550   0.68003   0.00000  Uiso   1.00
O724   O     0.54819   0.49552   0.81218   0.00000  Uiso   1.00
O725   O     0.45181   0.50448   0.68783   0.00000  Uiso   1.00
O726   O     0.42311   0.40286   0.64803   0.00000  Uiso   1.00
Zn727  Zn    0.43565   0.50600   0.75521   0.00000  Uiso   1.00
Zn728  Zn    0.56435   0.49400   0.74479   0.00000  Uiso   1.00
C729   C     0.84859   0.59823   0.74879   0.00000  Uiso   1.00
C730   C     0.85337   0.54805   0.90632   0.00000  Uiso   1.00
C731   C     0.82981   0.49836   0.61623   0.00000  Uiso   1.00
C732   C     0.83686   0.50164   0.88377   0.00000  Uiso   1.00
C733   C     0.84755   0.54408   0.59372   0.00000  Uiso   1.00
C734   C     0.81912   0.45592   0.90628   0.00000  Uiso   1.00
C735   C     0.84898   0.54506   0.54741   0.00000  Uiso   1.00
C736   C     0.81769   0.45494   0.95259   0.00000  Uiso   1.00
C737   C     0.83256   0.49933   0.52349   0.00000  Uiso   1.00
C738   C     0.83411   0.50067   0.97651   0.00000  Uiso   1.00
C739   C     0.81463   0.45235   0.54649   0.00000  Uiso   1.00
C740   C     0.81808   0.40177   0.75121   0.00000  Uiso   1.00
C741   C     0.85204   0.54765   0.95351   0.00000  Uiso   1.00
C742   C     0.86709   0.59110   0.52485   0.00000  Uiso   1.00
C743   C     0.79958   0.40890   0.97515   0.00000  Uiso   1.00
C744   C     0.79674   0.40357   0.61957   0.00000  Uiso   1.00
C745   C     0.86993   0.59643   0.88043   0.00000  Uiso   1.00
C746   C     0.86892   0.59242   0.97830   0.00000  Uiso   1.00
C747   C     0.79775   0.40758   0.52171   0.00000  Uiso   1.00
C748   C     0.85662   0.65275   0.74819   0.00000  Uiso   1.00
C749   C     0.81005   0.34725   0.75181   0.00000  Uiso   1.00
C750   C     0.83439   0.50053   0.83628   0.00000  Uiso   1.00
C751   C     0.83228   0.49947   0.66372   0.00000  Uiso   1.00
C752   C     0.81329   0.45195   0.59368   0.00000  Uiso   1.00
H753   H     0.86079   0.57881   0.61255   0.00000  Uiso   1.00
H754   H     0.99546   0.53901   0.78387   0.00000  Uiso   1.00
H755   H     0.81273   0.66239   0.63169   0.00000  Uiso   1.00
H756   H     0.85395   0.33761   0.86832   0.00000  Uiso   1.00
H757   H     0.80588   0.42119   0.88745   0.00000  Uiso   1.00
H758   H     0.88014   0.62613   0.54324   0.00000  Uiso   1.00
H759   H     0.78653   0.37387   0.95676   0.00000  Uiso   1.00
H760   H     0.88408   0.62863   0.96214   0.00000  Uiso   1.00
H761   H     0.78259   0.37137   0.53786   0.00000  Uiso   1.00
H762   H     0.90060   0.33646   0.74481   0.00000  Uiso   1.00
H763   H     0.76606   0.66354   0.75519   0.00000  Uiso   1.00
H764   H     0.67121   0.46099   0.71613   0.00000  Uiso   1.00
N765   N     0.98344   0.48598   0.73783   0.00000  Uiso   1.00
N766   N     0.68322   0.51402   0.76217   0.00000  Uiso   1.00
O767   O     0.79642   0.57952   0.75299   0.00000  Uiso   1.00
O768   O     0.82780   0.35922   0.61171   0.00000  Uiso   1.00
O769   O     0.91021   0.59713   0.85196   0.00000  Uiso   1.00
O770   O     0.83887   0.64079   0.88829   0.00000  Uiso   1.00
O771   O     0.87025   0.42048   0.74702   0.00000  Uiso   1.00
O772   O     0.89280   0.57054   0.74519   0.00000  Uiso   1.00
O773   O     0.77387   0.42946   0.75482   0.00000  Uiso   1.00
O774   O     0.78514   0.50450   0.81998   0.00000  Uiso   1.00
O775   O     0.88153   0.49550   0.68003   0.00000  Uiso   1.00
O776   O     0.88152   0.49552   0.81218   0.00000  Uiso   1.00
O777   O     0.78515   0.50448   0.68783   0.00000  Uiso   1.00
O778   O     0.75645   0.40286   0.64803   0.00000  Uiso   1.00
Zn779  Zn    0.76898   0.50600   0.75521   0.00000  Uiso   1.00
Zn780  Zn    0.89769   0.49400   0.74479   0.00000  Uiso   1.00
C781   C     0.18192   0.93156   0.74879   0.00000  Uiso   1.00
C782   C     0.18671   0.88139   0.90632   0.00000  Uiso   1.00
C783   C     0.16314   0.83170   0.61623   0.00000  Uiso   1.00
C784   C     0.17019   0.83497   0.88377   0.00000  Uiso   1.00
C785   C     0.18088   0.87742   0.59372   0.00000  Uiso   1.00
C786   C     0.15246   0.78925   0.90628   0.00000  Uiso   1.00
C787   C     0.18232   0.87840   0.54741   0.00000  Uiso   1.00
C788   C     0.15102   0.78827   0.95259   0.00000  Uiso   1.00
C789   C     0.16589   0.83266   0.52349   0.00000  Uiso   1.00
C790   C     0.16744   0.83400   0.97651   0.00000  Uiso   1.00
C791   C     0.14796   0.78569   0.54649   0.00000  Uiso   1.00
C792   C     0.15141   0.73510   0.75121   0.00000  Uiso   1.00
C793   C     0.18537   0.88098   0.95351   0.00000  Uiso   1.00
C794   C     0.20043   0.92444   0.52485   0.00000  Uiso   1.00
C795   C     0.13291   0.74223   0.97515   0.00000  Uiso   1.00
C796   C     0.13007   0.73691   0.61957   0.00000  Uiso   1.00
C797   C     0.20326   0.92976   0.88043   0.00000  Uiso   1.00
C798   C     0.20226   0.92575   0.97830   0.00000  Uiso   1.00
C799   C     0.13108   0.74092   0.52171   0.00000  Uiso   1.00
C800   C     0.18995   0.98608   0.74819   0.00000  Uiso   1.00
C801   C     0.14338   0.68058   0.75181   0.00000  Uiso   1.00
C802   C     0.16772   0.83387   0.83628   0.00000  Uiso   1.00
C803   C     0.16561   0.83280   0.66372   0.00000  Uiso   1.00
C804   C     0.14663   0.78528   0.59368   0.00000  Uiso   1.00
H805   H     0.19412   0.91215   0.61255   0.00000  Uiso   1.00
H806   H     0.32879   0.87235   0.78387   0.00000  Uiso   1.00
H807   H     0.14606   0.99572   0.63169   0.00000  Uiso   1.00
H808   H     0.18728   0.67095   0.86832   0.00000  Uiso   1.00
H809   H     0.13921   0.75452   0.88745   0.00000  Uiso   1.00
H810   H     0.21348   0.95947   0.54324   0.00000  Uiso   1.00
H811   H     0.11986   0.70720   0.95676   0.00000  Uiso   1.00
H812   H     0.21742   0.96196   0.96214   0.00000  Uiso   1.00
H813   H     0.11592   0.70470   0.53786   0.00000  Uiso   1.00
H814   H     0.23394   0.66980   0.74481   0.00000  Uiso   1.00
H815   H     0.09940   0.99687   0.75519   0.00000  Uiso   1.00
H816   H     0.00454   0.79432   0.71613   0.00000  Uiso   1.00
N817   N     0.31678   0.81932   0.73783   0.00000  Uiso   1.00
N818   N     0.01656   0.84735   0.76217   0.00000  Uiso   1.00
O819   O     0.12975   0.91286   0.75299   0.00000  Uiso   1.00
O820   O     0.16113   0.69255   0.61171   0.00000  Uiso   1.00
O821   O     0.24355   0.93047   0.85196   0.00000  Uiso   1.00
O822   O     0.17221   0.97412   0.88829   0.00000  Uiso   1.00
O823   O     0.20358   0.75381   0.74702   0.00000  Uiso   1.00
O824   O     0.22613   0.90387   0.74519   0.00000  Uiso   1.00
O825   O     0.10720   0.76279   0.75482   0.00000  Uiso   1.00
O826   O     0.11847   0.83784   0.81998   0.00000  Uiso   1.00
O827   O     0.21486   0.82883   0.68003   0.00000  Uiso   1.00
O828   O     0.21485   0.82885   0.81218   0.00000  Uiso   1.00
O829   O     0.11848   0.83781   0.68783   0.00000  Uiso   1.00
O830   O     0.08978   0.73620   0.64803   0.00000  Uiso   1.00
Zn831  Zn    0.10231   0.83933   0.75521   0.00000  Uiso   1.00
Zn832  Zn    0.23102   0.82734   0.74479   0.00000  Uiso   1.00
C833   C     0.51526   0.93156   0.74879   0.00000  Uiso   1.00
C834   C     0.52004   0.88139   0.90632   0.00000  Uiso   1.00
C835   C     0.49647   0.83170   0.61623   0.00000  Uiso   1.00
C836   C     0.50353   0.83497   0.88377   0.00000  Uiso   1.00
C837   C     0.51421   0.87742   0.59372   0.00000  Uiso   1.00
C838   C     0.48579   0.78925   0.90628   0.00000  Uiso   1.00
C839   C     0.51565   0.87840   0.54741   0.00000  Uiso   1.00
C840   C     0.48435   0.78827   0.95259   0.00000  Uiso   1.00
C841   C     0.49923   0.83266   0.52349   0.00000  Uiso   1.00
C842   C     0.50078   0.83400   0.97651   0.00000  Uiso   1.00
C843   C     0.48130   0.78569   0.54649   0.00000  Uiso   1.00
C844   C     0.48474   0.73510   0.75121   0.00000  Uiso   1.00
C845   C     0.51871   0.88098   0.95351   0.00000  Uiso   1.00
C846   C     0.53376   0.92444   0.52485   0.00000  Uiso   1.00
C847   C     0.46624   0.74223   0.97515   0.00000  Uiso   1.00
C848   C     0.46340   0.73691   0.61957   0.00000  Uiso   1.00
C849   C     0.53660   0.92976   0.88043   0.00000  Uiso   1.00
C850   C     0.53559   0.92575   0.97830   0.00000  Uiso   1.00
C851   C     0.46441   0.74092   0.52171   0.00000  Uiso   1.00
C852   C     0.52329   0.98608   0.74819   0.00000  Uiso   1.00
C853   C     0.47671   0.68058   0.75181   0.00000  Uiso   1.00
C854   C     0.50106   0.83387   0.83628   0.00000  Uiso   1.00
C855   C     0.49894   0.83280   0.66372   0.00000  Uiso   1.00
C856   C     0.47996   0.78528   0.59368   0.00000  Uiso   1.00
H857   H     0.52745   0.91215   0.61255   0.00000  Uiso   1.00
H858   H     0.66213   0.87235   0.78387   0.00000  Uiso   1.00
H859   H     0.47939   0.99572   0.63169   0.00000  Uiso   1.00
H860   H     0.52061   0.67095   0.86832   0.00000  Uiso   1.00
H861   H     0.47255   0.75452   0.88745   0.00000  Uiso   1.00
H862   H     0.54681   0.95947   0.54324   0.00000  Uiso   1.00
H863   H     0.45319   0.70720   0.95676   0.00000  Uiso   1.00
H864   H     0.55075   0.96196   0.96214   0.00000  Uiso   1.00
H865   H     0.44925   0.70470   0.53786   0.00000  Uiso   1.00
H866   H     0.56727   0.66980   0.74481   0.00000  Uiso   1.00
H867   H     0.43273   0.99687   0.75519   0.00000  Uiso   1.00
H868   H     0.33787   0.79432   0.71613   0.00000  Uiso   1.00
N869   N     0.65011   0.81932   0.73783   0.00000  Uiso   1.00
N870   N     0.34989   0.84735   0.76217   0.00000  Uiso   1.00
O871   O     0.46308   0.91286   0.75299   0.00000  Uiso   1.00
O872   O     0.49447   0.69255   0.61171   0.00000  Uiso   1.00
O873   O     0.57688   0.93047   0.85196   0.00000  Uiso   1.00
O874   O     0.50554   0.97412   0.88829   0.00000  Uiso   1.00
O875   O     0.53692   0.75381   0.74702   0.00000  Uiso   1.00
O876   O     0.55946   0.90387   0.74519   0.00000  Uiso   1.00
O877   O     0.44054   0.76279   0.75482   0.00000  Uiso   1.00
O878   O     0.45181   0.83784   0.81998   0.00000  Uiso   1.00
O879   O     0.54819   0.82883   0.68003   0.00000  Uiso   1.00
O880   O     0.54819   0.82885   0.81218   0.00000  Uiso   1.00
O881   O     0.45181   0.83781   0.68783   0.00000  Uiso   1.00
O882   O     0.42311   0.73620   0.64803   0.00000  Uiso   1.00
Zn883  Zn    0.43565   0.83933   0.75521   0.00000  Uiso   1.00
Zn884  Zn    0.56435   0.82734   0.74479   0.00000  Uiso   1.00
C885   C     0.84859   0.93156   0.74879   0.00000  Uiso   1.00
C886   C     0.85337   0.88139   0.90632   0.00000  Uiso   1.00
C887   C     0.82981   0.83170   0.61623   0.00000  Uiso   1.00
C888   C     0.83686   0.83497   0.88377   0.00000  Uiso   1.00
C889   C     0.84755   0.87742   0.59372   0.00000  Uiso   1.00
C890   C     0.81912   0.78925   0.90628   0.00000  Uiso   1.00
C891   C     0.84898   0.87840   0.54741   0.00000  Uiso   1.00
C892   C     0.81769   0.78827   0.95259   0.00000  Uiso   1.00
C893   C     0.83256   0.83266   0.52349   0.00000  Uiso   1.00
C894   C     0.83411   0.83400   0.97651   0.00000  Uiso   1.00
C895   C     0.81463   0.78569   0.54649   0.00000  Uiso   1.00
C896   C     0.81808   0.73510   0.75121   0.00000  Uiso   1.00
C897   C     0.85204   0.88098   0.95351   0.00000  Uiso   1.00
C898   C     0.86709   0.92444   0.52485   0.00000  Uiso   1.00
C899   C     0.79958   0.74223   0.97515   0.00000  Uiso   1.00
C900   C     0.79674   0.73691   0.61957   0.00000  Uiso   1.00
C901   C     0.86993   0.92976   0.88043   0.00000  Uiso   1.00
C902   C     0.86892   0.92575   0.97830   0.00000  Uiso   1.00
C903   C     0.79775   0.74092   0.52171   0.00000  Uiso   1.00
C904   C     0.85662   0.98608   0.74819   0.00000  Uiso   1.00
C905   C     0.81005   0.68058   0.75181   0.00000  Uiso   1.00
C906   C     0.83439   0.83387   0.83628   0.00000  Uiso   1.00
C907   C     0.83228   0.83280   0.66372   0.00000  Uiso   1.00
C908   C     0.81329   0.78528   0.59368   0.00000  Uiso   1.00
H909   H     0.86079   0.91215   0.61255   0.00000  Uiso   1.00
H910   H     0.99546   0.87235   0.78387   0.00000  Uiso   1.00
H911   H     0.81273   0.99572   0.63169   0.00000  Uiso   1.00
H912   H     0.85395   0.67095   0.86832   0.00000  Uiso   1.00
H913   H     0.80588   0.75452   0.88745   0.00000  Uiso   1.00
H914   H     0.88014   0.95947   0.54324   0.00000  Uiso   1.00
H915   H     0.78653   0.70720   0.95676   0.00000  Uiso   1.00
H916   H     0.88408   0.96196   0.96214   0.00000  Uiso   1.00
H917   H     0.78259   0.70470   0.53786   0.00000  Uiso   1.00
H918   H     0.90060   0.66980   0.74481   0.00000  Uiso   1.00
H919   H     0.76606   0.99687   0.75519   0.00000  Uiso   1.00
H920   H     0.67121   0.79432   0.71613   0.00000  Uiso   1.00
N921   N     0.98344   0.81932   0.73783   0.00000  Uiso   1.00
N922   N     0.68322   0.84735   0.76217   0.00000  Uiso   1.00
O923   O     0.79642   0.91286   0.75299   0.00000  Uiso   1.00
O924   O     0.82780   0.69255   0.61171   0.00000  Uiso   1.00
O925   O     0.91021   0.93047   0.85196   0.00000  Uiso   1.00
O926   O     0.83887   0.97412   0.88829   0.00000  Uiso   1.00
O927   O     0.87025   0.75381   0.74702   0.00000  Uiso   1.00
O928   O     0.89280   0.90387   0.74519   0.00000  Uiso   1.00
O929   O     0.77387   0.76279   0.75482   0.00000  Uiso   1.00
O930   O     0.78514   0.83784   0.81998   0.00000  Uiso   1.00
O931   O     0.88153   0.82883   0.68003   0.00000  Uiso   1.00
O932   O     0.88152   0.82885   0.81218   0.00000  Uiso   1.00
O933   O     0.78515   0.83781   0.68783   0.00000  Uiso   1.00
O934   O     0.75645   0.73620   0.64803   0.00000  Uiso   1.00
Zn935  Zn    0.76898   0.83933   0.75521   0.00000  Uiso   1.00
Zn936  Zn    0.89769   0.82734   0.74479   0.00000  Uiso   1.00
loop_
_geom_bond_atom_site_label_1
_geom_bond_atom_site_label_2
_geom_bond_distance
_geom_bond_site_symmetry_2
_ccdc_geom_bond_type
C1     O44     1.287   .     A
C1     O39     1.278   .     A
C1     C20     1.401   .     S
C2     C4      1.405   .     A
C2     C17     1.488   .     S
C2     C13     1.404   .     A
C3     C24     1.405   .     A
C3     C5      1.387   .     A
C3     C23     1.419   .     S
C4     C22     1.419   .     S
C4     C6      1.387   .     A
C5     H25     1.086   .     S
C5     C7      1.378   .     A
C6     H29     1.086   .     S
C6     C8      1.378   .     A
C7     C9      1.410   .     A
C7     C14     1.396   .     A
C8     C15     1.396   .     A
C8     C10     1.410   .     A
C9     C11     1.421   .     A
C9     C478    1.398   1_554 S
C10    C13     1.421   .     A
C10    C477    1.398   .     S
C11    C19     1.407   .     A
C11    C24     1.404   .     A
C12    C21     1.401   .     S
C12    O43     1.278   .     A
C12    O45     1.287   .     A
C13    C18     1.407   .     A
C14    H30     1.084   .     S
C14    C486    1.385   1_554 S
C15    H31     1.084   .     S
C15    C487    1.385   .     S
C16    C24     1.488   .     S
C16    O40     1.398   .     S
C16    O50     1.223   .     D
C17    O41     1.223   .     D
C17    O42     1.398   .     S
C18    H32     1.081   .     S
C18    C482    1.385   .     S
C19    H33     1.081   .     S
C19    C483    1.385   1_554 S
C20    C177    1.335   .     S
C20    H190    1.088   .     S
C21    C332    1.335   1_545 S
C21    H347    1.088   1_545 S
C22    O46     1.286   .     A
C22    O48     1.285   .     A
C23    O49     1.285   .     A
C23    O47     1.286   .     A
H26    N90     1.029   .     S
H27    O196    1.014   .     S
H28    O354    1.014   1_545 S
H34    C332    1.088   1_545 S
H35    C177    1.088   .     S
H36    N141    1.029   1_455 S
N37    Zn52    2.020   .     S
N37    H88     1.029   .     S
N37    N90     1.276   .     S
N38    Zn51    2.020   .     S
N38    N141    1.276   1_455 S
N38    H130    1.029   1_455 S
O39    Zn51    1.955   .     S
O40    H339    1.014   1_545 S
O42    H184    1.014   .     S
O43    Zn52    1.955   .     S
O44    Zn52    1.976   .     S
O45    Zn51    1.976   .     S
O46    Zn51    1.990   .     S
O47    Zn52    1.990   .     S
O48    Zn52    2.018   .     S
O49    Zn51    2.018   .     S
C53    O96     1.287   .     A
C53    O91     1.278   .     A
C53    C72     1.401   .     S
C54    C56     1.405   .     A
C54    C69     1.488   .     S
C54    C65     1.404   .     A
C55    C76     1.405   .     A
C55    C57     1.387   .     A
C55    C75     1.419   .     S
C56    C74     1.419   .     S
C56    C58     1.387   .     A
C57    H77     1.086   .     S
C57    C59     1.378   .     A
C58    H81     1.086   .     S
C58    C60     1.378   .     A
C59    C61     1.410   .     A
C59    C66     1.396   .     A
C60    C67     1.396   .     A
C60    C62     1.410   .     A
C61    C63     1.421   .     A
C61    C530    1.398   1_554 S
C62    C65     1.421   .     A
C62    C529    1.398   .     S
C63    C71     1.407   .     A
C63    C76     1.404   .     A
C64    C73     1.401   .     S
C64    O95     1.278   .     A
C64    O97     1.287   .     A
C65    C70     1.407   .     A
C66    H82     1.084   .     S
C66    C538    1.385   1_554 S
C67    H83     1.084   .     S
C67    C539    1.385   .     S
C68    C76     1.488   .     S
C68    O92     1.398   .     S
C68    O102    1.223   .     D
C69    O93     1.223   .     D
C69    O94     1.398   .     S
C70    H84     1.081   .     S
C70    C534    1.385   .     S
C71    H85     1.081   .     S
C71    C535    1.385   1_554 S
C72    C229    1.335   .     S
C72    H242    1.088   .     S
C73    C384    1.335   1_545 S
C73    H399    1.088   1_545 S
C74    O98     1.286   .     A
C74    O100    1.285   .     A
C75    O101    1.285   .     A
C75    O99     1.286   .     A
H78    N142    1.029   .     S
H79    O248    1.014   .     S
H80    O406    1.014   1_545 S
H86    C384    1.088   1_545 S
H87    C229    1.088   .     S
N89    Zn104   2.020   .     S
N89    H140    1.029   .     S
N89    N142    1.276   .     S
N90    Zn103   2.020   .     S
O91    Zn103   1.955   .     S
O92    H391    1.014   1_545 S
O94    H236    1.014   .     S
O95    Zn104   1.955   .     S
O96    Zn104   1.976   .     S
O97    Zn103   1.976   .     S
O98    Zn103   1.990   .     S
O99    Zn104   1.990   .     S
O100   Zn104   2.018   .     S
O101   Zn103   2.018   .     S
C105   O148    1.287   .     A
C105   O143    1.278   .     A
C105   C124    1.401   .     S
C106   C108    1.405   .     A
C106   C121    1.488   .     S
C106   C117    1.404   .     A
C107   C128    1.405   .     A
C107   C109    1.387   .     A
C107   C127    1.419   .     S
C108   C126    1.419   .     S
C108   C110    1.387   .     A
C109   H129    1.086   .     S
C109   C111    1.378   .     A
C110   H133    1.086   .     S
C110   C112    1.378   .     A
C111   C113    1.410   .     A
C111   C118    1.396   .     A
C112   C119    1.396   .     A
C112   C114    1.410   .     A
C113   C115    1.421   .     A
C113   C582    1.398   1_554 S
C114   C117    1.421   .     A
C114   C581    1.398   .     S
C115   C123    1.407   .     A
C115   C128    1.404   .     A
C116   C125    1.401   .     S
C116   O147    1.278   .     A
C116   O149    1.287   .     A
C117   C122    1.407   .     A
C118   H134    1.084   .     S
C118   C590    1.385   1_554 S
C119   H135    1.084   .     S
C119   C591    1.385   .     S
C120   C128    1.488   .     S
C120   O144    1.398   .     S
C120   O154    1.223   .     D
C121   O145    1.223   .     D
C121   O146    1.398   .     S
C122   H136    1.081   .     S
C122   C586    1.385   .     S
C123   H137    1.081   .     S
C123   C587    1.385   1_554 S
C124   C281    1.335   .     S
C124   H294    1.088   .     S
C125   C436    1.335   1_545 S
C125   H451    1.088   1_545 S
C126   O150    1.286   .     A
C126   O152    1.285   .     A
C127   O153    1.285   .     A
C127   O151    1.286   .     A
H130   N38     1.029   1_655 S
H131   O300    1.014   .     S
H132   O458    1.014   1_545 S
H138   C436    1.088   1_545 S
H139   C281    1.088   .     S
N141   Zn156   2.020   .     S
N141   H36     1.029   1_655 S
N141   N38     1.276   1_655 S
N142   Zn155   2.020   .     S
O143   Zn155   1.955   .     S
O144   H443    1.014   1_545 S
O146   H288    1.014   .     S
O147   Zn156   1.955   .     S
O148   Zn156   1.976   .     S
O149   Zn155   1.976   .     S
O150   Zn155   1.990   .     S
O151   Zn156   1.990   .     S
O152   Zn156   2.018   .     S
O153   Zn155   2.018   .     S
C157   O200    1.287   .     A
C157   O195    1.278   .     A
C157   C176    1.401   .     S
C158   C160    1.405   .     A
C158   C173    1.488   .     S
C158   C169    1.404   .     A
C159   C180    1.405   .     A
C159   C161    1.387   .     A
C159   C179    1.419   .     S
C160   C178    1.419   .     S
C160   C162    1.387   .     A
C161   H181    1.086   .     S
C161   C163    1.378   .     A
C162   H185    1.086   .     S
C162   C164    1.378   .     A
C163   C165    1.410   .     A
C163   C170    1.396   .     A
C164   C171    1.396   .     A
C164   C166    1.410   .     A
C165   C167    1.421   .     A
C165   C634    1.398   1_554 S
C166   C169    1.421   .     A
C166   C633    1.398   .     S
C167   C175    1.407   .     A
C167   C180    1.404   .     A
C168   C177    1.401   .     S
C168   O199    1.278   .     A
C168   O201    1.287   .     A
C169   C174    1.407   .     A
C170   H186    1.084   .     S
C170   C642    1.385   1_554 S
C171   H187    1.084   .     S
C171   C643    1.385   .     S
C172   C180    1.488   .     S
C172   O196    1.398   .     S
C172   O206    1.223   .     D
C173   O197    1.223   .     D
C173   O198    1.398   .     S
C174   H188    1.081   .     S
C174   C638    1.385   .     S
C175   H189    1.081   .     S
C175   C639    1.385   1_554 S
C176   C333    1.335   .     S
C176   H346    1.088   .     S
C178   O202    1.286   .     A
C178   O204    1.285   .     A
C179   O205    1.285   .     A
C179   O203    1.286   .     A
H182   N246    1.029   .     S
H183   O352    1.014   .     S
H191   C333    1.088   .     S
H192   N297    1.029   1_455 S
N193   Zn208   2.020   .     S
N193   H244    1.029   .     S
N193   N246    1.276   .     S
N194   Zn207   2.020   .     S
N194   N297    1.276   1_455 S
N194   H286    1.029   1_455 S
O195   Zn207   1.955   .     S
O198   H340    1.014   .     S
O199   Zn208   1.955   .     S
O200   Zn208   1.976   .     S
O201   Zn207   1.976   .     S
O202   Zn207   1.990   .     S
O203   Zn208   1.990   .     S
O204   Zn208   2.018   .     S
O205   Zn207   2.018   .     S
C209   O252    1.287   .     A
C209   O247    1.278   .     A
C209   C228    1.401   .     S
C210   C212    1.405   .     A
C210   C225    1.488   .     S
C210   C221    1.404   .     A
C211   C232    1.405   .     A
C211   C213    1.387   .     A
C211   C231    1.419   .     S
C212   C230    1.419   .     S
C212   C214    1.387   .     A
C213   H233    1.086   .     S
C213   C215    1.378   .     A
C214   H237    1.086   .     S
C214   C216    1.378   .     A
C215   C217    1.410   .     A
C215   C222    1.396   .     A
C216   C223    1.396   .     A
C216   C218    1.410   .     A
C217   C219    1.421   .     A
C217   C686    1.398   1_554 S
C218   C221    1.421   .     A
C218   C685    1.398   .     S
C219   C227    1.407   .     A
C219   C232    1.404   .     A
C220   C229    1.401   .     S
C220   O251    1.278   .     A
C220   O253    1.287   .     A
C221   C226    1.407   .     A
C222   H238    1.084   .     S
C222   C694    1.385   1_554 S
C223   H239    1.084   .     S
C223   C695    1.385   .     S
C224   C232    1.488   .     S
C224   O248    1.398   .     S
C224   O258    1.223   .     D
C225   O249    1.223   .     D
C225   O250    1.398   .     S
C226   H240    1.081   .     S
C226   C690    1.385   .     S
C227   H241    1.081   .     S
C227   C691    1.385   1_554 S
C228   C385    1.335   .     S
C228   H398    1.088   .     S
C230   O254    1.286   .     A
C230   O256    1.285   .     A
C231   O257    1.285   .     A
C231   O255    1.286   .     A
H234   N298    1.029   .     S
H235   O404    1.014   .     S
H243   C385    1.088   .     S
N245   Zn260   2.020   .     S
N245   H296    1.029   .     S
N245   N298    1.276   .     S
N246   Zn259   2.020   .     S
O247   Zn259   1.955   .     S
O250   H392    1.014   .     S
O251   Zn260   1.955   .     S
O252   Zn260   1.976   .     S
O253   Zn259   1.976   .     S
O254   Zn259   1.990   .     S
O255   Zn260   1.990   .     S
O256   Zn260   2.018   .     S
O257   Zn259   2.018   .     S
C261   O304    1.287   .     A
C261   O299    1.278   .     A
C261   C280    1.401   .     S
C262   C264    1.405   .     A
C262   C277    1.488   .     S
C262   C273    1.404   .     A
C263   C284    1.405   .     A
C263   C265    1.387   .     A
C263   C283    1.419   .     S
C264   C282    1.419   .     S
C264   C266    1.387   .     A
C265   H285    1.086   .     S
C265   C267    1.378   .     A
C266   H289    1.086   .     S
C266   C268    1.378   .     A
C267   C269    1.410   .     A
C267   C274    1.396   .     A
C268   C275    1.396   .     A
C268   C270    1.410   .     A
C269   C271    1.421   .     A
C269   C738    1.398   1_554 S
C270   C273    1.421   .     A
C270   C737    1.398   .     S
C271   C279    1.407   .     A
C271   C284    1.404   .     A
C272   C281    1.401   .     S
C272   O303    1.278   .     A
C272   O305    1.287   .     A
C273   C278    1.407   .     A
C274   H290    1.084   .     S
C274   C746    1.385   1_554 S
C275   H291    1.084   .     S
C275   C747    1.385   .     S
C276   C284    1.488   .     S
C276   O300    1.398   .     S
C276   O310    1.223   .     D
C277   O301    1.223   .     D
C277   O302    1.398   .     S
C278   H292    1.081   .     S
C278   C742    1.385   .     S
C279   H293    1.081   .     S
C279   C743    1.385   1_554 S
C280   C437    1.335   .     S
C280   H450    1.088   .     S
C282   O306    1.286   .     A
C282   O308    1.285   .     A
C283   O309    1.285   .     A
C283   O307    1.286   .     A
H286   N194    1.029   1_655 S
H287   O456    1.014   .     S
H295   C437    1.088   .     S
N297   Zn312   2.020   .     S
N297   H192    1.029   1_655 S
N297   N194    1.276   1_655 S
N298   Zn311   2.020   .     S
O299   Zn311   1.955   .     S
O302   H444    1.014   .     S
O303   Zn312   1.955   .     S
O304   Zn312   1.976   .     S
O305   Zn311   1.976   .     S
O306   Zn311   1.990   .     S
O307   Zn312   1.990   .     S
O308   Zn312   2.018   .     S
O309   Zn311   2.018   .     S
C313   O356    1.287   .     A
C313   O351    1.278   .     A
C313   C332    1.401   .     S
C314   C316    1.405   .     A
C314   C329    1.488   .     S
C314   C325    1.404   .     A
C315   C336    1.405   .     A
C315   C317    1.387   .     A
C315   C335    1.419   .     S
C316   C334    1.419   .     S
C316   C318    1.387   .     A
C317   H337    1.086   .     S
C317   C319    1.378   .     A
C318   H341    1.086   .     S
C318   C320    1.378   .     A
C319   C321    1.410   .     A
C319   C326    1.396   .     A
C320   C327    1.396   .     A
C320   C322    1.410   .     A
C321   C323    1.421   .     A
C321   C790    1.398   1_554 S
C322   C325    1.421   .     A
C322   C789    1.398   .     S
C323   C331    1.407   .     A
C323   C336    1.404   .     A
C324   C333    1.401   .     S
C324   O355    1.278   .     A
C324   O357    1.287   .     A
C325   C330    1.407   .     A
C326   H342    1.084   .     S
C326   C798    1.385   1_554 S
C327   H343    1.084   .     S
C327   C799    1.385   .     S
C328   C336    1.488   .     S
C328   O352    1.398   .     S
C328   O362    1.223   .     D
C329   O353    1.223   .     D
C329   O354    1.398   .     S
C330   H344    1.081   .     S
C330   C794    1.385   .     S
C331   H345    1.081   .     S
C331   C795    1.385   1_554 S
C332   C21     1.335   1_565 S
C332   H34     1.088   1_565 S
C334   O358    1.286   .     A
C334   O360    1.285   .     A
C335   O361    1.285   .     A
C335   O359    1.286   .     A
H338   N402    1.029   .     S
H339   O40     1.014   1_565 S
H347   C21     1.088   1_565 S
H348   N453    1.029   1_455 S
N349   Zn364   2.020   .     S
N349   H400    1.029   .     S
N349   N402    1.276   .     S
N350   Zn363   2.020   .     S
N350   N453    1.276   1_455 S
N350   H442    1.029   1_455 S
O351   Zn363   1.955   .     S
O354   H28     1.014   1_565 S
O355   Zn364   1.955   .     S
O356   Zn364   1.976   .     S
O357   Zn363   1.976   .     S
O358   Zn363   1.990   .     S
O359   Zn364   1.990   .     S
O360   Zn364   2.018   .     S
O361   Zn363   2.018   .     S
C365   O408    1.287   .     A
C365   O403    1.278   .     A
C365   C384    1.401   .     S
C366   C368    1.405   .     A
C366   C381    1.488   .     S
C366   C377    1.404   .     A
C367   C388    1.405   .     A
C367   C369    1.387   .     A
C367   C387    1.419   .     S
C368   C386    1.419   .     S
C368   C370    1.387   .     A
C369   H389    1.086   .     S
C369   C371    1.378   .     A
C370   H393    1.086   .     S
C370   C372    1.378   .     A
C371   C373    1.410   .     A
C371   C378    1.396   .     A
C372   C379    1.396   .     A
C372   C374    1.410   .     A
C373   C375    1.421   .     A
C373   C842    1.398   1_554 S
C374   C377    1.421   .     A
C374   C841    1.398   .     S
C375   C383    1.407   .     A
C375   C388    1.404   .     A
C376   C385    1.401   .     S
C376   O407    1.278   .     A
C376   O409    1.287   .     A
C377   C382    1.407   .     A
C378   H394    1.084   .     S
C378   C850    1.385   1_554 S
C379   H395    1.084   .     S
C379   C851    1.385   .     S
C380   C388    1.488   .     S
C380   O404    1.398   .     S
C380   O414    1.223   .     D
C381   O405    1.223   .     D
C381   O406    1.398   .     S
C382   H396    1.081   .     S
C382   C846    1.385   .     S
C383   H397    1.081   .     S
C383   C847    1.385   1_554 S
C384   C73     1.335   1_565 S
C384   H86     1.088   1_565 S
C386   O410    1.286   .     A
C386   O412    1.285   .     A
C387   O413    1.285   .     A
C387   O411    1.286   .     A
H390   N454    1.029   .     S
H391   O92     1.014   1_565 S
H399   C73     1.088   1_565 S
N401   Zn416   2.020   .     S
N401   H452    1.029   .     S
N401   N454    1.276   .     S
N402   Zn415   2.020   .     S
O403   Zn415   1.955   .     S
O406   H80     1.014   1_565 S
O407   Zn416   1.955   .     S
O408   Zn416   1.976   .     S
O409   Zn415   1.976   .     S
O410   Zn415   1.990   .     S
O411   Zn416   1.990   .     S
O412   Zn416   2.018   .     S
O413   Zn415   2.018   .     S
C417   O460    1.287   .     A
C417   O455    1.278   .     A
C417   C436    1.401   .     S
C418   C420    1.405   .     A
C418   C433    1.488   .     S
C418   C429    1.404   .     A
C419   C440    1.405   .     A
C419   C421    1.387   .     A
C419   C439    1.419   .     S
C420   C438    1.419   .     S
C420   C422    1.387   .     A
C421   H441    1.086   .     S
C421   C423    1.378   .     A
C422   H445    1.086   .     S
C422   C424    1.378   .     A
C423   C425    1.410   .     A
C423   C430    1.396   .     A
C424   C431    1.396   .     A
C424   C426    1.410   .     A
C425   C427    1.421   .     A
C425   C894    1.398   1_554 S
C426   C429    1.421   .     A
C426   C893    1.398   .     S
C427   C435    1.407   .     A
C427   C440    1.404   .     A
C428   C437    1.401   .     S
C428   O459    1.278   .     A
C428   O461    1.287   .     A
C429   C434    1.407   .     A
C430   H446    1.084   .     S
C430   C902    1.385   1_554 S
C431   H447    1.084   .     S
C431   C903    1.385   .     S
C432   C440    1.488   .     S
C432   O456    1.398   .     S
C432   O466    1.223   .     D
C433   O457    1.223   .     D
C433   O458    1.398   .     S
C434   H448    1.081   .     S
C434   C898    1.385   .     S
C435   H449    1.081   .     S
C435   C899    1.385   1_554 S
C436   C125    1.335   1_565 S
C436   H138    1.088   1_565 S
C438   O462    1.286   .     A
C438   O464    1.285   .     A
C439   O465    1.285   .     A
C439   O463    1.286   .     A
H442   N350    1.029   1_655 S
H443   O144    1.014   1_565 S
H451   C125    1.088   1_565 S
N453   Zn468   2.020   .     S
N453   H348    1.029   1_655 S
N453   N350    1.276   1_655 S
N454   Zn467   2.020   .     S
O455   Zn467   1.955   .     S
O458   H132    1.014   1_565 S
O459   Zn468   1.955   .     S
O460   Zn468   1.976   .     S
O461   Zn467   1.976   .     S
O462   Zn467   1.990   .     S
O463   Zn468   1.990   .     S
O464   Zn468   2.018   .     S
O465   Zn467   2.018   .     S
C469   O512    1.287   .     A
C469   O507    1.278   .     A
C469   C488    1.401   .     S
C470   C472    1.405   .     A
C470   C485    1.488   .     S
C470   C481    1.404   .     A
C471   C492    1.405   .     A
C471   C473    1.387   .     A
C471   C491    1.419   .     S
C472   C490    1.419   .     S
C472   C474    1.387   .     A
C473   H493    1.086   .     S
C473   C475    1.378   .     A
C474   H497    1.086   .     S
C474   C476    1.378   .     A
C475   C477    1.410   .     A
C475   C482    1.396   .     A
C476   C483    1.396   .     A
C476   C478    1.410   .     A
C477   C479    1.421   .     A
C478   C481    1.421   .     A
C478   C9      1.398   1_556 S
C479   C487    1.407   .     A
C479   C492    1.404   .     A
C480   C489    1.401   .     S
C480   O511    1.278   .     A
C480   O513    1.287   .     A
C481   C486    1.407   .     A
C482   H498    1.084   .     S
C483   H499    1.084   .     S
C483   C19     1.385   1_556 S
C484   C492    1.488   .     S
C484   O508    1.398   .     S
C484   O518    1.223   .     D
C485   O509    1.223   .     D
C485   O510    1.398   .     S
C486   H500    1.081   .     S
C486   C14     1.385   1_556 S
C487   H501    1.081   .     S
C488   C645    1.335   .     S
C488   H658    1.088   .     S
C489   C800    1.335   1_545 S
C489   H815    1.088   1_545 S
C490   O514    1.286   .     A
C490   O516    1.285   .     A
C491   O517    1.285   .     A
C491   O515    1.286   .     A
H494   N558    1.029   .     S
H495   O664    1.014   .     S
H496   O822    1.014   1_545 S
H502   C800    1.088   1_545 S
H503   C645    1.088   .     S
H504   N609    1.029   1_455 S
N505   Zn520   2.020   .     S
N505   H556    1.029   .     S
N505   N558    1.276   .     S
N506   Zn519   2.020   .     S
N506   N609    1.276   1_455 S
N506   H598    1.029   1_455 S
O507   Zn519   1.955   .     S
O508   H807    1.014   1_545 S
O510   H652    1.014   .     S
O511   Zn520   1.955   .     S
O512   Zn520   1.976   .     S
O513   Zn519   1.976   .     S
O514   Zn519   1.990   .     S
O515   Zn520   1.990   .     S
O516   Zn520   2.018   .     S
O517   Zn519   2.018   .     S
C521   O564    1.287   .     A
C521   O559    1.278   .     A
C521   C540    1.401   .     S
C522   C524    1.405   .     A
C522   C537    1.488   .     S
C522   C533    1.404   .     A
C523   C544    1.405   .     A
C523   C525    1.387   .     A
C523   C543    1.419   .     S
C524   C542    1.419   .     S
C524   C526    1.387   .     A
C525   H545    1.086   .     S
C525   C527    1.378   .     A
C526   H549    1.086   .     S
C526   C528    1.378   .     A
C527   C529    1.410   .     A
C527   C534    1.396   .     A
C528   C535    1.396   .     A
C528   C530    1.410   .     A
C529   C531    1.421   .     A
C530   C533    1.421   .     A
C530   C61     1.398   1_556 S
C531   C539    1.407   .     A
C531   C544    1.404   .     A
C532   C541    1.401   .     S
C532   O563    1.278   .     A
C532   O565    1.287   .     A
C533   C538    1.407   .     A
C534   H550    1.084   .     S
C535   H551    1.084   .     S
C535   C71     1.385   1_556 S
C536   C544    1.488   .     S
C536   O560    1.398   .     S
C536   O570    1.223   .     D
C537   O561    1.223   .     D
C537   O562    1.398   .     S
C538   H552    1.081   .     S
C538   C66     1.385   1_556 S
C539   H553    1.081   .     S
C540   C697    1.335   .     S
C540   H710    1.088   .     S
C541   C852    1.335   1_545 S
C541   H867    1.088   1_545 S
C542   O566    1.286   .     A
C542   O568    1.285   .     A
C543   O569    1.285   .     A
C543   O567    1.286   .     A
H546   N610    1.029   .     S
H547   O716    1.014   .     S
H548   O874    1.014   1_545 S
H554   C852    1.088   1_545 S
H555   C697    1.088   .     S
N557   Zn572   2.020   .     S
N557   H608    1.029   .     S
N557   N610    1.276   .     S
N558   Zn571   2.020   .     S
O559   Zn571   1.955   .     S
O560   H859    1.014   1_545 S
O562   H704    1.014   .     S
O563   Zn572   1.955   .     S
O564   Zn572   1.976   .     S
O565   Zn571   1.976   .     S
O566   Zn571   1.990   .     S
O567   Zn572   1.990   .     S
O568   Zn572   2.018   .     S
O569   Zn571   2.018   .     S
C573   O616    1.287   .     A
C573   O611    1.278   .     A
C573   C592    1.401   .     S
C574   C576    1.405   .     A
C574   C589    1.488   .     S
C574   C585    1.404   .     A
C575   C596    1.405   .     A
C575   C577    1.387   .     A
C575   C595    1.419   .     S
C576   C594    1.419   .     S
C576   C578    1.387   .     A
C577   H597    1.086   .     S
C577   C579    1.378   .     A
C578   H601    1.086   .     S
C578   C580    1.378   .     A
C579   C581    1.410   .     A
C579   C586    1.396   .     A
C580   C587    1.396   .     A
C580   C582    1.410   .     A
C581   C583    1.421   .     A
C582   C585    1.421   .     A
C582   C113    1.398   1_556 S
C583   C591    1.407   .     A
C583   C596    1.404   .     A
C584   C593    1.401   .     S
C584   O615    1.278   .     A
C584   O617    1.287   .     A
C585   C590    1.407   .     A
C586   H602    1.084   .     S
C587   H603    1.084   .     S
C587   C123    1.385   1_556 S
C588   C596    1.488   .     S
C588   O612    1.398   .     S
C588   O622    1.223   .     D
C589   O613    1.223   .     D
C589   O614    1.398   .     S
C590   H604    1.081   .     S
C590   C118    1.385   1_556 S
C591   H605    1.081   .     S
C592   C749    1.335   .     S
C592   H762    1.088   .     S
C593   C904    1.335   1_545 S
C593   H919    1.088   1_545 S
C594   O618    1.286   .     A
C594   O620    1.285   .     A
C595   O621    1.285   .     A
C595   O619    1.286   .     A
H598   N506    1.029   1_655 S
H599   O768    1.014   .     S
H600   O926    1.014   1_545 S
H606   C904    1.088   1_545 S
H607   C749    1.088   .     S
N609   Zn624   2.020   .     S
N609   H504    1.029   1_655 S
N609   N506    1.276   1_655 S
N610   Zn623   2.020   .     S
O611   Zn623   1.955   .     S
O612   H911    1.014   1_545 S
O614   H756    1.014   .     S
O615   Zn624   1.955   .     S
O616   Zn624   1.976   .     S
O617   Zn623   1.976   .     S
O618   Zn623   1.990   .     S
O619   Zn624   1.990   .     S
O620   Zn624   2.018   .     S
O621   Zn623   2.018   .     S
C625   O668    1.287   .     A
C625   O663    1.278   .     A
C625   C644    1.401   .     S
C626   C628    1.405   .     A
C626   C641    1.488   .     S
C626   C637    1.404   .     A
C627   C648    1.405   .     A
C627   C629    1.387   .     A
C627   C647    1.419   .     S
C628   C646    1.419   .     S
C628   C630    1.387   .     A
C629   H649    1.086   .     S
C629   C631    1.378   .     A
C630   H653    1.086   .     S
C630   C632    1.378   .     A
C631   C633    1.410   .     A
C631   C638    1.396   .     A
C632   C639    1.396   .     A
C632   C634    1.410   .     A
C633   C635    1.421   .     A
C634   C637    1.421   .     A
C634   C165    1.398   1_556 S
C635   C643    1.407   .     A
C635   C648    1.404   .     A
C636   C645    1.401   .     S
C636   O667    1.278   .     A
C636   O669    1.287   .     A
C637   C642    1.407   .     A
C638   H654    1.084   .     S
C639   H655    1.084   .     S
C639   C175    1.385   1_556 S
C640   C648    1.488   .     S
C640   O664    1.398   .     S
C640   O674    1.223   .     D
C641   O665    1.223   .     D
C641   O666    1.398   .     S
C642   H656    1.081   .     S
C642   C170    1.385   1_556 S
C643   H657    1.081   .     S
C644   C801    1.335   .     S
C644   H814    1.088   .     S
C646   O670    1.286   .     A
C646   O672    1.285   .     A
C647   O673    1.285   .     A
C647   O671    1.286   .     A
H650   N714    1.029   .     S
H651   O820    1.014   .     S
H659   C801    1.088   .     S
H660   N765    1.029   1_455 S
N661   Zn676   2.020   .     S
N661   H712    1.029   .     S
N661   N714    1.276   .     S
N662   Zn675   2.020   .     S
N662   N765    1.276   1_455 S
N662   H754    1.029   1_455 S
O663   Zn675   1.955   .     S
O666   H808    1.014   .     S
O667   Zn676   1.955   .     S
O668   Zn676   1.976   .     S
O669   Zn675   1.976   .     S
O670   Zn675   1.990   .     S
O671   Zn676   1.990   .     S
O672   Zn676   2.018   .     S
O673   Zn675   2.018   .     S
C677   O720    1.287   .     A
C677   O715    1.278   .     A
C677   C696    1.401   .     S
C678   C680    1.405   .     A
C678   C693    1.488   .     S
C678   C689    1.404   .     A
C679   C700    1.405   .     A
C679   C681    1.387   .     A
C679   C699    1.419   .     S
C680   C698    1.419   .     S
C680   C682    1.387   .     A
C681   H701    1.086   .     S
C681   C683    1.378   .     A
C682   H705    1.086   .     S
C682   C684    1.378   .     A
C683   C685    1.410   .     A
C683   C690    1.396   .     A
C684   C691    1.396   .     A
C684   C686    1.410   .     A
C685   C687    1.421   .     A
C686   C689    1.421   .     A
C686   C217    1.398   1_556 S
C687   C695    1.407   .     A
C687   C700    1.404   .     A
C688   C697    1.401   .     S
C688   O719    1.278   .     A
C688   O721    1.287   .     A
C689   C694    1.407   .     A
C690   H706    1.084   .     S
C691   H707    1.084   .     S
C691   C227    1.385   1_556 S
C692   C700    1.488   .     S
C692   O716    1.398   .     S
C692   O726    1.223   .     D
C693   O717    1.223   .     D
C693   O718    1.398   .     S
C694   H708    1.081   .     S
C694   C222    1.385   1_556 S
C695   H709    1.081   .     S
C696   C853    1.335   .     S
C696   H866    1.088   .     S
C698   O722    1.286   .     A
C698   O724    1.285   .     A
C699   O725    1.285   .     A
C699   O723    1.286   .     A
H702   N766    1.029   .     S
H703   O872    1.014   .     S
H711   C853    1.088   .     S
N713   Zn728   2.020   .     S
N713   H764    1.029   .     S
N713   N766    1.276   .     S
N714   Zn727   2.020   .     S
O715   Zn727   1.955   .     S
O718   H860    1.014   .     S
O719   Zn728   1.955   .     S
O720   Zn728   1.976   .     S
O721   Zn727   1.976   .     S
O722   Zn727   1.990   .     S
O723   Zn728   1.990   .     S
O724   Zn728   2.018   .     S
O725   Zn727   2.018   .     S
C729   O772    1.287   .     A
C729   O767    1.278   .     A
C729   C748    1.401   .     S
C730   C732    1.405   .     A
C730   C745    1.488   .     S
C730   C741    1.404   .     A
C731   C752    1.405   .     A
C731   C733    1.387   .     A
C731   C751    1.419   .     S
C732   C750    1.419   .     S
C732   C734    1.387   .     A
C733   H753    1.086   .     S
C733   C735    1.378   .     A
C734   H757    1.086   .     S
C734   C736    1.378   .     A
C735   C737    1.410   .     A
C735   C742    1.396   .     A
C736   C743    1.396   .     A
C736   C738    1.410   .     A
C737   C739    1.421   .     A
C738   C741    1.421   .     A
C738   C269    1.398   1_556 S
C739   C747    1.407   .     A
C739   C752    1.404   .     A
C740   C749    1.401   .     S
C740   O771    1.278   .     A
C740   O773    1.287   .     A
C741   C746    1.407   .     A
C742   H758    1.084   .     S
C743   H759    1.084   .     S
C743   C279    1.385   1_556 S
C744   C752    1.488   .     S
C744   O768    1.398   .     S
C744   O778    1.223   .     D
C745   O769    1.223   .     D
C745   O770    1.398   .     S
C746   H760    1.081   .     S
C746   C274    1.385   1_556 S
C747   H761    1.081   .     S
C748   C905    1.335   .     S
C748   H918    1.088   .     S
C750   O774    1.286   .     A
C750   O776    1.285   .     A
C751   O777    1.285   .     A
C751   O775    1.286   .     A
H754   N662    1.029   1_655 S
H755   O924    1.014   .     S
H763   C905    1.088   .     S
N765   Zn780   2.020   .     S
N765   H660    1.029   1_655 S
N765   N662    1.276   1_655 S
N766   Zn779   2.020   .     S
O767   Zn779   1.955   .     S
O770   H912    1.014   .     S
O771   Zn780   1.955   .     S
O772   Zn780   1.976   .     S
O773   Zn779   1.976   .     S
O774   Zn779   1.990   .     S
O775   Zn780   1.990   .     S
O776   Zn780   2.018   .     S
O777   Zn779   2.018   .     S
C781   O824    1.287   .     A
C781   O819    1.278   .     A
C781   C800    1.401   .     S
C782   C784    1.405   .     A
C782   C797    1.488   .     S
C782   C793    1.404   .     A
C783   C804    1.405   .     A
C783   C785    1.387   .     A
C783   C803    1.419   .     S
C784   C802    1.419   .     S
C784   C786    1.387   .     A
C785   H805    1.086   .     S
C785   C787    1.378   .     A
C786   H809    1.086   .     S
C786   C788    1.378   .     A
C787   C789    1.410   .     A
C787   C794    1.396   .     A
C788   C795    1.396   .     A
C788   C790    1.410   .     A
C789   C791    1.421   .     A
C790   C793    1.421   .     A
C790   C321    1.398   1_556 S
C791   C799    1.407   .     A
C791   C804    1.404   .     A
C792   C801    1.401   .     S
C792   O823    1.278   .     A
C792   O825    1.287   .     A
C793   C798    1.407   .     A
C794   H810    1.084   .     S
C795   H811    1.084   .     S
C795   C331    1.385   1_556 S
C796   C804    1.488   .     S
C796   O820    1.398   .     S
C796   O830    1.223   .     D
C797   O821    1.223   .     D
C797   O822    1.398   .     S
C798   H812    1.081   .     S
C798   C326    1.385   1_556 S
C799   H813    1.081   .     S
C800   C489    1.335   1_565 S
C800   H502    1.088   1_565 S
C802   O826    1.286   .     A
C802   O828    1.285   .     A
C803   O829    1.285   .     A
C803   O827    1.286   .     A
H806   N870    1.029   .     S
H807   O508    1.014   1_565 S
H815   C489    1.088   1_565 S
H816   N921    1.029   1_455 S
N817   Zn832   2.020   .     S
N817   H868    1.029   .     S
N817   N870    1.276   .     S
N818   Zn831   2.020   .     S
N818   N921    1.276   1_455 S
N818   H910    1.029   1_455 S
O819   Zn831   1.955   .     S
O822   H496    1.014   1_565 S
O823   Zn832   1.955   .     S
O824   Zn832   1.976   .     S
O825   Zn831   1.976   .     S
O826   Zn831   1.990   .     S
O827   Zn832   1.990   .     S
O828   Zn832   2.018   .     S
O829   Zn831   2.018   .     S
C833   O876    1.287   .     A
C833   O871    1.278   .     A
C833   C852    1.401   .     S
C834   C836    1.405   .     A
C834   C849    1.488   .     S
C834   C845    1.404   .     A
C835   C856    1.405   .     A
C835   C837    1.387   .     A
C835   C855    1.419   .     S
C836   C854    1.419   .     S
C836   C838    1.387   .     A
C837   H857    1.086   .     S
C837   C839    1.378   .     A
C838   H861    1.086   .     S
C838   C840    1.378   .     A
C839   C841    1.410   .     A
C839   C846    1.396   .     A
C840   C847    1.396   .     A
C840   C842    1.410   .     A
C841   C843    1.421   .     A
C842   C845    1.421   .     A
C842   C373    1.398   1_556 S
C843   C851    1.407   .     A
C843   C856    1.404   .     A
C844   C853    1.401   .     S
C844   O875    1.278   .     A
C844   O877    1.287   .     A
C845   C850    1.407   .     A
C846   H862    1.084   .     S
C847   H863    1.084   .     S
C847   C383    1.385   1_556 S
C848   C856    1.488   .     S
C848   O872    1.398   .     S
C848   O882    1.223   .     D
C849   O873    1.223   .     D
C849   O874    1.398   .     S
C850   H864    1.081   .     S
C850   C378    1.385   1_556 S
C851   H865    1.081   .     S
C852   C541    1.335   1_565 S
C852   H554    1.088   1_565 S
C854   O878    1.286   .     A
C854   O880    1.285   .     A
C855   O881    1.285   .     A
C855   O879    1.286   .     A
H858   N922    1.029   .     S
H859   O560    1.014   1_565 S
H867   C541    1.088   1_565 S
N869   Zn884   2.020   .     S
N869   H920    1.029   .     S
N869   N922    1.276   .     S
N870   Zn883   2.020   .     S
O871   Zn883   1.955   .     S
O874   H548    1.014   1_565 S
O875   Zn884   1.955   .     S
O876   Zn884   1.976   .     S
O877   Zn883   1.976   .     S
O878   Zn883   1.990   .     S
O879   Zn884   1.990   .     S
O880   Zn884   2.018   .     S
O881   Zn883   2.018   .     S
C885   O928    1.287   .     A
C885   O923    1.278   .     A
C885   C904    1.401   .     S
C886   C888    1.405   .     A
C886   C901    1.488   .     S
C886   C897    1.404   .     A
C887   C908    1.405   .     A
C887   C889    1.387   .     A
C887   C907    1.419   .     S
C888   C906    1.419   .     S
C888   C890    1.387   .     A
C889   H909    1.086   .     S
C889   C891    1.378   .     A
C890   H913    1.086   .     S
C890   C892    1.378   .     A
C891   C893    1.410   .     A
C891   C898    1.396   .     A
C892   C899    1.396   .     A
C892   C894    1.410   .     A
C893   C895    1.421   .     A
C894   C897    1.421   .     A
C894   C425    1.398   1_556 S
C895   C903    1.407   .     A
C895   C908    1.404   .     A
C896   C905    1.401   .     S
C896   O927    1.278   .     A
C896   O929    1.287   .     A
C897   C902    1.407   .     A
C898   H914    1.084   .     S
C899   H915    1.084   .     S
C899   C435    1.385   1_556 S
C900   C908    1.488   .     S
C900   O924    1.398   .     S
C900   O934    1.223   .     D
C901   O925    1.223   .     D
C901   O926    1.398   .     S
C902   H916    1.081   .     S
C902   C430    1.385   1_556 S
C903   H917    1.081   .     S
C904   C593    1.335   1_565 S
C904   H606    1.088   1_565 S
C906   O930    1.286   .     A
C906   O932    1.285   .     A
C907   O933    1.285   .     A
C907   O931    1.286   .     A
H910   N818    1.029   1_655 S
H911   O612    1.014   1_565 S
H919   C593    1.088   1_565 S
N921   Zn936   2.020   .     S
N921   H816    1.029   1_655 S
N921   N818    1.276   1_655 S
N922   Zn935   2.020   .     S
O923   Zn935   1.955   .     S
O926   H600    1.014   1_565 S
O927   Zn936   1.955   .     S
O928   Zn936   1.976   .     S
O929   Zn935   1.976   .     S
O930   Zn935   1.990   .     S
O931   Zn936   1.990   .     S
O932   Zn936   2.018   .     S
O933   Zn935   2.018   .     S
