data_str_m3_o2_o5_pcu_sym.113
_audit_creation_date              2020-01-03
_audit_creation_method            'Materials Studio'
_symmetry_space_group_name_H-M    'P1'
_symmetry_Int_Tables_number       1
_symmetry_cell_setting            triclinic
loop_
_symmetry_equiv_pos_as_xyz
  x,y,z
_cell_length_a                    29.9872
_cell_length_b                    28.4829
_cell_length_c                    26.7294
_cell_angle_alpha                 89.9999
_cell_angle_beta                  90.5256
_cell_angle_gamma                 90.0000
loop_
_atom_site_label
_atom_site_type_symbol
_atom_site_fract_x
_atom_site_fract_y
_atom_site_fract_z
_atom_site_U_iso_or_equiv
_atom_site_adp_type
_atom_site_occupancy
C1     C     0.16392   0.24997   0.16665   0.00000  Uiso   1.00
C2     C     0.22915   0.44742   0.12818   0.00000  Uiso   1.00
C3     C     0.24994   0.25000   0.07290   0.00000  Uiso   1.00
C4     C     0.25006   0.25000   0.26043   0.00000  Uiso   1.00
C5     C     0.25000   0.02678   0.16667   0.00000  Uiso   1.00
C6     C     0.25000   0.47341   0.16667   0.00000  Uiso   1.00
C7     C     0.24998   0.25001   0.02180   0.00000  Uiso   1.00
C8     C     0.25002   0.25001   0.31154   0.00000  Uiso   1.00
C9     C     0.04639   0.28492   0.14137   0.00000  Uiso   1.00
C10    C     0.45288   0.21359   0.14166   0.00000  Uiso   1.00
C11    C     0.45361   0.28491   0.19199   0.00000  Uiso   1.00
C12    C     0.33607   0.24997   0.16668   0.00000  Uiso   1.00
C13    C     0.04712   0.21358   0.19166   0.00000  Uiso   1.00
C14    C     0.09246   0.28530   0.14146   0.00000  Uiso   1.00
C15    C     0.40679   0.21379   0.14161   0.00000  Uiso   1.00
C16    C     0.40754   0.28529   0.19190   0.00000  Uiso   1.00
C17    C     0.09321   0.21377   0.19171   0.00000  Uiso   1.00
C18    C     0.11594   0.24975   0.16668   0.00000  Uiso   1.00
C19    C     0.38406   0.24975   0.16665   0.00000  Uiso   1.00
C20    C     0.02395   0.24915   0.16654   0.00000  Uiso   1.00
C21    C     0.47605   0.24915   0.16680   0.00000  Uiso   1.00
C22    C     0.21847   0.10231   0.13973   0.00000  Uiso   1.00
C23    C     0.27129   0.39786   0.20414   0.00000  Uiso   1.00
C24    C     0.28153   0.10231   0.19361   0.00000  Uiso   1.00
C25    C     0.22871   0.39786   0.12919   0.00000  Uiso   1.00
C26    C     0.21756   0.05276   0.13999   0.00000  Uiso   1.00
C27    C     0.27085   0.44742   0.20516   0.00000  Uiso   1.00
C28    C     0.28244   0.05276   0.19334   0.00000  Uiso   1.00
F29    F     0.02356   0.31891   0.11632   0.00000  Uiso   1.00
F30    F     0.47499   0.17935   0.11665   0.00000  Uiso   1.00
F31    F     0.47643   0.31888   0.21706   0.00000  Uiso   1.00
F32    F     0.02501   0.17933   0.21666   0.00000  Uiso   1.00
F33    F     0.11400   0.31952   0.11589   0.00000  Uiso   1.00
F34    F     0.38447   0.17969   0.11615   0.00000  Uiso   1.00
F35    F     0.38600   0.31950   0.21749   0.00000  Uiso   1.00
F36    F     0.11553   0.17966   0.21715   0.00000  Uiso   1.00
H37    H     0.19106   0.03529   0.11961   0.00000  Uiso   1.00
H38    H     0.34552   0.11827   0.20988   0.00000  Uiso   1.00
H39    H     0.17260   0.38421   0.08986   0.00000  Uiso   1.00
H40    H     0.22000   0.38166   0.05641   0.00000  Uiso   1.00
H41    H     0.28666   0.46491   0.23652   0.00000  Uiso   1.00
H42    H     0.30894   0.03529   0.21372   0.00000  Uiso   1.00
H43    H     0.21334   0.46491   0.09682   0.00000  Uiso   1.00
H44    H     0.18882   0.11727   0.07367   0.00000  Uiso   1.00
H45    H     0.15448   0.11827   0.12345   0.00000  Uiso   1.00
H46    H     0.28000   0.38166   0.27692   0.00000  Uiso   1.00
H47    H     0.32740   0.38421   0.24347   0.00000  Uiso   1.00
H48    H     0.31118   0.11727   0.25967   0.00000  Uiso   1.00
N49    N     0.25000   0.12624   0.16667   0.00000  Uiso   1.00
N50    N     0.25000   0.37376   0.16667   0.00000  Uiso   1.00
N51    N     0.18616   0.12779   0.11099   0.00000  Uiso   1.00
N52    N     0.29431   0.37269   0.24270   0.00000  Uiso   1.00
N53    N     0.31383   0.12779   0.22234   0.00000  Uiso   1.00
N54    N     0.20569   0.37269   0.09063   0.00000  Uiso   1.00
O55    O     0.18453   0.28974   0.16667   0.00000  Uiso   1.00
O56    O     0.31547   0.21026   0.16666   0.00000  Uiso   1.00
O57    O     0.31547   0.28974   0.16666   0.00000  Uiso   1.00
O58    O     0.18453   0.21026   0.16667   0.00000  Uiso   1.00
O59    O     0.25000   0.28973   0.09511   0.00000  Uiso   1.00
O60    O     0.25000   0.21027   0.23822   0.00000  Uiso   1.00
O61    O     0.25000   0.28973   0.23822   0.00000  Uiso   1.00
O62    O     0.25000   0.21027   0.09511   0.00000  Uiso   1.00
Zn63   Zn    0.25000   0.30307   0.16667   0.00000  Uiso   1.00
Zn64   Zn    0.25000   0.19693   0.16667   0.00000  Uiso   1.00
C65    C     0.66392   0.24997   0.16665   0.00000  Uiso   1.00
C66    C     0.72915   0.44742   0.12818   0.00000  Uiso   1.00
C67    C     0.74994   0.25000   0.07290   0.00000  Uiso   1.00
C68    C     0.75006   0.25000   0.26043   0.00000  Uiso   1.00
C69    C     0.75000   0.02678   0.16667   0.00000  Uiso   1.00
C70    C     0.75000   0.47341   0.16667   0.00000  Uiso   1.00
C71    C     0.74998   0.25001   0.02180   0.00000  Uiso   1.00
C72    C     0.75002   0.25001   0.31154   0.00000  Uiso   1.00
C73    C     0.54639   0.28492   0.14137   0.00000  Uiso   1.00
C74    C     0.95288   0.21359   0.14166   0.00000  Uiso   1.00
C75    C     0.95361   0.28491   0.19199   0.00000  Uiso   1.00
C76    C     0.83607   0.24997   0.16668   0.00000  Uiso   1.00
C77    C     0.54712   0.21358   0.19166   0.00000  Uiso   1.00
C78    C     0.59246   0.28530   0.14146   0.00000  Uiso   1.00
C79    C     0.90679   0.21379   0.14161   0.00000  Uiso   1.00
C80    C     0.90754   0.28529   0.19190   0.00000  Uiso   1.00
C81    C     0.59321   0.21377   0.19171   0.00000  Uiso   1.00
C82    C     0.61594   0.24975   0.16668   0.00000  Uiso   1.00
C83    C     0.88406   0.24975   0.16665   0.00000  Uiso   1.00
C84    C     0.52395   0.24915   0.16654   0.00000  Uiso   1.00
C85    C     0.97605   0.24915   0.16680   0.00000  Uiso   1.00
C86    C     0.71847   0.10231   0.13973   0.00000  Uiso   1.00
C87    C     0.77129   0.39786   0.20414   0.00000  Uiso   1.00
C88    C     0.78153   0.10231   0.19361   0.00000  Uiso   1.00
C89    C     0.72871   0.39786   0.12919   0.00000  Uiso   1.00
C90    C     0.71756   0.05276   0.13999   0.00000  Uiso   1.00
C91    C     0.77085   0.44742   0.20516   0.00000  Uiso   1.00
C92    C     0.78244   0.05276   0.19334   0.00000  Uiso   1.00
F93    F     0.52356   0.31891   0.11632   0.00000  Uiso   1.00
F94    F     0.97499   0.17935   0.11665   0.00000  Uiso   1.00
F95    F     0.97643   0.31888   0.21706   0.00000  Uiso   1.00
F96    F     0.52501   0.17933   0.21666   0.00000  Uiso   1.00
F97    F     0.61400   0.31952   0.11589   0.00000  Uiso   1.00
F98    F     0.88447   0.17969   0.11615   0.00000  Uiso   1.00
F99    F     0.88600   0.31950   0.21749   0.00000  Uiso   1.00
F100   F     0.61553   0.17966   0.21715   0.00000  Uiso   1.00
H101   H     0.69106   0.03529   0.11961   0.00000  Uiso   1.00
H102   H     0.84552   0.11827   0.20988   0.00000  Uiso   1.00
H103   H     0.67260   0.38421   0.08986   0.00000  Uiso   1.00
H104   H     0.72000   0.38166   0.05641   0.00000  Uiso   1.00
H105   H     0.78666   0.46491   0.23652   0.00000  Uiso   1.00
H106   H     0.80894   0.03529   0.21372   0.00000  Uiso   1.00
H107   H     0.71334   0.46491   0.09682   0.00000  Uiso   1.00
H108   H     0.68882   0.11727   0.07367   0.00000  Uiso   1.00
H109   H     0.65448   0.11827   0.12345   0.00000  Uiso   1.00
H110   H     0.78000   0.38166   0.27692   0.00000  Uiso   1.00
H111   H     0.82740   0.38421   0.24347   0.00000  Uiso   1.00
H112   H     0.81118   0.11727   0.25967   0.00000  Uiso   1.00
N113   N     0.75000   0.12624   0.16667   0.00000  Uiso   1.00
N114   N     0.75000   0.37376   0.16667   0.00000  Uiso   1.00
N115   N     0.68616   0.12779   0.11099   0.00000  Uiso   1.00
N116   N     0.79431   0.37269   0.24270   0.00000  Uiso   1.00
N117   N     0.81383   0.12779   0.22234   0.00000  Uiso   1.00
N118   N     0.70569   0.37269   0.09063   0.00000  Uiso   1.00
O119   O     0.68453   0.28974   0.16667   0.00000  Uiso   1.00
O120   O     0.81547   0.21026   0.16666   0.00000  Uiso   1.00
O121   O     0.81547   0.28974   0.16666   0.00000  Uiso   1.00
O122   O     0.68453   0.21026   0.16667   0.00000  Uiso   1.00
O123   O     0.75000   0.28973   0.09511   0.00000  Uiso   1.00
O124   O     0.75000   0.21027   0.23822   0.00000  Uiso   1.00
O125   O     0.75000   0.28973   0.23822   0.00000  Uiso   1.00
O126   O     0.75000   0.21027   0.09511   0.00000  Uiso   1.00
Zn127  Zn    0.75000   0.30307   0.16667   0.00000  Uiso   1.00
Zn128  Zn    0.75000   0.19693   0.16667   0.00000  Uiso   1.00
C129   C     0.16392   0.74997   0.16665   0.00000  Uiso   1.00
C130   C     0.22915   0.94742   0.12818   0.00000  Uiso   1.00
C131   C     0.24994   0.75000   0.07290   0.00000  Uiso   1.00
C132   C     0.25006   0.75000   0.26043   0.00000  Uiso   1.00
C133   C     0.25000   0.52678   0.16667   0.00000  Uiso   1.00
C134   C     0.25000   0.97341   0.16667   0.00000  Uiso   1.00
C135   C     0.24998   0.75001   0.02180   0.00000  Uiso   1.00
C136   C     0.25002   0.75001   0.31154   0.00000  Uiso   1.00
C137   C     0.04639   0.78492   0.14137   0.00000  Uiso   1.00
C138   C     0.45288   0.71359   0.14166   0.00000  Uiso   1.00
C139   C     0.45361   0.78491   0.19199   0.00000  Uiso   1.00
C140   C     0.33607   0.74997   0.16668   0.00000  Uiso   1.00
C141   C     0.04712   0.71358   0.19166   0.00000  Uiso   1.00
C142   C     0.09246   0.78530   0.14146   0.00000  Uiso   1.00
C143   C     0.40679   0.71379   0.14161   0.00000  Uiso   1.00
C144   C     0.40754   0.78529   0.19190   0.00000  Uiso   1.00
C145   C     0.09321   0.71377   0.19171   0.00000  Uiso   1.00
C146   C     0.11594   0.74975   0.16668   0.00000  Uiso   1.00
C147   C     0.38406   0.74975   0.16665   0.00000  Uiso   1.00
C148   C     0.02395   0.74915   0.16654   0.00000  Uiso   1.00
C149   C     0.47605   0.74915   0.16680   0.00000  Uiso   1.00
C150   C     0.21847   0.60231   0.13973   0.00000  Uiso   1.00
C151   C     0.27129   0.89786   0.20414   0.00000  Uiso   1.00
C152   C     0.28153   0.60231   0.19361   0.00000  Uiso   1.00
C153   C     0.22871   0.89786   0.12919   0.00000  Uiso   1.00
C154   C     0.21756   0.55276   0.13999   0.00000  Uiso   1.00
C155   C     0.27085   0.94742   0.20516   0.00000  Uiso   1.00
C156   C     0.28244   0.55276   0.19334   0.00000  Uiso   1.00
F157   F     0.02356   0.81891   0.11632   0.00000  Uiso   1.00
F158   F     0.47499   0.67935   0.11665   0.00000  Uiso   1.00
F159   F     0.47643   0.81888   0.21706   0.00000  Uiso   1.00
F160   F     0.02501   0.67933   0.21666   0.00000  Uiso   1.00
F161   F     0.11400   0.81952   0.11589   0.00000  Uiso   1.00
F162   F     0.38447   0.67969   0.11615   0.00000  Uiso   1.00
F163   F     0.38600   0.81950   0.21749   0.00000  Uiso   1.00
F164   F     0.11553   0.67966   0.21715   0.00000  Uiso   1.00
H165   H     0.19106   0.53529   0.11961   0.00000  Uiso   1.00
H166   H     0.34552   0.61827   0.20988   0.00000  Uiso   1.00
H167   H     0.17260   0.88421   0.08986   0.00000  Uiso   1.00
H168   H     0.22000   0.88166   0.05641   0.00000  Uiso   1.00
H169   H     0.28666   0.96491   0.23652   0.00000  Uiso   1.00
H170   H     0.30894   0.53529   0.21372   0.00000  Uiso   1.00
H171   H     0.21334   0.96491   0.09682   0.00000  Uiso   1.00
H172   H     0.18882   0.61727   0.07367   0.00000  Uiso   1.00
H173   H     0.15448   0.61827   0.12345   0.00000  Uiso   1.00
H174   H     0.28000   0.88166   0.27692   0.00000  Uiso   1.00
H175   H     0.32740   0.88421   0.24347   0.00000  Uiso   1.00
H176   H     0.31118   0.61727   0.25967   0.00000  Uiso   1.00
N177   N     0.25000   0.62624   0.16667   0.00000  Uiso   1.00
N178   N     0.25000   0.87376   0.16667   0.00000  Uiso   1.00
N179   N     0.18616   0.62779   0.11099   0.00000  Uiso   1.00
N180   N     0.29431   0.87269   0.24270   0.00000  Uiso   1.00
N181   N     0.31383   0.62779   0.22234   0.00000  Uiso   1.00
N182   N     0.20569   0.87269   0.09063   0.00000  Uiso   1.00
O183   O     0.18453   0.78974   0.16667   0.00000  Uiso   1.00
O184   O     0.31547   0.71026   0.16666   0.00000  Uiso   1.00
O185   O     0.31547   0.78974   0.16666   0.00000  Uiso   1.00
O186   O     0.18453   0.71026   0.16667   0.00000  Uiso   1.00
O187   O     0.25000   0.78973   0.09511   0.00000  Uiso   1.00
O188   O     0.25000   0.71027   0.23822   0.00000  Uiso   1.00
O189   O     0.25000   0.78973   0.23822   0.00000  Uiso   1.00
O190   O     0.25000   0.71027   0.09511   0.00000  Uiso   1.00
Zn191  Zn    0.25000   0.80307   0.16667   0.00000  Uiso   1.00
Zn192  Zn    0.25000   0.69693   0.16667   0.00000  Uiso   1.00
C193   C     0.66392   0.74997   0.16665   0.00000  Uiso   1.00
C194   C     0.72915   0.94742   0.12818   0.00000  Uiso   1.00
C195   C     0.74994   0.75000   0.07290   0.00000  Uiso   1.00
C196   C     0.75006   0.75000   0.26043   0.00000  Uiso   1.00
C197   C     0.75000   0.52678   0.16667   0.00000  Uiso   1.00
C198   C     0.75000   0.97341   0.16667   0.00000  Uiso   1.00
C199   C     0.74998   0.75001   0.02180   0.00000  Uiso   1.00
C200   C     0.75002   0.75001   0.31154   0.00000  Uiso   1.00
C201   C     0.54639   0.78492   0.14137   0.00000  Uiso   1.00
C202   C     0.95288   0.71359   0.14166   0.00000  Uiso   1.00
C203   C     0.95361   0.78491   0.19199   0.00000  Uiso   1.00
C204   C     0.83607   0.74997   0.16668   0.00000  Uiso   1.00
C205   C     0.54712   0.71358   0.19166   0.00000  Uiso   1.00
C206   C     0.59246   0.78530   0.14146   0.00000  Uiso   1.00
C207   C     0.90679   0.71379   0.14161   0.00000  Uiso   1.00
C208   C     0.90754   0.78529   0.19190   0.00000  Uiso   1.00
C209   C     0.59321   0.71377   0.19171   0.00000  Uiso   1.00
C210   C     0.61594   0.74975   0.16668   0.00000  Uiso   1.00
C211   C     0.88406   0.74975   0.16665   0.00000  Uiso   1.00
C212   C     0.52395   0.74915   0.16654   0.00000  Uiso   1.00
C213   C     0.97605   0.74915   0.16680   0.00000  Uiso   1.00
C214   C     0.71847   0.60231   0.13973   0.00000  Uiso   1.00
C215   C     0.77129   0.89786   0.20414   0.00000  Uiso   1.00
C216   C     0.78153   0.60231   0.19361   0.00000  Uiso   1.00
C217   C     0.72871   0.89786   0.12919   0.00000  Uiso   1.00
C218   C     0.71756   0.55276   0.13999   0.00000  Uiso   1.00
C219   C     0.77085   0.94742   0.20516   0.00000  Uiso   1.00
C220   C     0.78244   0.55276   0.19334   0.00000  Uiso   1.00
F221   F     0.52356   0.81891   0.11632   0.00000  Uiso   1.00
F222   F     0.97499   0.67935   0.11665   0.00000  Uiso   1.00
F223   F     0.97643   0.81888   0.21706   0.00000  Uiso   1.00
F224   F     0.52501   0.67933   0.21666   0.00000  Uiso   1.00
F225   F     0.61400   0.81952   0.11589   0.00000  Uiso   1.00
F226   F     0.88447   0.67969   0.11615   0.00000  Uiso   1.00
F227   F     0.88600   0.81950   0.21749   0.00000  Uiso   1.00
F228   F     0.61553   0.67966   0.21715   0.00000  Uiso   1.00
H229   H     0.69106   0.53529   0.11961   0.00000  Uiso   1.00
H230   H     0.84552   0.61827   0.20988   0.00000  Uiso   1.00
H231   H     0.67260   0.88421   0.08986   0.00000  Uiso   1.00
H232   H     0.72000   0.88166   0.05641   0.00000  Uiso   1.00
H233   H     0.78666   0.96491   0.23652   0.00000  Uiso   1.00
H234   H     0.80894   0.53529   0.21372   0.00000  Uiso   1.00
H235   H     0.71334   0.96491   0.09682   0.00000  Uiso   1.00
H236   H     0.68882   0.61727   0.07367   0.00000  Uiso   1.00
H237   H     0.65448   0.61827   0.12345   0.00000  Uiso   1.00
H238   H     0.78000   0.88166   0.27692   0.00000  Uiso   1.00
H239   H     0.82740   0.88421   0.24347   0.00000  Uiso   1.00
H240   H     0.81118   0.61727   0.25967   0.00000  Uiso   1.00
N241   N     0.75000   0.62624   0.16667   0.00000  Uiso   1.00
N242   N     0.75000   0.87376   0.16667   0.00000  Uiso   1.00
N243   N     0.68616   0.62779   0.11099   0.00000  Uiso   1.00
N244   N     0.79431   0.87269   0.24270   0.00000  Uiso   1.00
N245   N     0.81383   0.62779   0.22234   0.00000  Uiso   1.00
N246   N     0.70569   0.87269   0.09063   0.00000  Uiso   1.00
O247   O     0.68453   0.78974   0.16667   0.00000  Uiso   1.00
O248   O     0.81547   0.71026   0.16666   0.00000  Uiso   1.00
O249   O     0.81547   0.78974   0.16666   0.00000  Uiso   1.00
O250   O     0.68453   0.71026   0.16667   0.00000  Uiso   1.00
O251   O     0.75000   0.78973   0.09511   0.00000  Uiso   1.00
O252   O     0.75000   0.71027   0.23822   0.00000  Uiso   1.00
O253   O     0.75000   0.78973   0.23822   0.00000  Uiso   1.00
O254   O     0.75000   0.71027   0.09511   0.00000  Uiso   1.00
Zn255  Zn    0.75000   0.80307   0.16667   0.00000  Uiso   1.00
Zn256  Zn    0.75000   0.69693   0.16667   0.00000  Uiso   1.00
C257   C     0.16392   0.24997   0.49999   0.00000  Uiso   1.00
C258   C     0.22915   0.44742   0.46151   0.00000  Uiso   1.00
C259   C     0.24994   0.25000   0.40623   0.00000  Uiso   1.00
C260   C     0.25006   0.25000   0.59377   0.00000  Uiso   1.00
C261   C     0.25000   0.02678   0.50000   0.00000  Uiso   1.00
C262   C     0.25000   0.47341   0.50000   0.00000  Uiso   1.00
C263   C     0.24998   0.25001   0.35513   0.00000  Uiso   1.00
C264   C     0.25002   0.25001   0.64487   0.00000  Uiso   1.00
C265   C     0.04639   0.28492   0.47471   0.00000  Uiso   1.00
C266   C     0.45288   0.21359   0.47499   0.00000  Uiso   1.00
C267   C     0.45361   0.28491   0.52532   0.00000  Uiso   1.00
C268   C     0.33607   0.24997   0.50001   0.00000  Uiso   1.00
C269   C     0.04712   0.21358   0.52500   0.00000  Uiso   1.00
C270   C     0.09246   0.28530   0.47479   0.00000  Uiso   1.00
C271   C     0.40679   0.21379   0.47494   0.00000  Uiso   1.00
C272   C     0.40754   0.28529   0.52523   0.00000  Uiso   1.00
C273   C     0.09321   0.21377   0.52504   0.00000  Uiso   1.00
C274   C     0.11594   0.24975   0.50002   0.00000  Uiso   1.00
C275   C     0.38406   0.24975   0.49999   0.00000  Uiso   1.00
C276   C     0.02395   0.24915   0.49987   0.00000  Uiso   1.00
C277   C     0.47605   0.24915   0.50014   0.00000  Uiso   1.00
C278   C     0.21847   0.10231   0.47306   0.00000  Uiso   1.00
C279   C     0.27129   0.39786   0.53747   0.00000  Uiso   1.00
C280   C     0.28153   0.10231   0.52694   0.00000  Uiso   1.00
C281   C     0.22871   0.39786   0.46253   0.00000  Uiso   1.00
C282   C     0.21756   0.05276   0.47333   0.00000  Uiso   1.00
C283   C     0.27085   0.44742   0.53849   0.00000  Uiso   1.00
C284   C     0.28244   0.05276   0.52667   0.00000  Uiso   1.00
F285   F     0.02356   0.31891   0.44965   0.00000  Uiso   1.00
F286   F     0.47499   0.17935   0.44998   0.00000  Uiso   1.00
F287   F     0.47643   0.31888   0.55039   0.00000  Uiso   1.00
F288   F     0.02501   0.17933   0.54999   0.00000  Uiso   1.00
F289   F     0.11400   0.31952   0.44922   0.00000  Uiso   1.00
F290   F     0.38447   0.17969   0.44948   0.00000  Uiso   1.00
F291   F     0.38600   0.31950   0.55082   0.00000  Uiso   1.00
F292   F     0.11553   0.17966   0.55049   0.00000  Uiso   1.00
H293   H     0.19106   0.03529   0.45295   0.00000  Uiso   1.00
H294   H     0.34552   0.11827   0.54321   0.00000  Uiso   1.00
H295   H     0.17260   0.38421   0.42319   0.00000  Uiso   1.00
H296   H     0.22000   0.38166   0.38975   0.00000  Uiso   1.00
H297   H     0.28666   0.46491   0.56985   0.00000  Uiso   1.00
H298   H     0.30894   0.03529   0.54705   0.00000  Uiso   1.00
H299   H     0.21334   0.46491   0.43015   0.00000  Uiso   1.00
H300   H     0.18882   0.11727   0.40700   0.00000  Uiso   1.00
H301   H     0.15448   0.11827   0.45679   0.00000  Uiso   1.00
H302   H     0.28000   0.38166   0.61025   0.00000  Uiso   1.00
H303   H     0.32740   0.38421   0.57681   0.00000  Uiso   1.00
H304   H     0.31118   0.11727   0.59300   0.00000  Uiso   1.00
N305   N     0.25000   0.12624   0.50000   0.00000  Uiso   1.00
N306   N     0.25000   0.37376   0.50000   0.00000  Uiso   1.00
N307   N     0.18616   0.12779   0.44433   0.00000  Uiso   1.00
N308   N     0.29431   0.37269   0.57603   0.00000  Uiso   1.00
N309   N     0.31383   0.12779   0.55567   0.00000  Uiso   1.00
N310   N     0.20569   0.37269   0.42397   0.00000  Uiso   1.00
O311   O     0.18453   0.28974   0.50000   0.00000  Uiso   1.00
O312   O     0.31547   0.21026   0.50000   0.00000  Uiso   1.00
O313   O     0.31547   0.28974   0.50000   0.00000  Uiso   1.00
O314   O     0.18453   0.21026   0.50000   0.00000  Uiso   1.00
O315   O     0.25000   0.28973   0.42845   0.00000  Uiso   1.00
O316   O     0.25000   0.21027   0.57155   0.00000  Uiso   1.00
O317   O     0.25000   0.28973   0.57155   0.00000  Uiso   1.00
O318   O     0.25000   0.21027   0.42845   0.00000  Uiso   1.00
Zn319  Zn    0.25000   0.30307   0.50000   0.00000  Uiso   1.00
Zn320  Zn    0.25000   0.19693   0.50000   0.00000  Uiso   1.00
C321   C     0.66392   0.24997   0.49999   0.00000  Uiso   1.00
C322   C     0.72915   0.44742   0.46151   0.00000  Uiso   1.00
C323   C     0.74994   0.25000   0.40623   0.00000  Uiso   1.00
C324   C     0.75006   0.25000   0.59377   0.00000  Uiso   1.00
C325   C     0.75000   0.02678   0.50000   0.00000  Uiso   1.00
C326   C     0.75000   0.47341   0.50000   0.00000  Uiso   1.00
C327   C     0.74998   0.25001   0.35513   0.00000  Uiso   1.00
C328   C     0.75002   0.25001   0.64487   0.00000  Uiso   1.00
C329   C     0.54639   0.28492   0.47471   0.00000  Uiso   1.00
C330   C     0.95288   0.21359   0.47499   0.00000  Uiso   1.00
C331   C     0.95361   0.28491   0.52532   0.00000  Uiso   1.00
C332   C     0.83607   0.24997   0.50001   0.00000  Uiso   1.00
C333   C     0.54712   0.21358   0.52500   0.00000  Uiso   1.00
C334   C     0.59246   0.28530   0.47479   0.00000  Uiso   1.00
C335   C     0.90679   0.21379   0.47494   0.00000  Uiso   1.00
C336   C     0.90754   0.28529   0.52523   0.00000  Uiso   1.00
C337   C     0.59321   0.21377   0.52504   0.00000  Uiso   1.00
C338   C     0.61594   0.24975   0.50002   0.00000  Uiso   1.00
C339   C     0.88406   0.24975   0.49999   0.00000  Uiso   1.00
C340   C     0.52395   0.24915   0.49987   0.00000  Uiso   1.00
C341   C     0.97605   0.24915   0.50014   0.00000  Uiso   1.00
C342   C     0.71847   0.10231   0.47306   0.00000  Uiso   1.00
C343   C     0.77129   0.39786   0.53747   0.00000  Uiso   1.00
C344   C     0.78153   0.10231   0.52694   0.00000  Uiso   1.00
C345   C     0.72871   0.39786   0.46253   0.00000  Uiso   1.00
C346   C     0.71756   0.05276   0.47333   0.00000  Uiso   1.00
C347   C     0.77085   0.44742   0.53849   0.00000  Uiso   1.00
C348   C     0.78244   0.05276   0.52667   0.00000  Uiso   1.00
F349   F     0.52356   0.31891   0.44965   0.00000  Uiso   1.00
F350   F     0.97499   0.17935   0.44998   0.00000  Uiso   1.00
F351   F     0.97643   0.31888   0.55039   0.00000  Uiso   1.00
F352   F     0.52501   0.17933   0.54999   0.00000  Uiso   1.00
F353   F     0.61400   0.31952   0.44922   0.00000  Uiso   1.00
F354   F     0.88447   0.17969   0.44948   0.00000  Uiso   1.00
F355   F     0.88600   0.31950   0.55082   0.00000  Uiso   1.00
F356   F     0.61553   0.17966   0.55049   0.00000  Uiso   1.00
H357   H     0.69106   0.03529   0.45295   0.00000  Uiso   1.00
H358   H     0.84552   0.11827   0.54321   0.00000  Uiso   1.00
H359   H     0.67260   0.38421   0.42319   0.00000  Uiso   1.00
H360   H     0.72000   0.38166   0.38975   0.00000  Uiso   1.00
H361   H     0.78666   0.46491   0.56985   0.00000  Uiso   1.00
H362   H     0.80894   0.03529   0.54705   0.00000  Uiso   1.00
H363   H     0.71334   0.46491   0.43015   0.00000  Uiso   1.00
H364   H     0.68882   0.11727   0.40700   0.00000  Uiso   1.00
H365   H     0.65448   0.11827   0.45679   0.00000  Uiso   1.00
H366   H     0.78000   0.38166   0.61025   0.00000  Uiso   1.00
H367   H     0.82740   0.38421   0.57681   0.00000  Uiso   1.00
H368   H     0.81118   0.11727   0.59300   0.00000  Uiso   1.00
N369   N     0.75000   0.12624   0.50000   0.00000  Uiso   1.00
N370   N     0.75000   0.37376   0.50000   0.00000  Uiso   1.00
N371   N     0.68616   0.12779   0.44433   0.00000  Uiso   1.00
N372   N     0.79431   0.37269   0.57603   0.00000  Uiso   1.00
N373   N     0.81383   0.12779   0.55567   0.00000  Uiso   1.00
N374   N     0.70569   0.37269   0.42397   0.00000  Uiso   1.00
O375   O     0.68453   0.28974   0.50000   0.00000  Uiso   1.00
O376   O     0.81547   0.21026   0.50000   0.00000  Uiso   1.00
O377   O     0.81547   0.28974   0.50000   0.00000  Uiso   1.00
O378   O     0.68453   0.21026   0.50000   0.00000  Uiso   1.00
O379   O     0.75000   0.28973   0.42845   0.00000  Uiso   1.00
O380   O     0.75000   0.21027   0.57155   0.00000  Uiso   1.00
O381   O     0.75000   0.28973   0.57155   0.00000  Uiso   1.00
O382   O     0.75000   0.21027   0.42845   0.00000  Uiso   1.00
Zn383  Zn    0.75000   0.30307   0.50000   0.00000  Uiso   1.00
Zn384  Zn    0.75000   0.19693   0.50000   0.00000  Uiso   1.00
C385   C     0.16392   0.74997   0.49999   0.00000  Uiso   1.00
C386   C     0.22915   0.94742   0.46151   0.00000  Uiso   1.00
C387   C     0.24994   0.75000   0.40623   0.00000  Uiso   1.00
C388   C     0.25006   0.75000   0.59377   0.00000  Uiso   1.00
C389   C     0.25000   0.52678   0.50000   0.00000  Uiso   1.00
C390   C     0.25000   0.97341   0.50000   0.00000  Uiso   1.00
C391   C     0.24998   0.75001   0.35513   0.00000  Uiso   1.00
C392   C     0.25002   0.75001   0.64487   0.00000  Uiso   1.00
C393   C     0.04639   0.78492   0.47471   0.00000  Uiso   1.00
C394   C     0.45288   0.71359   0.47499   0.00000  Uiso   1.00
C395   C     0.45361   0.78491   0.52532   0.00000  Uiso   1.00
C396   C     0.33607   0.74997   0.50001   0.00000  Uiso   1.00
C397   C     0.04712   0.71358   0.52500   0.00000  Uiso   1.00
C398   C     0.09246   0.78530   0.47479   0.00000  Uiso   1.00
C399   C     0.40679   0.71379   0.47494   0.00000  Uiso   1.00
C400   C     0.40754   0.78529   0.52523   0.00000  Uiso   1.00
C401   C     0.09321   0.71377   0.52504   0.00000  Uiso   1.00
C402   C     0.11594   0.74975   0.50002   0.00000  Uiso   1.00
C403   C     0.38406   0.74975   0.49999   0.00000  Uiso   1.00
C404   C     0.02395   0.74915   0.49987   0.00000  Uiso   1.00
C405   C     0.47605   0.74915   0.50014   0.00000  Uiso   1.00
C406   C     0.21847   0.60231   0.47306   0.00000  Uiso   1.00
C407   C     0.27129   0.89786   0.53747   0.00000  Uiso   1.00
C408   C     0.28153   0.60231   0.52694   0.00000  Uiso   1.00
C409   C     0.22871   0.89786   0.46253   0.00000  Uiso   1.00
C410   C     0.21756   0.55276   0.47333   0.00000  Uiso   1.00
C411   C     0.27085   0.94742   0.53849   0.00000  Uiso   1.00
C412   C     0.28244   0.55276   0.52667   0.00000  Uiso   1.00
F413   F     0.02356   0.81891   0.44965   0.00000  Uiso   1.00
F414   F     0.47499   0.67935   0.44998   0.00000  Uiso   1.00
F415   F     0.47643   0.81888   0.55039   0.00000  Uiso   1.00
F416   F     0.02501   0.67933   0.54999   0.00000  Uiso   1.00
F417   F     0.11400   0.81952   0.44922   0.00000  Uiso   1.00
F418   F     0.38447   0.67969   0.44948   0.00000  Uiso   1.00
F419   F     0.38600   0.81950   0.55082   0.00000  Uiso   1.00
F420   F     0.11553   0.67966   0.55049   0.00000  Uiso   1.00
H421   H     0.19106   0.53529   0.45295   0.00000  Uiso   1.00
H422   H     0.34552   0.61827   0.54321   0.00000  Uiso   1.00
H423   H     0.17260   0.88421   0.42319   0.00000  Uiso   1.00
H424   H     0.22000   0.88166   0.38975   0.00000  Uiso   1.00
H425   H     0.28666   0.96491   0.56985   0.00000  Uiso   1.00
H426   H     0.30894   0.53529   0.54705   0.00000  Uiso   1.00
H427   H     0.21334   0.96491   0.43015   0.00000  Uiso   1.00
H428   H     0.18882   0.61727   0.40700   0.00000  Uiso   1.00
H429   H     0.15448   0.61827   0.45679   0.00000  Uiso   1.00
H430   H     0.28000   0.88166   0.61025   0.00000  Uiso   1.00
H431   H     0.32740   0.88421   0.57681   0.00000  Uiso   1.00
H432   H     0.31118   0.61727   0.59300   0.00000  Uiso   1.00
N433   N     0.25000   0.62624   0.50000   0.00000  Uiso   1.00
N434   N     0.25000   0.87376   0.50000   0.00000  Uiso   1.00
N435   N     0.18616   0.62779   0.44433   0.00000  Uiso   1.00
N436   N     0.29431   0.87269   0.57603   0.00000  Uiso   1.00
N437   N     0.31383   0.62779   0.55567   0.00000  Uiso   1.00
N438   N     0.20569   0.87269   0.42397   0.00000  Uiso   1.00
O439   O     0.18453   0.78974   0.50000   0.00000  Uiso   1.00
O440   O     0.31547   0.71026   0.50000   0.00000  Uiso   1.00
O441   O     0.31547   0.78974   0.50000   0.00000  Uiso   1.00
O442   O     0.18453   0.71026   0.50000   0.00000  Uiso   1.00
O443   O     0.25000   0.78973   0.42845   0.00000  Uiso   1.00
O444   O     0.25000   0.71027   0.57155   0.00000  Uiso   1.00
O445   O     0.25000   0.78973   0.57155   0.00000  Uiso   1.00
O446   O     0.25000   0.71027   0.42845   0.00000  Uiso   1.00
Zn447  Zn    0.25000   0.80307   0.50000   0.00000  Uiso   1.00
Zn448  Zn    0.25000   0.69693   0.50000   0.00000  Uiso   1.00
C449   C     0.66392   0.74997   0.49999   0.00000  Uiso   1.00
C450   C     0.72915   0.94742   0.46151   0.00000  Uiso   1.00
C451   C     0.74994   0.75000   0.40623   0.00000  Uiso   1.00
C452   C     0.75006   0.75000   0.59377   0.00000  Uiso   1.00
C453   C     0.75000   0.52678   0.50000   0.00000  Uiso   1.00
C454   C     0.75000   0.97341   0.50000   0.00000  Uiso   1.00
C455   C     0.74998   0.75001   0.35513   0.00000  Uiso   1.00
C456   C     0.75002   0.75001   0.64487   0.00000  Uiso   1.00
C457   C     0.54639   0.78492   0.47471   0.00000  Uiso   1.00
C458   C     0.95288   0.71359   0.47499   0.00000  Uiso   1.00
C459   C     0.95361   0.78491   0.52532   0.00000  Uiso   1.00
C460   C     0.83607   0.74997   0.50001   0.00000  Uiso   1.00
C461   C     0.54712   0.71358   0.52500   0.00000  Uiso   1.00
C462   C     0.59246   0.78530   0.47479   0.00000  Uiso   1.00
C463   C     0.90679   0.71379   0.47494   0.00000  Uiso   1.00
C464   C     0.90754   0.78529   0.52523   0.00000  Uiso   1.00
C465   C     0.59321   0.71377   0.52504   0.00000  Uiso   1.00
C466   C     0.61594   0.74975   0.50002   0.00000  Uiso   1.00
C467   C     0.88406   0.74975   0.49999   0.00000  Uiso   1.00
C468   C     0.52395   0.74915   0.49987   0.00000  Uiso   1.00
C469   C     0.97605   0.74915   0.50014   0.00000  Uiso   1.00
C470   C     0.71847   0.60231   0.47306   0.00000  Uiso   1.00
C471   C     0.77129   0.89786   0.53747   0.00000  Uiso   1.00
C472   C     0.78153   0.60231   0.52694   0.00000  Uiso   1.00
C473   C     0.72871   0.89786   0.46253   0.00000  Uiso   1.00
C474   C     0.71756   0.55276   0.47333   0.00000  Uiso   1.00
C475   C     0.77085   0.94742   0.53849   0.00000  Uiso   1.00
C476   C     0.78244   0.55276   0.52667   0.00000  Uiso   1.00
F477   F     0.52356   0.81891   0.44965   0.00000  Uiso   1.00
F478   F     0.97499   0.67935   0.44998   0.00000  Uiso   1.00
F479   F     0.97643   0.81888   0.55039   0.00000  Uiso   1.00
F480   F     0.52501   0.67933   0.54999   0.00000  Uiso   1.00
F481   F     0.61400   0.81952   0.44922   0.00000  Uiso   1.00
F482   F     0.88447   0.67969   0.44948   0.00000  Uiso   1.00
F483   F     0.88600   0.81950   0.55082   0.00000  Uiso   1.00
F484   F     0.61553   0.67966   0.55049   0.00000  Uiso   1.00
H485   H     0.69106   0.53529   0.45295   0.00000  Uiso   1.00
H486   H     0.84552   0.61827   0.54321   0.00000  Uiso   1.00
H487   H     0.67260   0.88421   0.42319   0.00000  Uiso   1.00
H488   H     0.72000   0.88166   0.38975   0.00000  Uiso   1.00
H489   H     0.78666   0.96491   0.56985   0.00000  Uiso   1.00
H490   H     0.80894   0.53529   0.54705   0.00000  Uiso   1.00
H491   H     0.71334   0.96491   0.43015   0.00000  Uiso   1.00
H492   H     0.68882   0.61727   0.40700   0.00000  Uiso   1.00
H493   H     0.65448   0.61827   0.45679   0.00000  Uiso   1.00
H494   H     0.78000   0.88166   0.61025   0.00000  Uiso   1.00
H495   H     0.82740   0.88421   0.57681   0.00000  Uiso   1.00
H496   H     0.81118   0.61727   0.59300   0.00000  Uiso   1.00
N497   N     0.75000   0.62624   0.50000   0.00000  Uiso   1.00
N498   N     0.75000   0.87376   0.50000   0.00000  Uiso   1.00
N499   N     0.68616   0.62779   0.44433   0.00000  Uiso   1.00
N500   N     0.79431   0.87269   0.57603   0.00000  Uiso   1.00
N501   N     0.81383   0.62779   0.55567   0.00000  Uiso   1.00
N502   N     0.70569   0.87269   0.42397   0.00000  Uiso   1.00
O503   O     0.68453   0.78974   0.50000   0.00000  Uiso   1.00
O504   O     0.81547   0.71026   0.50000   0.00000  Uiso   1.00
O505   O     0.81547   0.78974   0.50000   0.00000  Uiso   1.00
O506   O     0.68453   0.71026   0.50000   0.00000  Uiso   1.00
O507   O     0.75000   0.78973   0.42845   0.00000  Uiso   1.00
O508   O     0.75000   0.71027   0.57155   0.00000  Uiso   1.00
O509   O     0.75000   0.78973   0.57155   0.00000  Uiso   1.00
O510   O     0.75000   0.71027   0.42845   0.00000  Uiso   1.00
Zn511  Zn    0.75000   0.80307   0.50000   0.00000  Uiso   1.00
Zn512  Zn    0.75000   0.69693   0.50000   0.00000  Uiso   1.00
C513   C     0.16392   0.24997   0.83332   0.00000  Uiso   1.00
C514   C     0.22915   0.44742   0.79484   0.00000  Uiso   1.00
C515   C     0.24994   0.25000   0.73957   0.00000  Uiso   1.00
C516   C     0.25006   0.25000   0.92710   0.00000  Uiso   1.00
C517   C     0.25000   0.02678   0.83333   0.00000  Uiso   1.00
C518   C     0.25000   0.47341   0.83333   0.00000  Uiso   1.00
C519   C     0.24998   0.25001   0.68846   0.00000  Uiso   1.00
C520   C     0.25002   0.25001   0.97820   0.00000  Uiso   1.00
C521   C     0.04639   0.28492   0.80804   0.00000  Uiso   1.00
C522   C     0.45288   0.21359   0.80833   0.00000  Uiso   1.00
C523   C     0.45361   0.28491   0.85865   0.00000  Uiso   1.00
C524   C     0.33607   0.24997   0.83335   0.00000  Uiso   1.00
C525   C     0.04712   0.21358   0.85833   0.00000  Uiso   1.00
C526   C     0.09246   0.28530   0.80813   0.00000  Uiso   1.00
C527   C     0.40679   0.21379   0.80828   0.00000  Uiso   1.00
C528   C     0.40754   0.28529   0.85856   0.00000  Uiso   1.00
C529   C     0.09321   0.21377   0.85838   0.00000  Uiso   1.00
C530   C     0.11594   0.24975   0.83335   0.00000  Uiso   1.00
C531   C     0.38406   0.24975   0.83332   0.00000  Uiso   1.00
C532   C     0.02395   0.24915   0.83321   0.00000  Uiso   1.00
C533   C     0.47605   0.24915   0.83347   0.00000  Uiso   1.00
C534   C     0.21847   0.10231   0.80639   0.00000  Uiso   1.00
C535   C     0.27129   0.39786   0.87081   0.00000  Uiso   1.00
C536   C     0.28153   0.10231   0.86027   0.00000  Uiso   1.00
C537   C     0.22871   0.39786   0.79586   0.00000  Uiso   1.00
C538   C     0.21756   0.05276   0.80666   0.00000  Uiso   1.00
C539   C     0.27085   0.44742   0.87182   0.00000  Uiso   1.00
C540   C     0.28244   0.05276   0.86001   0.00000  Uiso   1.00
F541   F     0.02356   0.31891   0.78299   0.00000  Uiso   1.00
F542   F     0.47499   0.17935   0.78332   0.00000  Uiso   1.00
F543   F     0.47643   0.31888   0.88373   0.00000  Uiso   1.00
F544   F     0.02501   0.17933   0.88332   0.00000  Uiso   1.00
F545   F     0.11400   0.31952   0.78255   0.00000  Uiso   1.00
F546   F     0.38447   0.17969   0.78282   0.00000  Uiso   1.00
F547   F     0.38600   0.31950   0.88415   0.00000  Uiso   1.00
F548   F     0.11553   0.17966   0.88382   0.00000  Uiso   1.00
H549   H     0.19106   0.03529   0.78628   0.00000  Uiso   1.00
H550   H     0.34552   0.11827   0.87655   0.00000  Uiso   1.00
H551   H     0.17260   0.38421   0.75653   0.00000  Uiso   1.00
H552   H     0.22000   0.38166   0.72308   0.00000  Uiso   1.00
H553   H     0.28666   0.46491   0.90318   0.00000  Uiso   1.00
H554   H     0.30894   0.03529   0.88039   0.00000  Uiso   1.00
H555   H     0.21334   0.46491   0.76348   0.00000  Uiso   1.00
H556   H     0.18882   0.11727   0.74033   0.00000  Uiso   1.00
H557   H     0.15448   0.11827   0.79012   0.00000  Uiso   1.00
H558   H     0.28000   0.38166   0.94359   0.00000  Uiso   1.00
H559   H     0.32740   0.38421   0.91014   0.00000  Uiso   1.00
H560   H     0.31118   0.11727   0.92633   0.00000  Uiso   1.00
N561   N     0.25000   0.12624   0.83333   0.00000  Uiso   1.00
N562   N     0.25000   0.37376   0.83333   0.00000  Uiso   1.00
N563   N     0.18616   0.12779   0.77766   0.00000  Uiso   1.00
N564   N     0.29431   0.37269   0.90937   0.00000  Uiso   1.00
N565   N     0.31383   0.12779   0.88901   0.00000  Uiso   1.00
N566   N     0.20569   0.37269   0.75730   0.00000  Uiso   1.00
O567   O     0.18453   0.28974   0.83334   0.00000  Uiso   1.00
O568   O     0.31547   0.21026   0.83333   0.00000  Uiso   1.00
O569   O     0.31547   0.28974   0.83333   0.00000  Uiso   1.00
O570   O     0.18453   0.21026   0.83334   0.00000  Uiso   1.00
O571   O     0.25000   0.28973   0.76178   0.00000  Uiso   1.00
O572   O     0.25000   0.21027   0.90489   0.00000  Uiso   1.00
O573   O     0.25000   0.28973   0.90489   0.00000  Uiso   1.00
O574   O     0.25000   0.21027   0.76178   0.00000  Uiso   1.00
Zn575  Zn    0.25000   0.30307   0.83333   0.00000  Uiso   1.00
Zn576  Zn    0.25000   0.19693   0.83333   0.00000  Uiso   1.00
C577   C     0.66392   0.24997   0.83332   0.00000  Uiso   1.00
C578   C     0.72915   0.44742   0.79484   0.00000  Uiso   1.00
C579   C     0.74994   0.25000   0.73957   0.00000  Uiso   1.00
C580   C     0.75006   0.25000   0.92710   0.00000  Uiso   1.00
C581   C     0.75000   0.02678   0.83333   0.00000  Uiso   1.00
C582   C     0.75000   0.47341   0.83333   0.00000  Uiso   1.00
C583   C     0.74998   0.25001   0.68846   0.00000  Uiso   1.00
C584   C     0.75002   0.25001   0.97820   0.00000  Uiso   1.00
C585   C     0.54639   0.28492   0.80804   0.00000  Uiso   1.00
C586   C     0.95288   0.21359   0.80833   0.00000  Uiso   1.00
C587   C     0.95361   0.28491   0.85865   0.00000  Uiso   1.00
C588   C     0.83607   0.24997   0.83335   0.00000  Uiso   1.00
C589   C     0.54712   0.21358   0.85833   0.00000  Uiso   1.00
C590   C     0.59246   0.28530   0.80813   0.00000  Uiso   1.00
C591   C     0.90679   0.21379   0.80828   0.00000  Uiso   1.00
C592   C     0.90754   0.28529   0.85856   0.00000  Uiso   1.00
C593   C     0.59321   0.21377   0.85838   0.00000  Uiso   1.00
C594   C     0.61594   0.24975   0.83335   0.00000  Uiso   1.00
C595   C     0.88406   0.24975   0.83332   0.00000  Uiso   1.00
C596   C     0.52395   0.24915   0.83321   0.00000  Uiso   1.00
C597   C     0.97605   0.24915   0.83347   0.00000  Uiso   1.00
C598   C     0.71847   0.10231   0.80639   0.00000  Uiso   1.00
C599   C     0.77129   0.39786   0.87081   0.00000  Uiso   1.00
C600   C     0.78153   0.10231   0.86027   0.00000  Uiso   1.00
C601   C     0.72871   0.39786   0.79586   0.00000  Uiso   1.00
C602   C     0.71756   0.05276   0.80666   0.00000  Uiso   1.00
C603   C     0.77085   0.44742   0.87182   0.00000  Uiso   1.00
C604   C     0.78244   0.05276   0.86001   0.00000  Uiso   1.00
F605   F     0.52356   0.31891   0.78299   0.00000  Uiso   1.00
F606   F     0.97499   0.17935   0.78332   0.00000  Uiso   1.00
F607   F     0.97643   0.31888   0.88373   0.00000  Uiso   1.00
F608   F     0.52501   0.17933   0.88332   0.00000  Uiso   1.00
F609   F     0.61400   0.31952   0.78255   0.00000  Uiso   1.00
F610   F     0.88447   0.17969   0.78282   0.00000  Uiso   1.00
F611   F     0.88600   0.31950   0.88415   0.00000  Uiso   1.00
F612   F     0.61553   0.17966   0.88382   0.00000  Uiso   1.00
H613   H     0.69106   0.03529   0.78628   0.00000  Uiso   1.00
H614   H     0.84552   0.11827   0.87655   0.00000  Uiso   1.00
H615   H     0.67260   0.38421   0.75653   0.00000  Uiso   1.00
H616   H     0.72000   0.38166   0.72308   0.00000  Uiso   1.00
H617   H     0.78666   0.46491   0.90318   0.00000  Uiso   1.00
H618   H     0.80894   0.03529   0.88039   0.00000  Uiso   1.00
H619   H     0.71334   0.46491   0.76348   0.00000  Uiso   1.00
H620   H     0.68882   0.11727   0.74033   0.00000  Uiso   1.00
H621   H     0.65448   0.11827   0.79012   0.00000  Uiso   1.00
H622   H     0.78000   0.38166   0.94359   0.00000  Uiso   1.00
H623   H     0.82740   0.38421   0.91014   0.00000  Uiso   1.00
H624   H     0.81118   0.11727   0.92633   0.00000  Uiso   1.00
N625   N     0.75000   0.12624   0.83333   0.00000  Uiso   1.00
N626   N     0.75000   0.37376   0.83333   0.00000  Uiso   1.00
N627   N     0.68616   0.12779   0.77766   0.00000  Uiso   1.00
N628   N     0.79431   0.37269   0.90937   0.00000  Uiso   1.00
N629   N     0.81383   0.12779   0.88901   0.00000  Uiso   1.00
N630   N     0.70569   0.37269   0.75730   0.00000  Uiso   1.00
O631   O     0.68453   0.28974   0.83334   0.00000  Uiso   1.00
O632   O     0.81547   0.21026   0.83333   0.00000  Uiso   1.00
O633   O     0.81547   0.28974   0.83333   0.00000  Uiso   1.00
O634   O     0.68453   0.21026   0.83334   0.00000  Uiso   1.00
O635   O     0.75000   0.28973   0.76178   0.00000  Uiso   1.00
O636   O     0.75000   0.21027   0.90489   0.00000  Uiso   1.00
O637   O     0.75000   0.28973   0.90489   0.00000  Uiso   1.00
O638   O     0.75000   0.21027   0.76178   0.00000  Uiso   1.00
Zn639  Zn    0.75000   0.30307   0.83333   0.00000  Uiso   1.00
Zn640  Zn    0.75000   0.19693   0.83333   0.00000  Uiso   1.00
C641   C     0.16392   0.74997   0.83332   0.00000  Uiso   1.00
C642   C     0.22915   0.94742   0.79484   0.00000  Uiso   1.00
C643   C     0.24994   0.75000   0.73957   0.00000  Uiso   1.00
C644   C     0.25006   0.75000   0.92710   0.00000  Uiso   1.00
C645   C     0.25000   0.52678   0.83333   0.00000  Uiso   1.00
C646   C     0.25000   0.97341   0.83333   0.00000  Uiso   1.00
C647   C     0.24998   0.75001   0.68846   0.00000  Uiso   1.00
C648   C     0.25002   0.75001   0.97820   0.00000  Uiso   1.00
C649   C     0.04639   0.78492   0.80804   0.00000  Uiso   1.00
C650   C     0.45288   0.71359   0.80833   0.00000  Uiso   1.00
C651   C     0.45361   0.78491   0.85865   0.00000  Uiso   1.00
C652   C     0.33607   0.74997   0.83335   0.00000  Uiso   1.00
C653   C     0.04712   0.71358   0.85833   0.00000  Uiso   1.00
C654   C     0.09246   0.78530   0.80813   0.00000  Uiso   1.00
C655   C     0.40679   0.71379   0.80828   0.00000  Uiso   1.00
C656   C     0.40754   0.78529   0.85856   0.00000  Uiso   1.00
C657   C     0.09321   0.71377   0.85838   0.00000  Uiso   1.00
C658   C     0.11594   0.74975   0.83335   0.00000  Uiso   1.00
C659   C     0.38406   0.74975   0.83332   0.00000  Uiso   1.00
C660   C     0.02395   0.74915   0.83321   0.00000  Uiso   1.00
C661   C     0.47605   0.74915   0.83347   0.00000  Uiso   1.00
C662   C     0.21847   0.60231   0.80639   0.00000  Uiso   1.00
C663   C     0.27129   0.89786   0.87081   0.00000  Uiso   1.00
C664   C     0.28153   0.60231   0.86027   0.00000  Uiso   1.00
C665   C     0.22871   0.89786   0.79586   0.00000  Uiso   1.00
C666   C     0.21756   0.55276   0.80666   0.00000  Uiso   1.00
C667   C     0.27085   0.94742   0.87182   0.00000  Uiso   1.00
C668   C     0.28244   0.55276   0.86001   0.00000  Uiso   1.00
F669   F     0.02356   0.81891   0.78299   0.00000  Uiso   1.00
F670   F     0.47499   0.67935   0.78332   0.00000  Uiso   1.00
F671   F     0.47643   0.81888   0.88373   0.00000  Uiso   1.00
F672   F     0.02501   0.67933   0.88332   0.00000  Uiso   1.00
F673   F     0.11400   0.81952   0.78255   0.00000  Uiso   1.00
F674   F     0.38447   0.67969   0.78282   0.00000  Uiso   1.00
F675   F     0.38600   0.81950   0.88415   0.00000  Uiso   1.00
F676   F     0.11553   0.67966   0.88382   0.00000  Uiso   1.00
H677   H     0.19106   0.53529   0.78628   0.00000  Uiso   1.00
H678   H     0.34552   0.61827   0.87655   0.00000  Uiso   1.00
H679   H     0.17260   0.88421   0.75653   0.00000  Uiso   1.00
H680   H     0.22000   0.88166   0.72308   0.00000  Uiso   1.00
H681   H     0.28666   0.96491   0.90318   0.00000  Uiso   1.00
H682   H     0.30894   0.53529   0.88039   0.00000  Uiso   1.00
H683   H     0.21334   0.96491   0.76348   0.00000  Uiso   1.00
H684   H     0.18882   0.61727   0.74033   0.00000  Uiso   1.00
H685   H     0.15448   0.61827   0.79012   0.00000  Uiso   1.00
H686   H     0.28000   0.88166   0.94359   0.00000  Uiso   1.00
H687   H     0.32740   0.88421   0.91014   0.00000  Uiso   1.00
H688   H     0.31118   0.61727   0.92633   0.00000  Uiso   1.00
N689   N     0.25000   0.62624   0.83333   0.00000  Uiso   1.00
N690   N     0.25000   0.87376   0.83333   0.00000  Uiso   1.00
N691   N     0.18616   0.62779   0.77766   0.00000  Uiso   1.00
N692   N     0.29431   0.87269   0.90937   0.00000  Uiso   1.00
N693   N     0.31383   0.62779   0.88901   0.00000  Uiso   1.00
N694   N     0.20569   0.87269   0.75730   0.00000  Uiso   1.00
O695   O     0.18453   0.78974   0.83334   0.00000  Uiso   1.00
O696   O     0.31547   0.71026   0.83333   0.00000  Uiso   1.00
O697   O     0.31547   0.78974   0.83333   0.00000  Uiso   1.00
O698   O     0.18453   0.71026   0.83334   0.00000  Uiso   1.00
O699   O     0.25000   0.78973   0.76178   0.00000  Uiso   1.00
O700   O     0.25000   0.71027   0.90489   0.00000  Uiso   1.00
O701   O     0.25000   0.78973   0.90489   0.00000  Uiso   1.00
O702   O     0.25000   0.71027   0.76178   0.00000  Uiso   1.00
Zn703  Zn    0.25000   0.80307   0.83333   0.00000  Uiso   1.00
Zn704  Zn    0.25000   0.69693   0.83333   0.00000  Uiso   1.00
C705   C     0.66392   0.74997   0.83332   0.00000  Uiso   1.00
C706   C     0.72915   0.94742   0.79484   0.00000  Uiso   1.00
C707   C     0.74994   0.75000   0.73957   0.00000  Uiso   1.00
C708   C     0.75006   0.75000   0.92710   0.00000  Uiso   1.00
C709   C     0.75000   0.52678   0.83333   0.00000  Uiso   1.00
C710   C     0.75000   0.97341   0.83333   0.00000  Uiso   1.00
C711   C     0.74998   0.75001   0.68846   0.00000  Uiso   1.00
C712   C     0.75002   0.75001   0.97820   0.00000  Uiso   1.00
C713   C     0.54639   0.78492   0.80804   0.00000  Uiso   1.00
C714   C     0.95288   0.71359   0.80833   0.00000  Uiso   1.00
C715   C     0.95361   0.78491   0.85865   0.00000  Uiso   1.00
C716   C     0.83607   0.74997   0.83335   0.00000  Uiso   1.00
C717   C     0.54712   0.71358   0.85833   0.00000  Uiso   1.00
C718   C     0.59246   0.78530   0.80813   0.00000  Uiso   1.00
C719   C     0.90679   0.71379   0.80828   0.00000  Uiso   1.00
C720   C     0.90754   0.78529   0.85856   0.00000  Uiso   1.00
C721   C     0.59321   0.71377   0.85838   0.00000  Uiso   1.00
C722   C     0.61594   0.74975   0.83335   0.00000  Uiso   1.00
C723   C     0.88406   0.74975   0.83332   0.00000  Uiso   1.00
C724   C     0.52395   0.74915   0.83321   0.00000  Uiso   1.00
C725   C     0.97605   0.74915   0.83347   0.00000  Uiso   1.00
C726   C     0.71847   0.60231   0.80639   0.00000  Uiso   1.00
C727   C     0.77129   0.89786   0.87081   0.00000  Uiso   1.00
C728   C     0.78153   0.60231   0.86027   0.00000  Uiso   1.00
C729   C     0.72871   0.89786   0.79586   0.00000  Uiso   1.00
C730   C     0.71756   0.55276   0.80666   0.00000  Uiso   1.00
C731   C     0.77085   0.94742   0.87182   0.00000  Uiso   1.00
C732   C     0.78244   0.55276   0.86001   0.00000  Uiso   1.00
F733   F     0.52356   0.81891   0.78299   0.00000  Uiso   1.00
F734   F     0.97499   0.67935   0.78332   0.00000  Uiso   1.00
F735   F     0.97643   0.81888   0.88373   0.00000  Uiso   1.00
F736   F     0.52501   0.67933   0.88332   0.00000  Uiso   1.00
F737   F     0.61400   0.81952   0.78255   0.00000  Uiso   1.00
F738   F     0.88447   0.67969   0.78282   0.00000  Uiso   1.00
F739   F     0.88600   0.81950   0.88415   0.00000  Uiso   1.00
F740   F     0.61553   0.67966   0.88382   0.00000  Uiso   1.00
H741   H     0.69106   0.53529   0.78628   0.00000  Uiso   1.00
H742   H     0.84552   0.61827   0.87655   0.00000  Uiso   1.00
H743   H     0.67260   0.88421   0.75653   0.00000  Uiso   1.00
H744   H     0.72000   0.88166   0.72308   0.00000  Uiso   1.00
H745   H     0.78666   0.96491   0.90318   0.00000  Uiso   1.00
H746   H     0.80894   0.53529   0.88039   0.00000  Uiso   1.00
H747   H     0.71334   0.96491   0.76348   0.00000  Uiso   1.00
H748   H     0.68882   0.61727   0.74033   0.00000  Uiso   1.00
H749   H     0.65448   0.61827   0.79012   0.00000  Uiso   1.00
H750   H     0.78000   0.88166   0.94359   0.00000  Uiso   1.00
H751   H     0.82740   0.88421   0.91014   0.00000  Uiso   1.00
H752   H     0.81118   0.61727   0.92633   0.00000  Uiso   1.00
N753   N     0.75000   0.62624   0.83333   0.00000  Uiso   1.00
N754   N     0.75000   0.87376   0.83333   0.00000  Uiso   1.00
N755   N     0.68616   0.62779   0.77766   0.00000  Uiso   1.00
N756   N     0.79431   0.87269   0.90937   0.00000  Uiso   1.00
N757   N     0.81383   0.62779   0.88901   0.00000  Uiso   1.00
N758   N     0.70569   0.87269   0.75730   0.00000  Uiso   1.00
O759   O     0.68453   0.78974   0.83334   0.00000  Uiso   1.00
O760   O     0.81547   0.71026   0.83333   0.00000  Uiso   1.00
O761   O     0.81547   0.78974   0.83333   0.00000  Uiso   1.00
O762   O     0.68453   0.71026   0.83334   0.00000  Uiso   1.00
O763   O     0.75000   0.78973   0.76178   0.00000  Uiso   1.00
O764   O     0.75000   0.71027   0.90489   0.00000  Uiso   1.00
O765   O     0.75000   0.78973   0.90489   0.00000  Uiso   1.00
O766   O     0.75000   0.71027   0.76178   0.00000  Uiso   1.00
Zn767  Zn    0.75000   0.80307   0.83333   0.00000  Uiso   1.00
Zn768  Zn    0.75000   0.69693   0.83333   0.00000  Uiso   1.00
loop_
_geom_bond_atom_site_label_1
_geom_bond_atom_site_label_2
_geom_bond_distance
_geom_bond_site_symmetry_2
_ccdc_geom_bond_type
C1     C18     1.439   .     S
C1     O58     1.289   .     A
C1     O55     1.290   .     A
C2     H43     1.081   .     S
C2     C6      1.409   .     A
C2     C25     1.412   .     A
C3     C7      1.366   .     S
C3     O62     1.278   .     A
C3     O59     1.278   .     A
C4     C8      1.366   .     S
C4     O60     1.278   .     A
C4     O61     1.278   .     A
C5     C28     1.410   .     A
C5     C26     1.410   .     A
C5     C134    1.520   1_545 S
C6     C27     1.409   .     A
C6     C133    1.520   .     S
C7     C520    1.165   1_554 S
C8     C263    1.165   .     S
C9     C14     1.382   .     A
C9     F29     1.359   .     S
C9     C20     1.397   .     A
C10    C15     1.382   .     A
C10    C21     1.397   .     A
C10    F30     1.359   .     S
C11    C16     1.382   .     A
C11    F31     1.359   .     S
C11    C21     1.397   .     A
C12    O56     1.289   .     A
C12    O57     1.290   .     A
C12    C19     1.439   .     S
C13    C17     1.382   .     A
C13    C20     1.397   .     A
C13    F32     1.359   .     S
C14    C18     1.403   .     A
C14    F33     1.357   .     S
C15    F34     1.359   .     S
C15    C19     1.404   .     A
C16    F35     1.357   .     S
C16    C19     1.403   .     A
C17    F36     1.359   .     S
C17    C18     1.404   .     A
C20    C85     1.436   1_455 S
C21    C84     1.436   .     S
C22    N49     1.365   .     A
C22    C26     1.412   .     A
C22    N51     1.429   .     S
C23    N52     1.428   .     S
C23    N50     1.368   .     A
C23    C27     1.412   .     A
C24    N49     1.366   .     A
C24    N53     1.429   .     S
C24    C28     1.411   .     A
C25    N54     1.428   .     S
C25    N50     1.368   .     A
C26    H37     1.081   .     S
C27    H41     1.081   .     S
C28    H42     1.081   .     S
H38    N53     1.046   .     S
H39    N54     1.045   .     S
H40    N54     1.046   .     S
H44    N51     1.045   .     S
H45    N51     1.046   .     S
H46    N52     1.046   .     S
H47    N52     1.045   .     S
H48    N53     1.045   .     S
N49    Zn64    2.014   .     S
N50    Zn63    2.014   .     S
O55    Zn63    2.000   .     S
O56    Zn64    2.000   .     S
O57    Zn63    2.000   .     S
O58    Zn64    2.000   .     S
O59    Zn63    1.950   .     S
O60    Zn64    1.950   .     S
O61    Zn63    1.950   .     S
O62    Zn64    1.950   .     S
C65    C82     1.439   .     S
C65    O122    1.289   .     A
C65    O119    1.290   .     A
C66    H107    1.081   .     S
C66    C70     1.409   .     A
C66    C89     1.412   .     A
C67    C71     1.366   .     S
C67    O126    1.278   .     A
C67    O123    1.278   .     A
C68    C72     1.366   .     S
C68    O124    1.278   .     A
C68    O125    1.278   .     A
C69    C92     1.410   .     A
C69    C90     1.410   .     A
C69    C198    1.520   1_545 S
C70    C91     1.409   .     A
C70    C197    1.520   .     S
C71    C584    1.165   1_554 S
C72    C327    1.165   .     S
C73    C78     1.382   .     A
C73    F93     1.359   .     S
C73    C84     1.397   .     A
C74    C79     1.382   .     A
C74    C85     1.397   .     A
C74    F94     1.359   .     S
C75    C80     1.382   .     A
C75    F95     1.359   .     S
C75    C85     1.397   .     A
C76    O120    1.289   .     A
C76    O121    1.290   .     A
C76    C83     1.439   .     S
C77    C81     1.382   .     A
C77    C84     1.397   .     A
C77    F96     1.359   .     S
C78    C82     1.403   .     A
C78    F97     1.357   .     S
C79    F98     1.359   .     S
C79    C83     1.404   .     A
C80    F99     1.357   .     S
C80    C83     1.403   .     A
C81    F100    1.359   .     S
C81    C82     1.404   .     A
C85    C20     1.436   1_655 S
C86    N113    1.365   .     A
C86    C90     1.412   .     A
C86    N115    1.429   .     S
C87    N116    1.428   .     S
C87    N114    1.368   .     A
C87    C91     1.412   .     A
C88    N113    1.366   .     A
C88    N117    1.429   .     S
C88    C92     1.411   .     A
C89    N118    1.428   .     S
C89    N114    1.368   .     A
C90    H101    1.081   .     S
C91    H105    1.081   .     S
C92    H106    1.081   .     S
H102   N117    1.046   .     S
H103   N118    1.045   .     S
H104   N118    1.046   .     S
H108   N115    1.045   .     S
H109   N115    1.046   .     S
H110   N116    1.046   .     S
H111   N116    1.045   .     S
H112   N117    1.045   .     S
N113   Zn128   2.014   .     S
N114   Zn127   2.014   .     S
O119   Zn127   2.000   .     S
O120   Zn128   2.000   .     S
O121   Zn127   2.000   .     S
O122   Zn128   2.000   .     S
O123   Zn127   1.950   .     S
O124   Zn128   1.950   .     S
O125   Zn127   1.950   .     S
O126   Zn128   1.950   .     S
C129   C146    1.439   .     S
C129   O186    1.289   .     A
C129   O183    1.290   .     A
C130   H171    1.081   .     S
C130   C134    1.409   .     A
C130   C153    1.412   .     A
C131   C135    1.366   .     S
C131   O190    1.278   .     A
C131   O187    1.278   .     A
C132   C136    1.366   .     S
C132   O188    1.278   .     A
C132   O189    1.278   .     A
C133   C156    1.410   .     A
C133   C154    1.410   .     A
C134   C155    1.409   .     A
C134   C5      1.520   1_565 S
C135   C648    1.165   1_554 S
C136   C391    1.165   .     S
C137   C142    1.382   .     A
C137   F157    1.359   .     S
C137   C148    1.397   .     A
C138   C143    1.382   .     A
C138   C149    1.397   .     A
C138   F158    1.359   .     S
C139   C144    1.382   .     A
C139   F159    1.359   .     S
C139   C149    1.397   .     A
C140   O184    1.289   .     A
C140   O185    1.290   .     A
C140   C147    1.439   .     S
C141   C145    1.382   .     A
C141   C148    1.397   .     A
C141   F160    1.359   .     S
C142   C146    1.403   .     A
C142   F161    1.357   .     S
C143   F162    1.359   .     S
C143   C147    1.404   .     A
C144   F163    1.357   .     S
C144   C147    1.403   .     A
C145   F164    1.359   .     S
C145   C146    1.404   .     A
C148   C213    1.436   1_455 S
C149   C212    1.436   .     S
C150   N177    1.365   .     A
C150   C154    1.412   .     A
C150   N179    1.429   .     S
C151   N180    1.428   .     S
C151   N178    1.368   .     A
C151   C155    1.412   .     A
C152   N177    1.366   .     A
C152   N181    1.429   .     S
C152   C156    1.411   .     A
C153   N182    1.428   .     S
C153   N178    1.368   .     A
C154   H165    1.081   .     S
C155   H169    1.081   .     S
C156   H170    1.081   .     S
H166   N181    1.046   .     S
H167   N182    1.045   .     S
H168   N182    1.046   .     S
H172   N179    1.045   .     S
H173   N179    1.046   .     S
H174   N180    1.046   .     S
H175   N180    1.045   .     S
H176   N181    1.045   .     S
N177   Zn192   2.014   .     S
N178   Zn191   2.014   .     S
O183   Zn191   2.000   .     S
O184   Zn192   2.000   .     S
O185   Zn191   2.000   .     S
O186   Zn192   2.000   .     S
O187   Zn191   1.950   .     S
O188   Zn192   1.950   .     S
O189   Zn191   1.950   .     S
O190   Zn192   1.950   .     S
C193   C210    1.439   .     S
C193   O250    1.289   .     A
C193   O247    1.290   .     A
C194   H235    1.081   .     S
C194   C198    1.409   .     A
C194   C217    1.412   .     A
C195   C199    1.366   .     S
C195   O254    1.278   .     A
C195   O251    1.278   .     A
C196   C200    1.366   .     S
C196   O252    1.278   .     A
C196   O253    1.278   .     A
C197   C220    1.410   .     A
C197   C218    1.410   .     A
C198   C219    1.409   .     A
C198   C69     1.520   1_565 S
C199   C712    1.165   1_554 S
C200   C455    1.165   .     S
C201   C206    1.382   .     A
C201   F221    1.359   .     S
C201   C212    1.397   .     A
C202   C207    1.382   .     A
C202   C213    1.397   .     A
C202   F222    1.359   .     S
C203   C208    1.382   .     A
C203   F223    1.359   .     S
C203   C213    1.397   .     A
C204   O248    1.289   .     A
C204   O249    1.290   .     A
C204   C211    1.439   .     S
C205   C209    1.382   .     A
C205   C212    1.397   .     A
C205   F224    1.359   .     S
C206   C210    1.403   .     A
C206   F225    1.357   .     S
C207   F226    1.359   .     S
C207   C211    1.404   .     A
C208   F227    1.357   .     S
C208   C211    1.403   .     A
C209   F228    1.359   .     S
C209   C210    1.404   .     A
C213   C148    1.436   1_655 S
C214   N241    1.365   .     A
C214   C218    1.412   .     A
C214   N243    1.429   .     S
C215   N244    1.428   .     S
C215   N242    1.368   .     A
C215   C219    1.412   .     A
C216   N241    1.366   .     A
C216   N245    1.429   .     S
C216   C220    1.411   .     A
C217   N246    1.428   .     S
C217   N242    1.368   .     A
C218   H229    1.081   .     S
C219   H233    1.081   .     S
C220   H234    1.081   .     S
H230   N245    1.046   .     S
H231   N246    1.045   .     S
H232   N246    1.046   .     S
H236   N243    1.045   .     S
H237   N243    1.046   .     S
H238   N244    1.046   .     S
H239   N244    1.045   .     S
H240   N245    1.045   .     S
N241   Zn256   2.014   .     S
N242   Zn255   2.014   .     S
O247   Zn255   2.000   .     S
O248   Zn256   2.000   .     S
O249   Zn255   2.000   .     S
O250   Zn256   2.000   .     S
O251   Zn255   1.950   .     S
O252   Zn256   1.950   .     S
O253   Zn255   1.950   .     S
O254   Zn256   1.950   .     S
C257   C274    1.439   .     S
C257   O314    1.289   .     A
C257   O311    1.290   .     A
C258   H299    1.081   .     S
C258   C262    1.409   .     A
C258   C281    1.412   .     A
C259   C263    1.366   .     S
C259   O318    1.278   .     A
C259   O315    1.278   .     A
C260   C264    1.366   .     S
C260   O316    1.278   .     A
C260   O317    1.278   .     A
C261   C284    1.410   .     A
C261   C282    1.410   .     A
C261   C390    1.520   1_545 S
C262   C283    1.409   .     A
C262   C389    1.520   .     S
C264   C519    1.165   .     S
C265   C270    1.382   .     A
C265   F285    1.359   .     S
C265   C276    1.397   .     A
C266   C271    1.382   .     A
C266   C277    1.397   .     A
C266   F286    1.359   .     S
C267   C272    1.382   .     A
C267   F287    1.359   .     S
C267   C277    1.397   .     A
C268   O312    1.289   .     A
C268   O313    1.290   .     A
C268   C275    1.439   .     S
C269   C273    1.382   .     A
C269   C276    1.397   .     A
C269   F288    1.359   .     S
C270   C274    1.403   .     A
C270   F289    1.357   .     S
C271   F290    1.359   .     S
C271   C275    1.404   .     A
C272   F291    1.357   .     S
C272   C275    1.403   .     A
C273   F292    1.359   .     S
C273   C274    1.404   .     A
C276   C341    1.436   1_455 S
C277   C340    1.436   .     S
C278   N305    1.365   .     A
C278   C282    1.412   .     A
C278   N307    1.429   .     S
C279   N308    1.428   .     S
C279   N306    1.368   .     A
C279   C283    1.412   .     A
C280   N305    1.366   .     A
C280   N309    1.429   .     S
C280   C284    1.411   .     A
C281   N310    1.428   .     S
C281   N306    1.368   .     A
C282   H293    1.081   .     S
C283   H297    1.081   .     S
C284   H298    1.081   .     S
H294   N309    1.046   .     S
H295   N310    1.045   .     S
H296   N310    1.046   .     S
H300   N307    1.045   .     S
H301   N307    1.046   .     S
H302   N308    1.046   .     S
H303   N308    1.045   .     S
H304   N309    1.045   .     S
N305   Zn320   2.014   .     S
N306   Zn319   2.014   .     S
O311   Zn319   2.000   .     S
O312   Zn320   2.000   .     S
O313   Zn319   2.000   .     S
O314   Zn320   2.000   .     S
O315   Zn319   1.950   .     S
O316   Zn320   1.950   .     S
O317   Zn319   1.950   .     S
O318   Zn320   1.950   .     S
C321   C338    1.439   .     S
C321   O378    1.289   .     A
C321   O375    1.290   .     A
C322   H363    1.081   .     S
C322   C326    1.409   .     A
C322   C345    1.412   .     A
C323   C327    1.366   .     S
C323   O382    1.278   .     A
C323   O379    1.278   .     A
C324   C328    1.366   .     S
C324   O380    1.278   .     A
C324   O381    1.278   .     A
C325   C348    1.410   .     A
C325   C346    1.410   .     A
C325   C454    1.520   1_545 S
C326   C347    1.409   .     A
C326   C453    1.520   .     S
C328   C583    1.165   .     S
C329   C334    1.382   .     A
C329   F349    1.359   .     S
C329   C340    1.397   .     A
C330   C335    1.382   .     A
C330   C341    1.397   .     A
C330   F350    1.359   .     S
C331   C336    1.382   .     A
C331   F351    1.359   .     S
C331   C341    1.397   .     A
C332   O376    1.289   .     A
C332   O377    1.290   .     A
C332   C339    1.439   .     S
C333   C337    1.382   .     A
C333   C340    1.397   .     A
C333   F352    1.359   .     S
C334   C338    1.403   .     A
C334   F353    1.357   .     S
C335   F354    1.359   .     S
C335   C339    1.404   .     A
C336   F355    1.357   .     S
C336   C339    1.403   .     A
C337   F356    1.359   .     S
C337   C338    1.404   .     A
C341   C276    1.436   1_655 S
C342   N369    1.365   .     A
C342   C346    1.412   .     A
C342   N371    1.429   .     S
C343   N372    1.428   .     S
C343   N370    1.368   .     A
C343   C347    1.412   .     A
C344   N369    1.366   .     A
C344   N373    1.429   .     S
C344   C348    1.411   .     A
C345   N374    1.428   .     S
C345   N370    1.368   .     A
C346   H357    1.081   .     S
C347   H361    1.081   .     S
C348   H362    1.081   .     S
H358   N373    1.046   .     S
H359   N374    1.045   .     S
H360   N374    1.046   .     S
H364   N371    1.045   .     S
H365   N371    1.046   .     S
H366   N372    1.046   .     S
H367   N372    1.045   .     S
H368   N373    1.045   .     S
N369   Zn384   2.014   .     S
N370   Zn383   2.014   .     S
O375   Zn383   2.000   .     S
O376   Zn384   2.000   .     S
O377   Zn383   2.000   .     S
O378   Zn384   2.000   .     S
O379   Zn383   1.950   .     S
O380   Zn384   1.950   .     S
O381   Zn383   1.950   .     S
O382   Zn384   1.950   .     S
C385   C402    1.439   .     S
C385   O442    1.289   .     A
C385   O439    1.290   .     A
C386   H427    1.081   .     S
C386   C390    1.409   .     A
C386   C409    1.412   .     A
C387   C391    1.366   .     S
C387   O446    1.278   .     A
C387   O443    1.278   .     A
C388   C392    1.366   .     S
C388   O444    1.278   .     A
C388   O445    1.278   .     A
C389   C412    1.410   .     A
C389   C410    1.410   .     A
C390   C411    1.409   .     A
C390   C261    1.520   1_565 S
C392   C647    1.165   .     S
C393   C398    1.382   .     A
C393   F413    1.359   .     S
C393   C404    1.397   .     A
C394   C399    1.382   .     A
C394   C405    1.397   .     A
C394   F414    1.359   .     S
C395   C400    1.382   .     A
C395   F415    1.359   .     S
C395   C405    1.397   .     A
C396   O440    1.289   .     A
C396   O441    1.290   .     A
C396   C403    1.439   .     S
C397   C401    1.382   .     A
C397   C404    1.397   .     A
C397   F416    1.359   .     S
C398   C402    1.403   .     A
C398   F417    1.357   .     S
C399   F418    1.359   .     S
C399   C403    1.404   .     A
C400   F419    1.357   .     S
C400   C403    1.403   .     A
C401   F420    1.359   .     S
C401   C402    1.404   .     A
C404   C469    1.436   1_455 S
C405   C468    1.436   .     S
C406   N433    1.365   .     A
C406   C410    1.412   .     A
C406   N435    1.429   .     S
C407   N436    1.428   .     S
C407   N434    1.368   .     A
C407   C411    1.412   .     A
C408   N433    1.366   .     A
C408   N437    1.429   .     S
C408   C412    1.411   .     A
C409   N438    1.428   .     S
C409   N434    1.368   .     A
C410   H421    1.081   .     S
C411   H425    1.081   .     S
C412   H426    1.081   .     S
H422   N437    1.046   .     S
H423   N438    1.045   .     S
H424   N438    1.046   .     S
H428   N435    1.045   .     S
H429   N435    1.046   .     S
H430   N436    1.046   .     S
H431   N436    1.045   .     S
H432   N437    1.045   .     S
N433   Zn448   2.014   .     S
N434   Zn447   2.014   .     S
O439   Zn447   2.000   .     S
O440   Zn448   2.000   .     S
O441   Zn447   2.000   .     S
O442   Zn448   2.000   .     S
O443   Zn447   1.950   .     S
O444   Zn448   1.950   .     S
O445   Zn447   1.950   .     S
O446   Zn448   1.950   .     S
C449   C466    1.439   .     S
C449   O506    1.289   .     A
C449   O503    1.290   .     A
C450   H491    1.081   .     S
C450   C454    1.409   .     A
C450   C473    1.412   .     A
C451   C455    1.366   .     S
C451   O510    1.278   .     A
C451   O507    1.278   .     A
C452   C456    1.366   .     S
C452   O508    1.278   .     A
C452   O509    1.278   .     A
C453   C476    1.410   .     A
C453   C474    1.410   .     A
C454   C475    1.409   .     A
C454   C325    1.520   1_565 S
C456   C711    1.165   .     S
C457   C462    1.382   .     A
C457   F477    1.359   .     S
C457   C468    1.397   .     A
C458   C463    1.382   .     A
C458   C469    1.397   .     A
C458   F478    1.359   .     S
C459   C464    1.382   .     A
C459   F479    1.359   .     S
C459   C469    1.397   .     A
C460   O504    1.289   .     A
C460   O505    1.290   .     A
C460   C467    1.439   .     S
C461   C465    1.382   .     A
C461   C468    1.397   .     A
C461   F480    1.359   .     S
C462   C466    1.403   .     A
C462   F481    1.357   .     S
C463   F482    1.359   .     S
C463   C467    1.404   .     A
C464   F483    1.357   .     S
C464   C467    1.403   .     A
C465   F484    1.359   .     S
C465   C466    1.404   .     A
C469   C404    1.436   1_655 S
C470   N497    1.365   .     A
C470   C474    1.412   .     A
C470   N499    1.429   .     S
C471   N500    1.428   .     S
C471   N498    1.368   .     A
C471   C475    1.412   .     A
C472   N497    1.366   .     A
C472   N501    1.429   .     S
C472   C476    1.411   .     A
C473   N502    1.428   .     S
C473   N498    1.368   .     A
C474   H485    1.081   .     S
C475   H489    1.081   .     S
C476   H490    1.081   .     S
H486   N501    1.046   .     S
H487   N502    1.045   .     S
H488   N502    1.046   .     S
H492   N499    1.045   .     S
H493   N499    1.046   .     S
H494   N500    1.046   .     S
H495   N500    1.045   .     S
H496   N501    1.045   .     S
N497   Zn512   2.014   .     S
N498   Zn511   2.014   .     S
O503   Zn511   2.000   .     S
O504   Zn512   2.000   .     S
O505   Zn511   2.000   .     S
O506   Zn512   2.000   .     S
O507   Zn511   1.950   .     S
O508   Zn512   1.950   .     S
O509   Zn511   1.950   .     S
O510   Zn512   1.950   .     S
C513   C530    1.439   .     S
C513   O570    1.289   .     A
C513   O567    1.290   .     A
C514   H555    1.081   .     S
C514   C518    1.409   .     A
C514   C537    1.412   .     A
C515   C519    1.366   .     S
C515   O574    1.278   .     A
C515   O571    1.278   .     A
C516   C520    1.366   .     S
C516   O572    1.278   .     A
C516   O573    1.278   .     A
C517   C540    1.410   .     A
C517   C538    1.410   .     A
C517   C646    1.520   1_545 S
C518   C539    1.409   .     A
C518   C645    1.520   .     S
C520   C7      1.165   1_556 S
C521   C526    1.382   .     A
C521   F541    1.359   .     S
C521   C532    1.397   .     A
C522   C527    1.382   .     A
C522   C533    1.397   .     A
C522   F542    1.359   .     S
C523   C528    1.382   .     A
C523   F543    1.359   .     S
C523   C533    1.397   .     A
C524   O568    1.289   .     A
C524   O569    1.290   .     A
C524   C531    1.439   .     S
C525   C529    1.382   .     A
C525   C532    1.397   .     A
C525   F544    1.359   .     S
C526   C530    1.403   .     A
C526   F545    1.357   .     S
C527   F546    1.359   .     S
C527   C531    1.404   .     A
C528   F547    1.357   .     S
C528   C531    1.403   .     A
C529   F548    1.359   .     S
C529   C530    1.404   .     A
C532   C597    1.436   1_455 S
C533   C596    1.436   .     S
C534   N561    1.365   .     A
C534   C538    1.412   .     A
C534   N563    1.429   .     S
C535   N564    1.428   .     S
C535   N562    1.368   .     A
C535   C539    1.412   .     A
C536   N561    1.366   .     A
C536   N565    1.429   .     S
C536   C540    1.411   .     A
C537   N566    1.428   .     S
C537   N562    1.368   .     A
C538   H549    1.081   .     S
C539   H553    1.081   .     S
C540   H554    1.081   .     S
H550   N565    1.046   .     S
H551   N566    1.045   .     S
H552   N566    1.046   .     S
H556   N563    1.045   .     S
H557   N563    1.046   .     S
H558   N564    1.046   .     S
H559   N564    1.045   .     S
H560   N565    1.045   .     S
N561   Zn576   2.014   .     S
N562   Zn575   2.014   .     S
O567   Zn575   2.000   .     S
O568   Zn576   2.000   .     S
O569   Zn575   2.000   .     S
O570   Zn576   2.000   .     S
O571   Zn575   1.950   .     S
O572   Zn576   1.950   .     S
O573   Zn575   1.950   .     S
O574   Zn576   1.950   .     S
C577   C594    1.439   .     S
C577   O634    1.289   .     A
C577   O631    1.290   .     A
C578   H619    1.081   .     S
C578   C582    1.409   .     A
C578   C601    1.412   .     A
C579   C583    1.366   .     S
C579   O638    1.278   .     A
C579   O635    1.278   .     A
C580   C584    1.366   .     S
C580   O636    1.278   .     A
C580   O637    1.278   .     A
C581   C604    1.410   .     A
C581   C602    1.410   .     A
C581   C710    1.520   1_545 S
C582   C603    1.409   .     A
C582   C709    1.520   .     S
C584   C71     1.165   1_556 S
C585   C590    1.382   .     A
C585   F605    1.359   .     S
C585   C596    1.397   .     A
C586   C591    1.382   .     A
C586   C597    1.397   .     A
C586   F606    1.359   .     S
C587   C592    1.382   .     A
C587   F607    1.359   .     S
C587   C597    1.397   .     A
C588   O632    1.289   .     A
C588   O633    1.290   .     A
C588   C595    1.439   .     S
C589   C593    1.382   .     A
C589   C596    1.397   .     A
C589   F608    1.359   .     S
C590   C594    1.403   .     A
C590   F609    1.357   .     S
C591   F610    1.359   .     S
C591   C595    1.404   .     A
C592   F611    1.357   .     S
C592   C595    1.403   .     A
C593   F612    1.359   .     S
C593   C594    1.404   .     A
C597   C532    1.436   1_655 S
C598   N625    1.365   .     A
C598   C602    1.412   .     A
C598   N627    1.429   .     S
C599   N628    1.428   .     S
C599   N626    1.368   .     A
C599   C603    1.412   .     A
C600   N625    1.366   .     A
C600   N629    1.429   .     S
C600   C604    1.411   .     A
C601   N630    1.428   .     S
C601   N626    1.368   .     A
C602   H613    1.081   .     S
C603   H617    1.081   .     S
C604   H618    1.081   .     S
H614   N629    1.046   .     S
H615   N630    1.045   .     S
H616   N630    1.046   .     S
H620   N627    1.045   .     S
H621   N627    1.046   .     S
H622   N628    1.046   .     S
H623   N628    1.045   .     S
H624   N629    1.045   .     S
N625   Zn640   2.014   .     S
N626   Zn639   2.014   .     S
O631   Zn639   2.000   .     S
O632   Zn640   2.000   .     S
O633   Zn639   2.000   .     S
O634   Zn640   2.000   .     S
O635   Zn639   1.950   .     S
O636   Zn640   1.950   .     S
O637   Zn639   1.950   .     S
O638   Zn640   1.950   .     S
C641   C658    1.439   .     S
C641   O698    1.289   .     A
C641   O695    1.290   .     A
C642   H683    1.081   .     S
C642   C646    1.409   .     A
C642   C665    1.412   .     A
C643   C647    1.366   .     S
C643   O702    1.278   .     A
C643   O699    1.278   .     A
C644   C648    1.366   .     S
C644   O700    1.278   .     A
C644   O701    1.278   .     A
C645   C668    1.410   .     A
C645   C666    1.410   .     A
C646   C667    1.409   .     A
C646   C517    1.520   1_565 S
C648   C135    1.165   1_556 S
C649   C654    1.382   .     A
C649   F669    1.359   .     S
C649   C660    1.397   .     A
C650   C655    1.382   .     A
C650   C661    1.397   .     A
C650   F670    1.359   .     S
C651   C656    1.382   .     A
C651   F671    1.359   .     S
C651   C661    1.397   .     A
C652   O696    1.289   .     A
C652   O697    1.290   .     A
C652   C659    1.439   .     S
C653   C657    1.382   .     A
C653   C660    1.397   .     A
C653   F672    1.359   .     S
C654   C658    1.403   .     A
C654   F673    1.357   .     S
C655   F674    1.359   .     S
C655   C659    1.404   .     A
C656   F675    1.357   .     S
C656   C659    1.403   .     A
C657   F676    1.359   .     S
C657   C658    1.404   .     A
C660   C725    1.436   1_455 S
C661   C724    1.436   .     S
C662   N689    1.365   .     A
C662   C666    1.412   .     A
C662   N691    1.429   .     S
C663   N692    1.428   .     S
C663   N690    1.368   .     A
C663   C667    1.412   .     A
C664   N689    1.366   .     A
C664   N693    1.429   .     S
C664   C668    1.411   .     A
C665   N694    1.428   .     S
C665   N690    1.368   .     A
C666   H677    1.081   .     S
C667   H681    1.081   .     S
C668   H682    1.081   .     S
H678   N693    1.046   .     S
H679   N694    1.045   .     S
H680   N694    1.046   .     S
H684   N691    1.045   .     S
H685   N691    1.046   .     S
H686   N692    1.046   .     S
H687   N692    1.045   .     S
H688   N693    1.045   .     S
N689   Zn704   2.014   .     S
N690   Zn703   2.014   .     S
O695   Zn703   2.000   .     S
O696   Zn704   2.000   .     S
O697   Zn703   2.000   .     S
O698   Zn704   2.000   .     S
O699   Zn703   1.950   .     S
O700   Zn704   1.950   .     S
O701   Zn703   1.950   .     S
O702   Zn704   1.950   .     S
C705   C722    1.439   .     S
C705   O762    1.289   .     A
C705   O759    1.290   .     A
C706   H747    1.081   .     S
C706   C710    1.409   .     A
C706   C729    1.412   .     A
C707   C711    1.366   .     S
C707   O766    1.278   .     A
C707   O763    1.278   .     A
C708   C712    1.366   .     S
C708   O764    1.278   .     A
C708   O765    1.278   .     A
C709   C732    1.410   .     A
C709   C730    1.410   .     A
C710   C731    1.409   .     A
C710   C581    1.520   1_565 S
C712   C199    1.165   1_556 S
C713   C718    1.382   .     A
C713   F733    1.359   .     S
C713   C724    1.397   .     A
C714   C719    1.382   .     A
C714   C725    1.397   .     A
C714   F734    1.359   .     S
C715   C720    1.382   .     A
C715   F735    1.359   .     S
C715   C725    1.397   .     A
C716   O760    1.289   .     A
C716   O761    1.290   .     A
C716   C723    1.439   .     S
C717   C721    1.382   .     A
C717   C724    1.397   .     A
C717   F736    1.359   .     S
C718   C722    1.403   .     A
C718   F737    1.357   .     S
C719   F738    1.359   .     S
C719   C723    1.404   .     A
C720   F739    1.357   .     S
C720   C723    1.403   .     A
C721   F740    1.359   .     S
C721   C722    1.404   .     A
C725   C660    1.436   1_655 S
C726   N753    1.365   .     A
C726   C730    1.412   .     A
C726   N755    1.429   .     S
C727   N756    1.428   .     S
C727   N754    1.368   .     A
C727   C731    1.412   .     A
C728   N753    1.366   .     A
C728   N757    1.429   .     S
C728   C732    1.411   .     A
C729   N758    1.428   .     S
C729   N754    1.368   .     A
C730   H741    1.081   .     S
C731   H745    1.081   .     S
C732   H746    1.081   .     S
H742   N757    1.046   .     S
H743   N758    1.045   .     S
H744   N758    1.046   .     S
H748   N755    1.045   .     S
H749   N755    1.046   .     S
H750   N756    1.046   .     S
H751   N756    1.045   .     S
H752   N757    1.045   .     S
N753   Zn768   2.014   .     S
N754   Zn767   2.014   .     S
O759   Zn767   2.000   .     S
O760   Zn768   2.000   .     S
O761   Zn767   2.000   .     S
O762   Zn768   2.000   .     S
O763   Zn767   1.950   .     S
O764   Zn768   1.950   .     S
O765   Zn767   1.950   .     S
O766   Zn768   1.950   .     S
