data_str_m2_o1_o18_pcu_sym.168
_audit_creation_date              2020-01-03
_audit_creation_method            'Materials Studio'
_symmetry_space_group_name_H-M    'P1'
_symmetry_Int_Tables_number       1
_symmetry_cell_setting            triclinic
loop_
_symmetry_equiv_pos_as_xyz
  x,y,z
_cell_length_a                    28.6016
_cell_length_b                    32.3612
_cell_length_c                    31.0595
_cell_angle_alpha                 88.8257
_cell_angle_beta                  74.9395
_cell_angle_gamma                 90.4126
loop_
_atom_site_label
_atom_site_type_symbol
_atom_site_fract_x
_atom_site_fract_y
_atom_site_fract_z
_atom_site_U_iso_or_equiv
_atom_site_adp_type
_atom_site_occupancy
O1     O     0.03958   0.10655   0.25000   0.00000  Uiso   1.00
O2     O     0.29375   0.22678   0.25000   0.00000  Uiso   1.00
O3     O     0.29372   0.10654   0.25000   0.00000  Uiso   1.00
O4     O     0.03961   0.22679   0.24999   0.00000  Uiso   1.00
C5     C     0.33283   0.08743   0.25114   0.00000  Uiso   1.00
C6     C     0.00051   0.24590   0.24886   0.00000  Uiso   1.00
O7     O     0.01852   0.16668   0.31491   0.00000  Uiso   1.00
O8     O     0.31481   0.16666   0.18508   0.00000  Uiso   1.00
O9     O     0.27267   0.16667   0.31492   0.00000  Uiso   1.00
O10    O     0.06067   0.16667   0.18508   0.00000  Uiso   1.00
C11    C     0.30633   0.16818   0.33614   0.00000  Uiso   1.00
C12    C     0.02700   0.16515   0.16386   0.00000  Uiso   1.00
Cu13   Cu    0.04689   0.16667   0.25000   0.00000  Uiso   1.00
Cu14   Cu    0.28645   0.16666   0.25000   0.00000  Uiso   1.00
C15    C     0.29166   0.16727   0.38574   0.00000  Uiso   1.00
C16    C     0.04167   0.16606   0.11426   0.00000  Uiso   1.00
C17    C     0.30010   0.12972   0.45165   0.00000  Uiso   1.00
C18    C     0.03320   0.20359   0.04834   0.00000  Uiso   1.00
C19    C     0.32166   0.14811   0.40982   0.00000  Uiso   1.00
C20    C     0.01166   0.18521   0.09018   0.00000  Uiso   1.00
C21    C     0.24435   0.17948   0.40883   0.00000  Uiso   1.00
C22    C     0.08898   0.15386   0.09117   0.00000  Uiso   1.00
C23    C     0.22476   0.16641   0.45401   0.00000  Uiso   1.00
C24    C     0.10855   0.16691   0.04598   0.00000  Uiso   1.00
C25    C     0.25071   0.13620   0.47185   0.00000  Uiso   1.00
C26    C     0.08260   0.19712   0.02814   0.00000  Uiso   1.00
C27    C     0.17845   0.17873   0.48080   0.00000  Uiso   1.00
C28    C     0.15487   0.15460   0.01919   0.00000  Uiso   1.00
C29    C     0.17778   0.11842   0.02856   0.00000  Uiso   1.00
C30    C     0.15552   0.21490   0.47142   0.00000  Uiso   1.00
C31    C     0.22619   0.11177   0.00846   0.00000  Uiso   1.00
C32    C     0.10712   0.22154   0.49152   0.00000  Uiso   1.00
H33    H     0.24332   0.08567   0.02013   0.00000  Uiso   1.00
H34    H     0.08998   0.24763   0.47984   0.00000  Uiso   1.00
H35    H     0.15888   0.09453   0.05129   0.00000  Uiso   1.00
H36    H     0.17443   0.23880   0.44870   0.00000  Uiso   1.00
C37    C     0.30938   0.02262   0.22359   0.00000  Uiso   1.00
C38    C     0.02396   0.31072   0.27640   0.00000  Uiso   1.00
H39    H     0.29232   0.04045   0.20206   0.00000  Uiso   1.00
H40    H     0.04102   0.29289   0.29793   0.00000  Uiso   1.00
C41    C     0.31104   0.31317   0.22052   0.00000  Uiso   1.00
C42    C     0.02231   0.02017   0.27947   0.00000  Uiso   1.00
C43    C     0.00130   0.29057   0.24777   0.00000  Uiso   1.00
C44    C     0.33204   0.04276   0.25223   0.00000  Uiso   1.00
C45    C     0.18356   0.13833   0.27545   0.00000  Uiso   1.00
C46    C     0.14977   0.19500   0.22454   0.00000  Uiso   1.00
C47    C     0.13412   0.13857   0.27531   0.00000  Uiso   1.00
C48    C     0.19921   0.19476   0.22469   0.00000  Uiso   1.00
H49    H     0.10922   0.11614   0.29555   0.00000  Uiso   1.00
H50    H     0.22411   0.21719   0.20445   0.00000  Uiso   1.00
N51    N     0.11736   0.16668   0.24999   0.00000  Uiso   1.00
N52    N     0.21597   0.16666   0.25001   0.00000  Uiso   1.00
C53    C     0.11877   0.13273   0.11597   0.00000  Uiso   1.00
N54    N     0.14234   0.11606   0.13600   0.00000  Uiso   1.00
C55    C     0.21457   0.20062   0.38402   0.00000  Uiso   1.00
N56    N     0.19101   0.21730   0.36399   0.00000  Uiso   1.00
N57    N     0.29339   0.18700   0.10843   0.00000  Uiso   1.00
O58    O     0.26871   0.15293   0.12094   0.00000  Uiso   1.00
O59    O     0.27023   0.22126   0.10713   0.00000  Uiso   1.00
N60    N     0.03993   0.14633   0.39158   0.00000  Uiso   1.00
O61    O     0.06461   0.18040   0.37906   0.00000  Uiso   1.00
O62    O     0.06311   0.11208   0.39291   0.00000  Uiso   1.00
N63    N     0.32849   0.10490   0.47379   0.00000  Uiso   1.00
O64    O     0.32677   0.06481   0.47187   0.00000  Uiso   1.00
O65    O     0.02711   0.12229   0.49089   0.00000  Uiso   1.00
N66    N     0.00479   0.22838   0.02618   0.00000  Uiso   1.00
O67    O     0.30602   0.21097   0.00929   0.00000  Uiso   1.00
O68    O     0.00660   0.26847   0.02797   0.00000  Uiso   1.00
N69    N     0.29158   0.29348   0.18781   0.00000  Uiso   1.00
O70    O     0.31603   0.26480   0.16328   0.00000  Uiso   1.00
O71    O     0.25361   0.30843   0.17760   0.00000  Uiso   1.00
N72    N     0.04179   0.03986   0.31216   0.00000  Uiso   1.00
O73    O     0.01734   0.06851   0.33673   0.00000  Uiso   1.00
O74    O     0.07982   0.02495   0.32229   0.00000  Uiso   1.00
N75    N     0.19903   0.10760   0.30215   0.00000  Uiso   1.00
O76    O     0.20323   0.06975   0.28849   0.00000  Uiso   1.00
O77    O     0.19314   0.11405   0.34440   0.00000  Uiso   1.00
N78    N     0.13430   0.22573   0.19784   0.00000  Uiso   1.00
O79    O     0.13009   0.26358   0.21152   0.00000  Uiso   1.00
O80    O     0.14022   0.21929   0.15559   0.00000  Uiso   1.00
O81    O     0.37291   0.10655   0.25000   0.00000  Uiso   1.00
O82    O     0.62709   0.22678   0.25000   0.00000  Uiso   1.00
O83    O     0.62706   0.10654   0.25000   0.00000  Uiso   1.00
O84    O     0.37294   0.22679   0.24999   0.00000  Uiso   1.00
C85    C     0.66616   0.08743   0.25114   0.00000  Uiso   1.00
C86    C     0.33384   0.24590   0.24886   0.00000  Uiso   1.00
O87    O     0.35186   0.16668   0.31491   0.00000  Uiso   1.00
O88    O     0.64814   0.16666   0.18508   0.00000  Uiso   1.00
O89    O     0.60600   0.16667   0.31492   0.00000  Uiso   1.00
O90    O     0.39400   0.16667   0.18508   0.00000  Uiso   1.00
C91    C     0.63966   0.16818   0.33614   0.00000  Uiso   1.00
C92    C     0.36034   0.16515   0.16386   0.00000  Uiso   1.00
Cu93   Cu    0.38022   0.16667   0.25000   0.00000  Uiso   1.00
Cu94   Cu    0.61978   0.16666   0.25000   0.00000  Uiso   1.00
C95    C     0.62499   0.16727   0.38574   0.00000  Uiso   1.00
C96    C     0.37501   0.16606   0.11426   0.00000  Uiso   1.00
C97    C     0.63344   0.12972   0.45165   0.00000  Uiso   1.00
C98    C     0.36654   0.20359   0.04834   0.00000  Uiso   1.00
C99    C     0.65499   0.14811   0.40982   0.00000  Uiso   1.00
C100   C     0.34500   0.18521   0.09018   0.00000  Uiso   1.00
C101   C     0.57769   0.17948   0.40883   0.00000  Uiso   1.00
C102   C     0.42231   0.15386   0.09117   0.00000  Uiso   1.00
C103   C     0.55810   0.16641   0.45401   0.00000  Uiso   1.00
C104   C     0.44189   0.16691   0.04598   0.00000  Uiso   1.00
C105   C     0.58404   0.13620   0.47185   0.00000  Uiso   1.00
C106   C     0.41593   0.19712   0.02814   0.00000  Uiso   1.00
C107   C     0.51178   0.17873   0.48080   0.00000  Uiso   1.00
C108   C     0.48820   0.15460   0.01919   0.00000  Uiso   1.00
C109   C     0.51112   0.11842   0.02856   0.00000  Uiso   1.00
C110   C     0.48886   0.21490   0.47142   0.00000  Uiso   1.00
C111   C     0.55952   0.11177   0.00846   0.00000  Uiso   1.00
C112   C     0.44045   0.22154   0.49152   0.00000  Uiso   1.00
H113   H     0.57665   0.08567   0.02013   0.00000  Uiso   1.00
H114   H     0.42332   0.24763   0.47984   0.00000  Uiso   1.00
H115   H     0.49221   0.09453   0.05129   0.00000  Uiso   1.00
H116   H     0.50776   0.23880   0.44870   0.00000  Uiso   1.00
C117   C     0.64271   0.02262   0.22359   0.00000  Uiso   1.00
C118   C     0.35729   0.31072   0.27640   0.00000  Uiso   1.00
H119   H     0.62566   0.04045   0.20206   0.00000  Uiso   1.00
H120   H     0.37435   0.29289   0.29793   0.00000  Uiso   1.00
C121   C     0.64437   0.31317   0.22052   0.00000  Uiso   1.00
C122   C     0.35564   0.02017   0.27947   0.00000  Uiso   1.00
C123   C     0.33463   0.29057   0.24777   0.00000  Uiso   1.00
C124   C     0.66537   0.04276   0.25223   0.00000  Uiso   1.00
C125   C     0.51689   0.13833   0.27545   0.00000  Uiso   1.00
C126   C     0.48311   0.19500   0.22454   0.00000  Uiso   1.00
C127   C     0.46745   0.13857   0.27531   0.00000  Uiso   1.00
C128   C     0.53255   0.19476   0.22469   0.00000  Uiso   1.00
H129   H     0.44256   0.11614   0.29555   0.00000  Uiso   1.00
H130   H     0.55744   0.21719   0.20445   0.00000  Uiso   1.00
N131   N     0.45069   0.16668   0.24999   0.00000  Uiso   1.00
N132   N     0.54931   0.16666   0.25001   0.00000  Uiso   1.00
C133   C     0.45210   0.13273   0.11597   0.00000  Uiso   1.00
N134   N     0.47568   0.11606   0.13600   0.00000  Uiso   1.00
C135   C     0.54791   0.20062   0.38402   0.00000  Uiso   1.00
N136   N     0.52434   0.21730   0.36399   0.00000  Uiso   1.00
N137   N     0.62673   0.18700   0.10843   0.00000  Uiso   1.00
O138   O     0.60204   0.15293   0.12094   0.00000  Uiso   1.00
O139   O     0.60356   0.22126   0.10713   0.00000  Uiso   1.00
N140   N     0.37326   0.14633   0.39158   0.00000  Uiso   1.00
O141   O     0.39794   0.18040   0.37906   0.00000  Uiso   1.00
O142   O     0.39644   0.11208   0.39291   0.00000  Uiso   1.00
N143   N     0.66183   0.10490   0.47379   0.00000  Uiso   1.00
O144   O     0.66011   0.06481   0.47187   0.00000  Uiso   1.00
O145   O     0.36044   0.12229   0.49089   0.00000  Uiso   1.00
N146   N     0.33813   0.22838   0.02618   0.00000  Uiso   1.00
O147   O     0.63935   0.21097   0.00929   0.00000  Uiso   1.00
O148   O     0.33994   0.26847   0.02797   0.00000  Uiso   1.00
N149   N     0.62491   0.29348   0.18781   0.00000  Uiso   1.00
O150   O     0.64936   0.26480   0.16328   0.00000  Uiso   1.00
O151   O     0.58694   0.30843   0.17760   0.00000  Uiso   1.00
N152   N     0.37513   0.03986   0.31216   0.00000  Uiso   1.00
O153   O     0.35067   0.06851   0.33673   0.00000  Uiso   1.00
O154   O     0.41316   0.02495   0.32229   0.00000  Uiso   1.00
N155   N     0.53237   0.10760   0.30215   0.00000  Uiso   1.00
O156   O     0.53656   0.06975   0.28849   0.00000  Uiso   1.00
O157   O     0.52647   0.11405   0.34440   0.00000  Uiso   1.00
N158   N     0.46763   0.22573   0.19784   0.00000  Uiso   1.00
O159   O     0.46342   0.26358   0.21152   0.00000  Uiso   1.00
O160   O     0.47355   0.21929   0.15559   0.00000  Uiso   1.00
O161   O     0.70625   0.10655   0.25000   0.00000  Uiso   1.00
O162   O     0.96042   0.22678   0.25000   0.00000  Uiso   1.00
O163   O     0.96039   0.10654   0.25000   0.00000  Uiso   1.00
O164   O     0.70628   0.22679   0.24999   0.00000  Uiso   1.00
C165   C     0.99950   0.08743   0.25114   0.00000  Uiso   1.00
C166   C     0.66717   0.24590   0.24886   0.00000  Uiso   1.00
O167   O     0.68519   0.16668   0.31491   0.00000  Uiso   1.00
O168   O     0.98148   0.16666   0.18508   0.00000  Uiso   1.00
O169   O     0.93933   0.16667   0.31492   0.00000  Uiso   1.00
O170   O     0.72733   0.16667   0.18508   0.00000  Uiso   1.00
C171   C     0.97300   0.16818   0.33614   0.00000  Uiso   1.00
C172   C     0.69367   0.16515   0.16386   0.00000  Uiso   1.00
Cu173  Cu    0.71355   0.16667   0.25000   0.00000  Uiso   1.00
Cu174  Cu    0.95311   0.16666   0.25000   0.00000  Uiso   1.00
C175   C     0.95832   0.16727   0.38574   0.00000  Uiso   1.00
C176   C     0.70834   0.16606   0.11426   0.00000  Uiso   1.00
C177   C     0.96677   0.12972   0.45165   0.00000  Uiso   1.00
C178   C     0.69987   0.20359   0.04834   0.00000  Uiso   1.00
C179   C     0.98832   0.14811   0.40982   0.00000  Uiso   1.00
C180   C     0.67833   0.18521   0.09018   0.00000  Uiso   1.00
C181   C     0.91102   0.17948   0.40883   0.00000  Uiso   1.00
C182   C     0.75564   0.15386   0.09117   0.00000  Uiso   1.00
C183   C     0.89143   0.16641   0.45401   0.00000  Uiso   1.00
C184   C     0.77522   0.16691   0.04598   0.00000  Uiso   1.00
C185   C     0.91737   0.13620   0.47185   0.00000  Uiso   1.00
C186   C     0.74927   0.19712   0.02814   0.00000  Uiso   1.00
C187   C     0.84511   0.17873   0.48080   0.00000  Uiso   1.00
C188   C     0.82153   0.15460   0.01919   0.00000  Uiso   1.00
C189   C     0.84445   0.11842   0.02856   0.00000  Uiso   1.00
C190   C     0.82219   0.21490   0.47142   0.00000  Uiso   1.00
C191   C     0.89286   0.11177   0.00846   0.00000  Uiso   1.00
C192   C     0.77378   0.22154   0.49152   0.00000  Uiso   1.00
H193   H     0.90999   0.08567   0.02013   0.00000  Uiso   1.00
H194   H     0.75665   0.24763   0.47984   0.00000  Uiso   1.00
H195   H     0.82554   0.09453   0.05129   0.00000  Uiso   1.00
H196   H     0.84109   0.23880   0.44870   0.00000  Uiso   1.00
C197   C     0.97605   0.02262   0.22359   0.00000  Uiso   1.00
C198   C     0.69063   0.31072   0.27640   0.00000  Uiso   1.00
H199   H     0.95899   0.04045   0.20206   0.00000  Uiso   1.00
H200   H     0.70768   0.29289   0.29793   0.00000  Uiso   1.00
C201   C     0.97770   0.31317   0.22052   0.00000  Uiso   1.00
C202   C     0.68898   0.02017   0.27947   0.00000  Uiso   1.00
C203   C     0.66797   0.29057   0.24777   0.00000  Uiso   1.00
C204   C     0.99870   0.04276   0.25223   0.00000  Uiso   1.00
C205   C     0.85023   0.13833   0.27545   0.00000  Uiso   1.00
C206   C     0.81644   0.19500   0.22454   0.00000  Uiso   1.00
C207   C     0.80079   0.13857   0.27531   0.00000  Uiso   1.00
C208   C     0.86588   0.19476   0.22469   0.00000  Uiso   1.00
H209   H     0.77589   0.11614   0.29555   0.00000  Uiso   1.00
H210   H     0.89078   0.21719   0.20445   0.00000  Uiso   1.00
N211   N     0.78403   0.16668   0.24999   0.00000  Uiso   1.00
N212   N     0.88264   0.16666   0.25001   0.00000  Uiso   1.00
C213   C     0.78543   0.13273   0.11597   0.00000  Uiso   1.00
N214   N     0.80901   0.11606   0.13600   0.00000  Uiso   1.00
C215   C     0.88124   0.20062   0.38402   0.00000  Uiso   1.00
N216   N     0.85768   0.21730   0.36399   0.00000  Uiso   1.00
N217   N     0.96006   0.18700   0.10843   0.00000  Uiso   1.00
O218   O     0.93538   0.15293   0.12094   0.00000  Uiso   1.00
O219   O     0.93689   0.22126   0.10713   0.00000  Uiso   1.00
N220   N     0.70660   0.14633   0.39158   0.00000  Uiso   1.00
O221   O     0.73127   0.18040   0.37906   0.00000  Uiso   1.00
O222   O     0.72977   0.11208   0.39291   0.00000  Uiso   1.00
N223   N     0.99516   0.10490   0.47379   0.00000  Uiso   1.00
O224   O     0.99344   0.06481   0.47187   0.00000  Uiso   1.00
O225   O     0.69378   0.12229   0.49089   0.00000  Uiso   1.00
N226   N     0.67146   0.22838   0.02618   0.00000  Uiso   1.00
O227   O     0.97269   0.21097   0.00929   0.00000  Uiso   1.00
O228   O     0.67327   0.26847   0.02797   0.00000  Uiso   1.00
N229   N     0.95824   0.29348   0.18781   0.00000  Uiso   1.00
O230   O     0.98269   0.26480   0.16328   0.00000  Uiso   1.00
O231   O     0.92028   0.30843   0.17760   0.00000  Uiso   1.00
N232   N     0.70846   0.03986   0.31216   0.00000  Uiso   1.00
O233   O     0.68400   0.06851   0.33673   0.00000  Uiso   1.00
O234   O     0.74649   0.02495   0.32229   0.00000  Uiso   1.00
N235   N     0.86570   0.10760   0.30215   0.00000  Uiso   1.00
O236   O     0.86989   0.06975   0.28849   0.00000  Uiso   1.00
O237   O     0.85980   0.11405   0.34440   0.00000  Uiso   1.00
N238   N     0.80097   0.22573   0.19784   0.00000  Uiso   1.00
O239   O     0.79676   0.26358   0.21152   0.00000  Uiso   1.00
O240   O     0.80688   0.21929   0.15559   0.00000  Uiso   1.00
O241   O     0.03958   0.43989   0.25000   0.00000  Uiso   1.00
O242   O     0.29375   0.56011   0.25000   0.00000  Uiso   1.00
O243   O     0.29372   0.43988   0.25000   0.00000  Uiso   1.00
O244   O     0.03961   0.56012   0.24999   0.00000  Uiso   1.00
C245   C     0.33283   0.42076   0.25114   0.00000  Uiso   1.00
C246   C     0.00051   0.57924   0.24886   0.00000  Uiso   1.00
O247   O     0.01852   0.50001   0.31491   0.00000  Uiso   1.00
O248   O     0.31481   0.49999   0.18508   0.00000  Uiso   1.00
O249   O     0.27267   0.50000   0.31492   0.00000  Uiso   1.00
O250   O     0.06067   0.50000   0.18508   0.00000  Uiso   1.00
C251   C     0.30633   0.50151   0.33614   0.00000  Uiso   1.00
C252   C     0.02700   0.49849   0.16386   0.00000  Uiso   1.00
Cu253  Cu    0.04689   0.50001   0.25000   0.00000  Uiso   1.00
Cu254  Cu    0.28645   0.49999   0.25000   0.00000  Uiso   1.00
C255   C     0.29166   0.50061   0.38574   0.00000  Uiso   1.00
C256   C     0.04167   0.49939   0.11426   0.00000  Uiso   1.00
C257   C     0.30010   0.46306   0.45165   0.00000  Uiso   1.00
C258   C     0.03320   0.53692   0.04834   0.00000  Uiso   1.00
C259   C     0.32166   0.48144   0.40982   0.00000  Uiso   1.00
C260   C     0.01166   0.51854   0.09018   0.00000  Uiso   1.00
C261   C     0.24435   0.51281   0.40883   0.00000  Uiso   1.00
C262   C     0.08898   0.48719   0.09117   0.00000  Uiso   1.00
C263   C     0.22476   0.49975   0.45401   0.00000  Uiso   1.00
C264   C     0.10855   0.50025   0.04598   0.00000  Uiso   1.00
C265   C     0.25071   0.46953   0.47185   0.00000  Uiso   1.00
C266   C     0.08260   0.53045   0.02814   0.00000  Uiso   1.00
C267   C     0.17845   0.51206   0.48080   0.00000  Uiso   1.00
C268   C     0.15487   0.48793   0.01919   0.00000  Uiso   1.00
C269   C     0.17778   0.45175   0.02856   0.00000  Uiso   1.00
C270   C     0.15552   0.54824   0.47142   0.00000  Uiso   1.00
C271   C     0.22619   0.44511   0.00846   0.00000  Uiso   1.00
C272   C     0.10712   0.55487   0.49152   0.00000  Uiso   1.00
H273   H     0.24332   0.41900   0.02013   0.00000  Uiso   1.00
H274   H     0.08998   0.58097   0.47984   0.00000  Uiso   1.00
H275   H     0.15888   0.42786   0.05129   0.00000  Uiso   1.00
H276   H     0.17443   0.57213   0.44870   0.00000  Uiso   1.00
C277   C     0.30938   0.35595   0.22359   0.00000  Uiso   1.00
C278   C     0.02396   0.64405   0.27640   0.00000  Uiso   1.00
H279   H     0.29232   0.37378   0.20206   0.00000  Uiso   1.00
H280   H     0.04102   0.62622   0.29793   0.00000  Uiso   1.00
C281   C     0.31104   0.64650   0.22052   0.00000  Uiso   1.00
C282   C     0.02231   0.35350   0.27947   0.00000  Uiso   1.00
C283   C     0.00130   0.62390   0.24777   0.00000  Uiso   1.00
C284   C     0.33204   0.37610   0.25223   0.00000  Uiso   1.00
C285   C     0.18356   0.47167   0.27545   0.00000  Uiso   1.00
C286   C     0.14977   0.52833   0.22454   0.00000  Uiso   1.00
C287   C     0.13412   0.47191   0.27531   0.00000  Uiso   1.00
C288   C     0.19921   0.52809   0.22469   0.00000  Uiso   1.00
H289   H     0.10922   0.44948   0.29555   0.00000  Uiso   1.00
H290   H     0.22411   0.55052   0.20445   0.00000  Uiso   1.00
N291   N     0.11736   0.50001   0.24999   0.00000  Uiso   1.00
N292   N     0.21597   0.49999   0.25001   0.00000  Uiso   1.00
C293   C     0.11877   0.46606   0.11597   0.00000  Uiso   1.00
N294   N     0.14234   0.44939   0.13600   0.00000  Uiso   1.00
C295   C     0.21457   0.53395   0.38402   0.00000  Uiso   1.00
N296   N     0.19101   0.55063   0.36399   0.00000  Uiso   1.00
N297   N     0.29339   0.52033   0.10843   0.00000  Uiso   1.00
O298   O     0.26871   0.48626   0.12094   0.00000  Uiso   1.00
O299   O     0.27023   0.55459   0.10713   0.00000  Uiso   1.00
N300   N     0.03993   0.47966   0.39158   0.00000  Uiso   1.00
O301   O     0.06461   0.51373   0.37906   0.00000  Uiso   1.00
O302   O     0.06311   0.44541   0.39291   0.00000  Uiso   1.00
N303   N     0.32849   0.43823   0.47379   0.00000  Uiso   1.00
O304   O     0.32677   0.39815   0.47187   0.00000  Uiso   1.00
O305   O     0.02711   0.45562   0.49089   0.00000  Uiso   1.00
N306   N     0.00479   0.56171   0.02618   0.00000  Uiso   1.00
O307   O     0.30602   0.54431   0.00929   0.00000  Uiso   1.00
O308   O     0.00660   0.60180   0.02797   0.00000  Uiso   1.00
N309   N     0.29158   0.62681   0.18781   0.00000  Uiso   1.00
O310   O     0.31603   0.59814   0.16328   0.00000  Uiso   1.00
O311   O     0.25361   0.64176   0.17760   0.00000  Uiso   1.00
N312   N     0.04179   0.37319   0.31216   0.00000  Uiso   1.00
O313   O     0.01734   0.40184   0.33673   0.00000  Uiso   1.00
O314   O     0.07982   0.35829   0.32229   0.00000  Uiso   1.00
N315   N     0.19903   0.44094   0.30215   0.00000  Uiso   1.00
O316   O     0.20323   0.40308   0.28849   0.00000  Uiso   1.00
O317   O     0.19314   0.44738   0.34440   0.00000  Uiso   1.00
N318   N     0.13430   0.55906   0.19784   0.00000  Uiso   1.00
O319   O     0.13009   0.59691   0.21152   0.00000  Uiso   1.00
O320   O     0.14022   0.55262   0.15559   0.00000  Uiso   1.00
O321   O     0.37291   0.43989   0.25000   0.00000  Uiso   1.00
O322   O     0.62709   0.56011   0.25000   0.00000  Uiso   1.00
O323   O     0.62706   0.43988   0.25000   0.00000  Uiso   1.00
O324   O     0.37294   0.56012   0.24999   0.00000  Uiso   1.00
C325   C     0.66616   0.42076   0.25114   0.00000  Uiso   1.00
C326   C     0.33384   0.57924   0.24886   0.00000  Uiso   1.00
O327   O     0.35186   0.50001   0.31491   0.00000  Uiso   1.00
O328   O     0.64814   0.49999   0.18508   0.00000  Uiso   1.00
O329   O     0.60600   0.50000   0.31492   0.00000  Uiso   1.00
O330   O     0.39400   0.50000   0.18508   0.00000  Uiso   1.00
C331   C     0.63966   0.50151   0.33614   0.00000  Uiso   1.00
C332   C     0.36034   0.49849   0.16386   0.00000  Uiso   1.00
Cu333  Cu    0.38022   0.50001   0.25000   0.00000  Uiso   1.00
Cu334  Cu    0.61978   0.49999   0.25000   0.00000  Uiso   1.00
C335   C     0.62499   0.50061   0.38574   0.00000  Uiso   1.00
C336   C     0.37501   0.49939   0.11426   0.00000  Uiso   1.00
C337   C     0.63344   0.46306   0.45165   0.00000  Uiso   1.00
C338   C     0.36654   0.53692   0.04834   0.00000  Uiso   1.00
C339   C     0.65499   0.48144   0.40982   0.00000  Uiso   1.00
C340   C     0.34500   0.51854   0.09018   0.00000  Uiso   1.00
C341   C     0.57769   0.51281   0.40883   0.00000  Uiso   1.00
C342   C     0.42231   0.48719   0.09117   0.00000  Uiso   1.00
C343   C     0.55810   0.49975   0.45401   0.00000  Uiso   1.00
C344   C     0.44189   0.50025   0.04598   0.00000  Uiso   1.00
C345   C     0.58404   0.46953   0.47185   0.00000  Uiso   1.00
C346   C     0.41593   0.53045   0.02814   0.00000  Uiso   1.00
C347   C     0.51178   0.51206   0.48080   0.00000  Uiso   1.00
C348   C     0.48820   0.48793   0.01919   0.00000  Uiso   1.00
C349   C     0.51112   0.45175   0.02856   0.00000  Uiso   1.00
C350   C     0.48886   0.54824   0.47142   0.00000  Uiso   1.00
C351   C     0.55952   0.44511   0.00846   0.00000  Uiso   1.00
C352   C     0.44045   0.55487   0.49152   0.00000  Uiso   1.00
H353   H     0.57665   0.41900   0.02013   0.00000  Uiso   1.00
H354   H     0.42332   0.58097   0.47984   0.00000  Uiso   1.00
H355   H     0.49221   0.42786   0.05129   0.00000  Uiso   1.00
H356   H     0.50776   0.57213   0.44870   0.00000  Uiso   1.00
C357   C     0.64271   0.35595   0.22359   0.00000  Uiso   1.00
C358   C     0.35729   0.64405   0.27640   0.00000  Uiso   1.00
H359   H     0.62566   0.37378   0.20206   0.00000  Uiso   1.00
H360   H     0.37435   0.62622   0.29793   0.00000  Uiso   1.00
C361   C     0.64437   0.64650   0.22052   0.00000  Uiso   1.00
C362   C     0.35564   0.35350   0.27947   0.00000  Uiso   1.00
C363   C     0.33463   0.62390   0.24777   0.00000  Uiso   1.00
C364   C     0.66537   0.37610   0.25223   0.00000  Uiso   1.00
C365   C     0.51689   0.47167   0.27545   0.00000  Uiso   1.00
C366   C     0.48311   0.52833   0.22454   0.00000  Uiso   1.00
C367   C     0.46745   0.47191   0.27531   0.00000  Uiso   1.00
C368   C     0.53255   0.52809   0.22469   0.00000  Uiso   1.00
H369   H     0.44256   0.44948   0.29555   0.00000  Uiso   1.00
H370   H     0.55744   0.55052   0.20445   0.00000  Uiso   1.00
N371   N     0.45069   0.50001   0.24999   0.00000  Uiso   1.00
N372   N     0.54931   0.49999   0.25001   0.00000  Uiso   1.00
C373   C     0.45210   0.46606   0.11597   0.00000  Uiso   1.00
N374   N     0.47568   0.44939   0.13600   0.00000  Uiso   1.00
C375   C     0.54791   0.53395   0.38402   0.00000  Uiso   1.00
N376   N     0.52434   0.55063   0.36399   0.00000  Uiso   1.00
N377   N     0.62673   0.52033   0.10843   0.00000  Uiso   1.00
O378   O     0.60204   0.48626   0.12094   0.00000  Uiso   1.00
O379   O     0.60356   0.55459   0.10713   0.00000  Uiso   1.00
N380   N     0.37326   0.47966   0.39158   0.00000  Uiso   1.00
O381   O     0.39794   0.51373   0.37906   0.00000  Uiso   1.00
O382   O     0.39644   0.44541   0.39291   0.00000  Uiso   1.00
N383   N     0.66183   0.43823   0.47379   0.00000  Uiso   1.00
O384   O     0.66011   0.39815   0.47187   0.00000  Uiso   1.00
O385   O     0.36044   0.45562   0.49089   0.00000  Uiso   1.00
N386   N     0.33813   0.56171   0.02618   0.00000  Uiso   1.00
O387   O     0.63935   0.54431   0.00929   0.00000  Uiso   1.00
O388   O     0.33994   0.60180   0.02797   0.00000  Uiso   1.00
N389   N     0.62491   0.62681   0.18781   0.00000  Uiso   1.00
O390   O     0.64936   0.59814   0.16328   0.00000  Uiso   1.00
O391   O     0.58694   0.64176   0.17760   0.00000  Uiso   1.00
N392   N     0.37513   0.37319   0.31216   0.00000  Uiso   1.00
O393   O     0.35067   0.40184   0.33673   0.00000  Uiso   1.00
O394   O     0.41316   0.35829   0.32229   0.00000  Uiso   1.00
N395   N     0.53237   0.44094   0.30215   0.00000  Uiso   1.00
O396   O     0.53656   0.40308   0.28849   0.00000  Uiso   1.00
O397   O     0.52647   0.44738   0.34440   0.00000  Uiso   1.00
N398   N     0.46763   0.55906   0.19784   0.00000  Uiso   1.00
O399   O     0.46342   0.59691   0.21152   0.00000  Uiso   1.00
O400   O     0.47355   0.55262   0.15559   0.00000  Uiso   1.00
O401   O     0.70625   0.43989   0.25000   0.00000  Uiso   1.00
O402   O     0.96042   0.56011   0.25000   0.00000  Uiso   1.00
O403   O     0.96039   0.43988   0.25000   0.00000  Uiso   1.00
O404   O     0.70628   0.56012   0.24999   0.00000  Uiso   1.00
C405   C     0.99950   0.42076   0.25114   0.00000  Uiso   1.00
C406   C     0.66717   0.57924   0.24886   0.00000  Uiso   1.00
O407   O     0.68519   0.50001   0.31491   0.00000  Uiso   1.00
O408   O     0.98148   0.49999   0.18508   0.00000  Uiso   1.00
O409   O     0.93933   0.50000   0.31492   0.00000  Uiso   1.00
O410   O     0.72733   0.50000   0.18508   0.00000  Uiso   1.00
C411   C     0.97300   0.50151   0.33614   0.00000  Uiso   1.00
C412   C     0.69367   0.49849   0.16386   0.00000  Uiso   1.00
Cu413  Cu    0.71355   0.50001   0.25000   0.00000  Uiso   1.00
Cu414  Cu    0.95311   0.49999   0.25000   0.00000  Uiso   1.00
C415   C     0.95832   0.50061   0.38574   0.00000  Uiso   1.00
C416   C     0.70834   0.49939   0.11426   0.00000  Uiso   1.00
C417   C     0.96677   0.46306   0.45165   0.00000  Uiso   1.00
C418   C     0.69987   0.53692   0.04834   0.00000  Uiso   1.00
C419   C     0.98832   0.48144   0.40982   0.00000  Uiso   1.00
C420   C     0.67833   0.51854   0.09018   0.00000  Uiso   1.00
C421   C     0.91102   0.51281   0.40883   0.00000  Uiso   1.00
C422   C     0.75564   0.48719   0.09117   0.00000  Uiso   1.00
C423   C     0.89143   0.49975   0.45401   0.00000  Uiso   1.00
C424   C     0.77522   0.50025   0.04598   0.00000  Uiso   1.00
C425   C     0.91737   0.46953   0.47185   0.00000  Uiso   1.00
C426   C     0.74927   0.53045   0.02814   0.00000  Uiso   1.00
C427   C     0.84511   0.51206   0.48080   0.00000  Uiso   1.00
C428   C     0.82153   0.48793   0.01919   0.00000  Uiso   1.00
C429   C     0.84445   0.45175   0.02856   0.00000  Uiso   1.00
C430   C     0.82219   0.54824   0.47142   0.00000  Uiso   1.00
C431   C     0.89286   0.44511   0.00846   0.00000  Uiso   1.00
C432   C     0.77378   0.55487   0.49152   0.00000  Uiso   1.00
H433   H     0.90999   0.41900   0.02013   0.00000  Uiso   1.00
H434   H     0.75665   0.58097   0.47984   0.00000  Uiso   1.00
H435   H     0.82554   0.42786   0.05129   0.00000  Uiso   1.00
H436   H     0.84109   0.57213   0.44870   0.00000  Uiso   1.00
C437   C     0.97605   0.35595   0.22359   0.00000  Uiso   1.00
C438   C     0.69063   0.64405   0.27640   0.00000  Uiso   1.00
H439   H     0.95899   0.37378   0.20206   0.00000  Uiso   1.00
H440   H     0.70768   0.62622   0.29793   0.00000  Uiso   1.00
C441   C     0.97770   0.64650   0.22052   0.00000  Uiso   1.00
C442   C     0.68898   0.35350   0.27947   0.00000  Uiso   1.00
C443   C     0.66797   0.62390   0.24777   0.00000  Uiso   1.00
C444   C     0.99870   0.37610   0.25223   0.00000  Uiso   1.00
C445   C     0.85023   0.47167   0.27545   0.00000  Uiso   1.00
C446   C     0.81644   0.52833   0.22454   0.00000  Uiso   1.00
C447   C     0.80079   0.47191   0.27531   0.00000  Uiso   1.00
C448   C     0.86588   0.52809   0.22469   0.00000  Uiso   1.00
H449   H     0.77589   0.44948   0.29555   0.00000  Uiso   1.00
H450   H     0.89078   0.55052   0.20445   0.00000  Uiso   1.00
N451   N     0.78403   0.50001   0.24999   0.00000  Uiso   1.00
N452   N     0.88264   0.49999   0.25001   0.00000  Uiso   1.00
C453   C     0.78543   0.46606   0.11597   0.00000  Uiso   1.00
N454   N     0.80901   0.44939   0.13600   0.00000  Uiso   1.00
C455   C     0.88124   0.53395   0.38402   0.00000  Uiso   1.00
N456   N     0.85768   0.55063   0.36399   0.00000  Uiso   1.00
N457   N     0.96006   0.52033   0.10843   0.00000  Uiso   1.00
O458   O     0.93538   0.48626   0.12094   0.00000  Uiso   1.00
O459   O     0.93689   0.55459   0.10713   0.00000  Uiso   1.00
N460   N     0.70660   0.47966   0.39158   0.00000  Uiso   1.00
O461   O     0.73127   0.51373   0.37906   0.00000  Uiso   1.00
O462   O     0.72977   0.44541   0.39291   0.00000  Uiso   1.00
N463   N     0.99516   0.43823   0.47379   0.00000  Uiso   1.00
O464   O     0.99344   0.39815   0.47187   0.00000  Uiso   1.00
O465   O     0.69378   0.45562   0.49089   0.00000  Uiso   1.00
N466   N     0.67146   0.56171   0.02618   0.00000  Uiso   1.00
O467   O     0.97269   0.54431   0.00929   0.00000  Uiso   1.00
O468   O     0.67327   0.60180   0.02797   0.00000  Uiso   1.00
N469   N     0.95824   0.62681   0.18781   0.00000  Uiso   1.00
O470   O     0.98269   0.59814   0.16328   0.00000  Uiso   1.00
O471   O     0.92028   0.64176   0.17760   0.00000  Uiso   1.00
N472   N     0.70846   0.37319   0.31216   0.00000  Uiso   1.00
O473   O     0.68400   0.40184   0.33673   0.00000  Uiso   1.00
O474   O     0.74649   0.35829   0.32229   0.00000  Uiso   1.00
N475   N     0.86570   0.44094   0.30215   0.00000  Uiso   1.00
O476   O     0.86989   0.40308   0.28849   0.00000  Uiso   1.00
O477   O     0.85980   0.44738   0.34440   0.00000  Uiso   1.00
N478   N     0.80097   0.55906   0.19784   0.00000  Uiso   1.00
O479   O     0.79676   0.59691   0.21152   0.00000  Uiso   1.00
O480   O     0.80688   0.55262   0.15559   0.00000  Uiso   1.00
O481   O     0.03958   0.77322   0.25000   0.00000  Uiso   1.00
O482   O     0.29375   0.89345   0.25000   0.00000  Uiso   1.00
O483   O     0.29372   0.77321   0.25000   0.00000  Uiso   1.00
O484   O     0.03961   0.89346   0.24999   0.00000  Uiso   1.00
C485   C     0.33283   0.75410   0.25114   0.00000  Uiso   1.00
C486   C     0.00051   0.91257   0.24886   0.00000  Uiso   1.00
O487   O     0.01852   0.83334   0.31491   0.00000  Uiso   1.00
O488   O     0.31481   0.83332   0.18508   0.00000  Uiso   1.00
O489   O     0.27267   0.83333   0.31492   0.00000  Uiso   1.00
O490   O     0.06067   0.83333   0.18508   0.00000  Uiso   1.00
C491   C     0.30633   0.83485   0.33614   0.00000  Uiso   1.00
C492   C     0.02700   0.83182   0.16386   0.00000  Uiso   1.00
Cu493  Cu    0.04689   0.83334   0.25000   0.00000  Uiso   1.00
Cu494  Cu    0.28645   0.83333   0.25000   0.00000  Uiso   1.00
C495   C     0.29166   0.83394   0.38574   0.00000  Uiso   1.00
C496   C     0.04167   0.83273   0.11426   0.00000  Uiso   1.00
C497   C     0.30010   0.79639   0.45165   0.00000  Uiso   1.00
C498   C     0.03320   0.87025   0.04834   0.00000  Uiso   1.00
C499   C     0.32166   0.81478   0.40982   0.00000  Uiso   1.00
C500   C     0.01166   0.85187   0.09018   0.00000  Uiso   1.00
C501   C     0.24435   0.84615   0.40883   0.00000  Uiso   1.00
C502   C     0.08898   0.82052   0.09117   0.00000  Uiso   1.00
C503   C     0.22476   0.83308   0.45401   0.00000  Uiso   1.00
C504   C     0.10855   0.83358   0.04598   0.00000  Uiso   1.00
C505   C     0.25071   0.80287   0.47185   0.00000  Uiso   1.00
C506   C     0.08260   0.86378   0.02814   0.00000  Uiso   1.00
C507   C     0.17845   0.84539   0.48080   0.00000  Uiso   1.00
C508   C     0.15487   0.82126   0.01919   0.00000  Uiso   1.00
C509   C     0.17778   0.78508   0.02856   0.00000  Uiso   1.00
C510   C     0.15552   0.88157   0.47142   0.00000  Uiso   1.00
C511   C     0.22619   0.77844   0.00846   0.00000  Uiso   1.00
C512   C     0.10712   0.88821   0.49152   0.00000  Uiso   1.00
H513   H     0.24332   0.75234   0.02013   0.00000  Uiso   1.00
H514   H     0.08998   0.91430   0.47984   0.00000  Uiso   1.00
H515   H     0.15888   0.76119   0.05129   0.00000  Uiso   1.00
H516   H     0.17443   0.90546   0.44870   0.00000  Uiso   1.00
C517   C     0.30938   0.68928   0.22359   0.00000  Uiso   1.00
C518   C     0.02396   0.97738   0.27640   0.00000  Uiso   1.00
H519   H     0.29232   0.70712   0.20206   0.00000  Uiso   1.00
H520   H     0.04102   0.95955   0.29793   0.00000  Uiso   1.00
C521   C     0.31104   0.97983   0.22052   0.00000  Uiso   1.00
C522   C     0.02231   0.68683   0.27947   0.00000  Uiso   1.00
C523   C     0.00130   0.95724   0.24777   0.00000  Uiso   1.00
C524   C     0.33204   0.70943   0.25223   0.00000  Uiso   1.00
C525   C     0.18356   0.80500   0.27545   0.00000  Uiso   1.00
C526   C     0.14977   0.86167   0.22454   0.00000  Uiso   1.00
C527   C     0.13412   0.80524   0.27531   0.00000  Uiso   1.00
C528   C     0.19921   0.86143   0.22469   0.00000  Uiso   1.00
H529   H     0.10922   0.78281   0.29555   0.00000  Uiso   1.00
H530   H     0.22411   0.88386   0.20445   0.00000  Uiso   1.00
N531   N     0.11736   0.83334   0.24999   0.00000  Uiso   1.00
N532   N     0.21597   0.83332   0.25001   0.00000  Uiso   1.00
C533   C     0.11877   0.79940   0.11597   0.00000  Uiso   1.00
N534   N     0.14234   0.78273   0.13600   0.00000  Uiso   1.00
C535   C     0.21457   0.86729   0.38402   0.00000  Uiso   1.00
N536   N     0.19101   0.88397   0.36399   0.00000  Uiso   1.00
N537   N     0.29339   0.85366   0.10843   0.00000  Uiso   1.00
O538   O     0.26871   0.81960   0.12094   0.00000  Uiso   1.00
O539   O     0.27023   0.88793   0.10713   0.00000  Uiso   1.00
N540   N     0.03993   0.81300   0.39158   0.00000  Uiso   1.00
O541   O     0.06461   0.84707   0.37906   0.00000  Uiso   1.00
O542   O     0.06311   0.77874   0.39291   0.00000  Uiso   1.00
N543   N     0.32849   0.77156   0.47379   0.00000  Uiso   1.00
O544   O     0.32677   0.73148   0.47187   0.00000  Uiso   1.00
O545   O     0.02711   0.78896   0.49089   0.00000  Uiso   1.00
N546   N     0.00479   0.89505   0.02618   0.00000  Uiso   1.00
O547   O     0.30602   0.87764   0.00929   0.00000  Uiso   1.00
O548   O     0.00660   0.93514   0.02797   0.00000  Uiso   1.00
N549   N     0.29158   0.96014   0.18781   0.00000  Uiso   1.00
O550   O     0.31603   0.93147   0.16328   0.00000  Uiso   1.00
O551   O     0.25361   0.97509   0.17760   0.00000  Uiso   1.00
N552   N     0.04179   0.70653   0.31216   0.00000  Uiso   1.00
O553   O     0.01734   0.73517   0.33673   0.00000  Uiso   1.00
O554   O     0.07982   0.69162   0.32229   0.00000  Uiso   1.00
N555   N     0.19903   0.77427   0.30215   0.00000  Uiso   1.00
O556   O     0.20323   0.73642   0.28849   0.00000  Uiso   1.00
O557   O     0.19314   0.78071   0.34440   0.00000  Uiso   1.00
N558   N     0.13430   0.89239   0.19784   0.00000  Uiso   1.00
O559   O     0.13009   0.93025   0.21152   0.00000  Uiso   1.00
O560   O     0.14022   0.88596   0.15559   0.00000  Uiso   1.00
O561   O     0.37291   0.77322   0.25000   0.00000  Uiso   1.00
O562   O     0.62709   0.89345   0.25000   0.00000  Uiso   1.00
O563   O     0.62706   0.77321   0.25000   0.00000  Uiso   1.00
O564   O     0.37294   0.89346   0.24999   0.00000  Uiso   1.00
C565   C     0.66616   0.75410   0.25114   0.00000  Uiso   1.00
C566   C     0.33384   0.91257   0.24886   0.00000  Uiso   1.00
O567   O     0.35186   0.83334   0.31491   0.00000  Uiso   1.00
O568   O     0.64814   0.83332   0.18508   0.00000  Uiso   1.00
O569   O     0.60600   0.83333   0.31492   0.00000  Uiso   1.00
O570   O     0.39400   0.83333   0.18508   0.00000  Uiso   1.00
C571   C     0.63966   0.83485   0.33614   0.00000  Uiso   1.00
C572   C     0.36034   0.83182   0.16386   0.00000  Uiso   1.00
Cu573  Cu    0.38022   0.83334   0.25000   0.00000  Uiso   1.00
Cu574  Cu    0.61978   0.83333   0.25000   0.00000  Uiso   1.00
C575   C     0.62499   0.83394   0.38574   0.00000  Uiso   1.00
C576   C     0.37501   0.83273   0.11426   0.00000  Uiso   1.00
C577   C     0.63344   0.79639   0.45165   0.00000  Uiso   1.00
C578   C     0.36654   0.87025   0.04834   0.00000  Uiso   1.00
C579   C     0.65499   0.81478   0.40982   0.00000  Uiso   1.00
C580   C     0.34500   0.85187   0.09018   0.00000  Uiso   1.00
C581   C     0.57769   0.84615   0.40883   0.00000  Uiso   1.00
C582   C     0.42231   0.82052   0.09117   0.00000  Uiso   1.00
C583   C     0.55810   0.83308   0.45401   0.00000  Uiso   1.00
C584   C     0.44189   0.83358   0.04598   0.00000  Uiso   1.00
C585   C     0.58404   0.80287   0.47185   0.00000  Uiso   1.00
C586   C     0.41593   0.86378   0.02814   0.00000  Uiso   1.00
C587   C     0.51178   0.84539   0.48080   0.00000  Uiso   1.00
C588   C     0.48820   0.82126   0.01919   0.00000  Uiso   1.00
C589   C     0.51112   0.78508   0.02856   0.00000  Uiso   1.00
C590   C     0.48886   0.88157   0.47142   0.00000  Uiso   1.00
C591   C     0.55952   0.77844   0.00846   0.00000  Uiso   1.00
C592   C     0.44045   0.88821   0.49152   0.00000  Uiso   1.00
H593   H     0.57665   0.75234   0.02013   0.00000  Uiso   1.00
H594   H     0.42332   0.91430   0.47984   0.00000  Uiso   1.00
H595   H     0.49221   0.76119   0.05129   0.00000  Uiso   1.00
H596   H     0.50776   0.90546   0.44870   0.00000  Uiso   1.00
C597   C     0.64271   0.68928   0.22359   0.00000  Uiso   1.00
C598   C     0.35729   0.97738   0.27640   0.00000  Uiso   1.00
H599   H     0.62566   0.70712   0.20206   0.00000  Uiso   1.00
H600   H     0.37435   0.95955   0.29793   0.00000  Uiso   1.00
C601   C     0.64437   0.97983   0.22052   0.00000  Uiso   1.00
C602   C     0.35564   0.68683   0.27947   0.00000  Uiso   1.00
C603   C     0.33463   0.95724   0.24777   0.00000  Uiso   1.00
C604   C     0.66537   0.70943   0.25223   0.00000  Uiso   1.00
C605   C     0.51689   0.80500   0.27545   0.00000  Uiso   1.00
C606   C     0.48311   0.86167   0.22454   0.00000  Uiso   1.00
C607   C     0.46745   0.80524   0.27531   0.00000  Uiso   1.00
C608   C     0.53255   0.86143   0.22469   0.00000  Uiso   1.00
H609   H     0.44256   0.78281   0.29555   0.00000  Uiso   1.00
H610   H     0.55744   0.88386   0.20445   0.00000  Uiso   1.00
N611   N     0.45069   0.83334   0.24999   0.00000  Uiso   1.00
N612   N     0.54931   0.83332   0.25001   0.00000  Uiso   1.00
C613   C     0.45210   0.79940   0.11597   0.00000  Uiso   1.00
N614   N     0.47568   0.78273   0.13600   0.00000  Uiso   1.00
C615   C     0.54791   0.86729   0.38402   0.00000  Uiso   1.00
N616   N     0.52434   0.88397   0.36399   0.00000  Uiso   1.00
N617   N     0.62673   0.85366   0.10843   0.00000  Uiso   1.00
O618   O     0.60204   0.81960   0.12094   0.00000  Uiso   1.00
O619   O     0.60356   0.88793   0.10713   0.00000  Uiso   1.00
N620   N     0.37326   0.81300   0.39158   0.00000  Uiso   1.00
O621   O     0.39794   0.84707   0.37906   0.00000  Uiso   1.00
O622   O     0.39644   0.77874   0.39291   0.00000  Uiso   1.00
N623   N     0.66183   0.77156   0.47379   0.00000  Uiso   1.00
O624   O     0.66011   0.73148   0.47187   0.00000  Uiso   1.00
O625   O     0.36044   0.78896   0.49089   0.00000  Uiso   1.00
N626   N     0.33813   0.89505   0.02618   0.00000  Uiso   1.00
O627   O     0.63935   0.87764   0.00929   0.00000  Uiso   1.00
O628   O     0.33994   0.93514   0.02797   0.00000  Uiso   1.00
N629   N     0.62491   0.96014   0.18781   0.00000  Uiso   1.00
O630   O     0.64936   0.93147   0.16328   0.00000  Uiso   1.00
O631   O     0.58694   0.97509   0.17760   0.00000  Uiso   1.00
N632   N     0.37513   0.70653   0.31216   0.00000  Uiso   1.00
O633   O     0.35067   0.73517   0.33673   0.00000  Uiso   1.00
O634   O     0.41316   0.69162   0.32229   0.00000  Uiso   1.00
N635   N     0.53237   0.77427   0.30215   0.00000  Uiso   1.00
O636   O     0.53656   0.73642   0.28849   0.00000  Uiso   1.00
O637   O     0.52647   0.78071   0.34440   0.00000  Uiso   1.00
N638   N     0.46763   0.89239   0.19784   0.00000  Uiso   1.00
O639   O     0.46342   0.93025   0.21152   0.00000  Uiso   1.00
O640   O     0.47355   0.88596   0.15559   0.00000  Uiso   1.00
O641   O     0.70625   0.77322   0.25000   0.00000  Uiso   1.00
O642   O     0.96042   0.89345   0.25000   0.00000  Uiso   1.00
O643   O     0.96039   0.77321   0.25000   0.00000  Uiso   1.00
O644   O     0.70628   0.89346   0.24999   0.00000  Uiso   1.00
C645   C     0.99950   0.75410   0.25114   0.00000  Uiso   1.00
C646   C     0.66717   0.91257   0.24886   0.00000  Uiso   1.00
O647   O     0.68519   0.83334   0.31491   0.00000  Uiso   1.00
O648   O     0.98148   0.83332   0.18508   0.00000  Uiso   1.00
O649   O     0.93933   0.83333   0.31492   0.00000  Uiso   1.00
O650   O     0.72733   0.83333   0.18508   0.00000  Uiso   1.00
C651   C     0.97300   0.83485   0.33614   0.00000  Uiso   1.00
C652   C     0.69367   0.83182   0.16386   0.00000  Uiso   1.00
Cu653  Cu    0.71355   0.83334   0.25000   0.00000  Uiso   1.00
Cu654  Cu    0.95311   0.83333   0.25000   0.00000  Uiso   1.00
C655   C     0.95832   0.83394   0.38574   0.00000  Uiso   1.00
C656   C     0.70834   0.83273   0.11426   0.00000  Uiso   1.00
C657   C     0.96677   0.79639   0.45165   0.00000  Uiso   1.00
C658   C     0.69987   0.87025   0.04834   0.00000  Uiso   1.00
C659   C     0.98832   0.81478   0.40982   0.00000  Uiso   1.00
C660   C     0.67833   0.85187   0.09018   0.00000  Uiso   1.00
C661   C     0.91102   0.84615   0.40883   0.00000  Uiso   1.00
C662   C     0.75564   0.82052   0.09117   0.00000  Uiso   1.00
C663   C     0.89143   0.83308   0.45401   0.00000  Uiso   1.00
C664   C     0.77522   0.83358   0.04598   0.00000  Uiso   1.00
C665   C     0.91737   0.80287   0.47185   0.00000  Uiso   1.00
C666   C     0.74927   0.86378   0.02814   0.00000  Uiso   1.00
C667   C     0.84511   0.84539   0.48080   0.00000  Uiso   1.00
C668   C     0.82153   0.82126   0.01919   0.00000  Uiso   1.00
C669   C     0.84445   0.78508   0.02856   0.00000  Uiso   1.00
C670   C     0.82219   0.88157   0.47142   0.00000  Uiso   1.00
C671   C     0.89286   0.77844   0.00846   0.00000  Uiso   1.00
C672   C     0.77378   0.88821   0.49152   0.00000  Uiso   1.00
H673   H     0.90999   0.75234   0.02013   0.00000  Uiso   1.00
H674   H     0.75665   0.91430   0.47984   0.00000  Uiso   1.00
H675   H     0.82554   0.76119   0.05129   0.00000  Uiso   1.00
H676   H     0.84109   0.90546   0.44870   0.00000  Uiso   1.00
C677   C     0.97605   0.68928   0.22359   0.00000  Uiso   1.00
C678   C     0.69063   0.97738   0.27640   0.00000  Uiso   1.00
H679   H     0.95899   0.70712   0.20206   0.00000  Uiso   1.00
H680   H     0.70768   0.95955   0.29793   0.00000  Uiso   1.00
C681   C     0.97770   0.97983   0.22052   0.00000  Uiso   1.00
C682   C     0.68898   0.68683   0.27947   0.00000  Uiso   1.00
C683   C     0.66797   0.95724   0.24777   0.00000  Uiso   1.00
C684   C     0.99870   0.70943   0.25223   0.00000  Uiso   1.00
C685   C     0.85023   0.80500   0.27545   0.00000  Uiso   1.00
C686   C     0.81644   0.86167   0.22454   0.00000  Uiso   1.00
C687   C     0.80079   0.80524   0.27531   0.00000  Uiso   1.00
C688   C     0.86588   0.86143   0.22469   0.00000  Uiso   1.00
H689   H     0.77589   0.78281   0.29555   0.00000  Uiso   1.00
H690   H     0.89078   0.88386   0.20445   0.00000  Uiso   1.00
N691   N     0.78403   0.83334   0.24999   0.00000  Uiso   1.00
N692   N     0.88264   0.83332   0.25001   0.00000  Uiso   1.00
C693   C     0.78543   0.79940   0.11597   0.00000  Uiso   1.00
N694   N     0.80901   0.78273   0.13600   0.00000  Uiso   1.00
C695   C     0.88124   0.86729   0.38402   0.00000  Uiso   1.00
N696   N     0.85768   0.88397   0.36399   0.00000  Uiso   1.00
N697   N     0.96006   0.85366   0.10843   0.00000  Uiso   1.00
O698   O     0.93538   0.81960   0.12094   0.00000  Uiso   1.00
O699   O     0.93689   0.88793   0.10713   0.00000  Uiso   1.00
N700   N     0.70660   0.81300   0.39158   0.00000  Uiso   1.00
O701   O     0.73127   0.84707   0.37906   0.00000  Uiso   1.00
O702   O     0.72977   0.77874   0.39291   0.00000  Uiso   1.00
N703   N     0.99516   0.77156   0.47379   0.00000  Uiso   1.00
O704   O     0.99344   0.73148   0.47187   0.00000  Uiso   1.00
O705   O     0.69378   0.78896   0.49089   0.00000  Uiso   1.00
N706   N     0.67146   0.89505   0.02618   0.00000  Uiso   1.00
O707   O     0.97269   0.87764   0.00929   0.00000  Uiso   1.00
O708   O     0.67327   0.93514   0.02797   0.00000  Uiso   1.00
N709   N     0.95824   0.96014   0.18781   0.00000  Uiso   1.00
O710   O     0.98269   0.93147   0.16328   0.00000  Uiso   1.00
O711   O     0.92028   0.97509   0.17760   0.00000  Uiso   1.00
N712   N     0.70846   0.70653   0.31216   0.00000  Uiso   1.00
O713   O     0.68400   0.73517   0.33673   0.00000  Uiso   1.00
O714   O     0.74649   0.69162   0.32229   0.00000  Uiso   1.00
N715   N     0.86570   0.77427   0.30215   0.00000  Uiso   1.00
O716   O     0.86989   0.73642   0.28849   0.00000  Uiso   1.00
O717   O     0.85980   0.78071   0.34440   0.00000  Uiso   1.00
N718   N     0.80097   0.89239   0.19784   0.00000  Uiso   1.00
O719   O     0.79676   0.93025   0.21152   0.00000  Uiso   1.00
O720   O     0.80688   0.88596   0.15559   0.00000  Uiso   1.00
O721   O     0.03958   0.10655   0.75000   0.00000  Uiso   1.00
O722   O     0.29375   0.22678   0.75000   0.00000  Uiso   1.00
O723   O     0.29372   0.10654   0.75000   0.00000  Uiso   1.00
O724   O     0.03961   0.22679   0.74999   0.00000  Uiso   1.00
C725   C     0.33283   0.08743   0.75114   0.00000  Uiso   1.00
C726   C     0.00051   0.24590   0.74886   0.00000  Uiso   1.00
O727   O     0.01852   0.16668   0.81491   0.00000  Uiso   1.00
O728   O     0.31481   0.16666   0.68508   0.00000  Uiso   1.00
O729   O     0.27267   0.16667   0.81492   0.00000  Uiso   1.00
O730   O     0.06067   0.16667   0.68508   0.00000  Uiso   1.00
C731   C     0.30633   0.16818   0.83614   0.00000  Uiso   1.00
C732   C     0.02700   0.16515   0.66386   0.00000  Uiso   1.00
Cu733  Cu    0.04689   0.16667   0.75000   0.00000  Uiso   1.00
Cu734  Cu    0.28645   0.16666   0.75000   0.00000  Uiso   1.00
C735   C     0.29166   0.16727   0.88574   0.00000  Uiso   1.00
C736   C     0.04167   0.16606   0.61426   0.00000  Uiso   1.00
C737   C     0.30010   0.12972   0.95165   0.00000  Uiso   1.00
C738   C     0.03320   0.20359   0.54834   0.00000  Uiso   1.00
C739   C     0.32166   0.14811   0.90982   0.00000  Uiso   1.00
C740   C     0.01166   0.18521   0.59018   0.00000  Uiso   1.00
C741   C     0.24435   0.17948   0.90883   0.00000  Uiso   1.00
C742   C     0.08898   0.15386   0.59117   0.00000  Uiso   1.00
C743   C     0.22476   0.16641   0.95401   0.00000  Uiso   1.00
C744   C     0.10855   0.16691   0.54598   0.00000  Uiso   1.00
C745   C     0.25071   0.13620   0.97185   0.00000  Uiso   1.00
C746   C     0.08260   0.19712   0.52814   0.00000  Uiso   1.00
C747   C     0.17845   0.17873   0.98080   0.00000  Uiso   1.00
C748   C     0.15487   0.15460   0.51919   0.00000  Uiso   1.00
C749   C     0.17778   0.11842   0.52856   0.00000  Uiso   1.00
C750   C     0.15552   0.21490   0.97142   0.00000  Uiso   1.00
C751   C     0.22619   0.11177   0.50846   0.00000  Uiso   1.00
C752   C     0.10712   0.22154   0.99152   0.00000  Uiso   1.00
H753   H     0.24332   0.08567   0.52013   0.00000  Uiso   1.00
H754   H     0.08998   0.24763   0.97984   0.00000  Uiso   1.00
H755   H     0.15888   0.09453   0.55129   0.00000  Uiso   1.00
H756   H     0.17443   0.23880   0.94870   0.00000  Uiso   1.00
C757   C     0.30938   0.02262   0.72359   0.00000  Uiso   1.00
C758   C     0.02396   0.31072   0.77640   0.00000  Uiso   1.00
H759   H     0.29232   0.04045   0.70206   0.00000  Uiso   1.00
H760   H     0.04102   0.29289   0.79793   0.00000  Uiso   1.00
C761   C     0.31104   0.31317   0.72052   0.00000  Uiso   1.00
C762   C     0.02231   0.02017   0.77947   0.00000  Uiso   1.00
C763   C     0.00130   0.29057   0.74777   0.00000  Uiso   1.00
C764   C     0.33204   0.04276   0.75223   0.00000  Uiso   1.00
C765   C     0.18356   0.13833   0.77545   0.00000  Uiso   1.00
C766   C     0.14977   0.19500   0.72454   0.00000  Uiso   1.00
C767   C     0.13412   0.13857   0.77531   0.00000  Uiso   1.00
C768   C     0.19921   0.19476   0.72469   0.00000  Uiso   1.00
H769   H     0.10922   0.11614   0.79555   0.00000  Uiso   1.00
H770   H     0.22411   0.21719   0.70445   0.00000  Uiso   1.00
N771   N     0.11736   0.16668   0.74999   0.00000  Uiso   1.00
N772   N     0.21597   0.16666   0.75001   0.00000  Uiso   1.00
C773   C     0.11877   0.13273   0.61597   0.00000  Uiso   1.00
N774   N     0.14234   0.11606   0.63600   0.00000  Uiso   1.00
C775   C     0.21457   0.20062   0.88402   0.00000  Uiso   1.00
N776   N     0.19101   0.21730   0.86399   0.00000  Uiso   1.00
N777   N     0.29339   0.18700   0.60843   0.00000  Uiso   1.00
O778   O     0.26871   0.15293   0.62094   0.00000  Uiso   1.00
O779   O     0.27023   0.22126   0.60713   0.00000  Uiso   1.00
N780   N     0.03993   0.14633   0.89158   0.00000  Uiso   1.00
O781   O     0.06461   0.18040   0.87906   0.00000  Uiso   1.00
O782   O     0.06311   0.11208   0.89291   0.00000  Uiso   1.00
N783   N     0.32849   0.10490   0.97379   0.00000  Uiso   1.00
O784   O     0.32677   0.06481   0.97187   0.00000  Uiso   1.00
O785   O     0.02711   0.12229   0.99089   0.00000  Uiso   1.00
N786   N     0.00479   0.22838   0.52618   0.00000  Uiso   1.00
O787   O     0.30602   0.21097   0.50929   0.00000  Uiso   1.00
O788   O     0.00660   0.26847   0.52797   0.00000  Uiso   1.00
N789   N     0.29158   0.29348   0.68781   0.00000  Uiso   1.00
O790   O     0.31603   0.26480   0.66328   0.00000  Uiso   1.00
O791   O     0.25361   0.30843   0.67760   0.00000  Uiso   1.00
N792   N     0.04179   0.03986   0.81216   0.00000  Uiso   1.00
O793   O     0.01734   0.06851   0.83673   0.00000  Uiso   1.00
O794   O     0.07982   0.02495   0.82229   0.00000  Uiso   1.00
N795   N     0.19903   0.10760   0.80215   0.00000  Uiso   1.00
O796   O     0.20323   0.06975   0.78849   0.00000  Uiso   1.00
O797   O     0.19314   0.11405   0.84440   0.00000  Uiso   1.00
N798   N     0.13430   0.22573   0.69784   0.00000  Uiso   1.00
O799   O     0.13009   0.26358   0.71152   0.00000  Uiso   1.00
O800   O     0.14022   0.21929   0.65559   0.00000  Uiso   1.00
O801   O     0.37291   0.10655   0.75000   0.00000  Uiso   1.00
O802   O     0.62709   0.22678   0.75000   0.00000  Uiso   1.00
O803   O     0.62706   0.10654   0.75000   0.00000  Uiso   1.00
O804   O     0.37294   0.22679   0.74999   0.00000  Uiso   1.00
C805   C     0.66616   0.08743   0.75114   0.00000  Uiso   1.00
C806   C     0.33384   0.24590   0.74886   0.00000  Uiso   1.00
O807   O     0.35186   0.16668   0.81491   0.00000  Uiso   1.00
O808   O     0.64814   0.16666   0.68508   0.00000  Uiso   1.00
O809   O     0.60600   0.16667   0.81492   0.00000  Uiso   1.00
O810   O     0.39400   0.16667   0.68508   0.00000  Uiso   1.00
C811   C     0.63966   0.16818   0.83614   0.00000  Uiso   1.00
C812   C     0.36034   0.16515   0.66386   0.00000  Uiso   1.00
Cu813  Cu    0.38022   0.16667   0.75000   0.00000  Uiso   1.00
Cu814  Cu    0.61978   0.16666   0.75000   0.00000  Uiso   1.00
C815   C     0.62499   0.16727   0.88574   0.00000  Uiso   1.00
C816   C     0.37501   0.16606   0.61426   0.00000  Uiso   1.00
C817   C     0.63344   0.12972   0.95165   0.00000  Uiso   1.00
C818   C     0.36654   0.20359   0.54834   0.00000  Uiso   1.00
C819   C     0.65499   0.14811   0.90982   0.00000  Uiso   1.00
C820   C     0.34500   0.18521   0.59018   0.00000  Uiso   1.00
C821   C     0.57769   0.17948   0.90883   0.00000  Uiso   1.00
C822   C     0.42231   0.15386   0.59117   0.00000  Uiso   1.00
C823   C     0.55810   0.16641   0.95401   0.00000  Uiso   1.00
C824   C     0.44189   0.16691   0.54598   0.00000  Uiso   1.00
C825   C     0.58404   0.13620   0.97185   0.00000  Uiso   1.00
C826   C     0.41593   0.19712   0.52814   0.00000  Uiso   1.00
C827   C     0.51178   0.17873   0.98080   0.00000  Uiso   1.00
C828   C     0.48820   0.15460   0.51919   0.00000  Uiso   1.00
C829   C     0.51112   0.11842   0.52856   0.00000  Uiso   1.00
C830   C     0.48886   0.21490   0.97142   0.00000  Uiso   1.00
C831   C     0.55952   0.11177   0.50846   0.00000  Uiso   1.00
C832   C     0.44045   0.22154   0.99152   0.00000  Uiso   1.00
H833   H     0.57665   0.08567   0.52013   0.00000  Uiso   1.00
H834   H     0.42332   0.24763   0.97984   0.00000  Uiso   1.00
H835   H     0.49221   0.09453   0.55129   0.00000  Uiso   1.00
H836   H     0.50776   0.23880   0.94870   0.00000  Uiso   1.00
C837   C     0.64271   0.02262   0.72359   0.00000  Uiso   1.00
C838   C     0.35729   0.31072   0.77640   0.00000  Uiso   1.00
H839   H     0.62566   0.04045   0.70206   0.00000  Uiso   1.00
H840   H     0.37435   0.29289   0.79793   0.00000  Uiso   1.00
C841   C     0.64437   0.31317   0.72052   0.00000  Uiso   1.00
C842   C     0.35564   0.02017   0.77947   0.00000  Uiso   1.00
C843   C     0.33463   0.29057   0.74777   0.00000  Uiso   1.00
C844   C     0.66537   0.04276   0.75223   0.00000  Uiso   1.00
C845   C     0.51689   0.13833   0.77545   0.00000  Uiso   1.00
C846   C     0.48311   0.19500   0.72454   0.00000  Uiso   1.00
C847   C     0.46745   0.13857   0.77531   0.00000  Uiso   1.00
C848   C     0.53255   0.19476   0.72469   0.00000  Uiso   1.00
H849   H     0.44256   0.11614   0.79555   0.00000  Uiso   1.00
H850   H     0.55744   0.21719   0.70445   0.00000  Uiso   1.00
N851   N     0.45069   0.16668   0.74999   0.00000  Uiso   1.00
N852   N     0.54931   0.16666   0.75001   0.00000  Uiso   1.00
C853   C     0.45210   0.13273   0.61597   0.00000  Uiso   1.00
N854   N     0.47568   0.11606   0.63600   0.00000  Uiso   1.00
C855   C     0.54791   0.20062   0.88402   0.00000  Uiso   1.00
N856   N     0.52434   0.21730   0.86399   0.00000  Uiso   1.00
N857   N     0.62673   0.18700   0.60843   0.00000  Uiso   1.00
O858   O     0.60204   0.15293   0.62094   0.00000  Uiso   1.00
O859   O     0.60356   0.22126   0.60713   0.00000  Uiso   1.00
N860   N     0.37326   0.14633   0.89158   0.00000  Uiso   1.00
O861   O     0.39794   0.18040   0.87906   0.00000  Uiso   1.00
O862   O     0.39644   0.11208   0.89291   0.00000  Uiso   1.00
N863   N     0.66183   0.10490   0.97379   0.00000  Uiso   1.00
O864   O     0.66011   0.06481   0.97187   0.00000  Uiso   1.00
O865   O     0.36044   0.12229   0.99089   0.00000  Uiso   1.00
N866   N     0.33813   0.22838   0.52618   0.00000  Uiso   1.00
O867   O     0.63935   0.21097   0.50929   0.00000  Uiso   1.00
O868   O     0.33994   0.26847   0.52797   0.00000  Uiso   1.00
N869   N     0.62491   0.29348   0.68781   0.00000  Uiso   1.00
O870   O     0.64936   0.26480   0.66328   0.00000  Uiso   1.00
O871   O     0.58694   0.30843   0.67760   0.00000  Uiso   1.00
N872   N     0.37513   0.03986   0.81216   0.00000  Uiso   1.00
O873   O     0.35067   0.06851   0.83673   0.00000  Uiso   1.00
O874   O     0.41316   0.02495   0.82229   0.00000  Uiso   1.00
N875   N     0.53237   0.10760   0.80215   0.00000  Uiso   1.00
O876   O     0.53656   0.06975   0.78849   0.00000  Uiso   1.00
O877   O     0.52647   0.11405   0.84440   0.00000  Uiso   1.00
N878   N     0.46763   0.22573   0.69784   0.00000  Uiso   1.00
O879   O     0.46342   0.26358   0.71152   0.00000  Uiso   1.00
O880   O     0.47355   0.21929   0.65559   0.00000  Uiso   1.00
O881   O     0.70625   0.10655   0.75000   0.00000  Uiso   1.00
O882   O     0.96042   0.22678   0.75000   0.00000  Uiso   1.00
O883   O     0.96039   0.10654   0.75000   0.00000  Uiso   1.00
O884   O     0.70628   0.22679   0.74999   0.00000  Uiso   1.00
C885   C     0.99950   0.08743   0.75114   0.00000  Uiso   1.00
C886   C     0.66717   0.24590   0.74886   0.00000  Uiso   1.00
O887   O     0.68519   0.16668   0.81491   0.00000  Uiso   1.00
O888   O     0.98148   0.16666   0.68508   0.00000  Uiso   1.00
O889   O     0.93933   0.16667   0.81492   0.00000  Uiso   1.00
O890   O     0.72733   0.16667   0.68508   0.00000  Uiso   1.00
C891   C     0.97300   0.16818   0.83614   0.00000  Uiso   1.00
C892   C     0.69367   0.16515   0.66386   0.00000  Uiso   1.00
Cu893  Cu    0.71355   0.16667   0.75000   0.00000  Uiso   1.00
Cu894  Cu    0.95311   0.16666   0.75000   0.00000  Uiso   1.00
C895   C     0.95832   0.16727   0.88574   0.00000  Uiso   1.00
C896   C     0.70834   0.16606   0.61426   0.00000  Uiso   1.00
C897   C     0.96677   0.12972   0.95165   0.00000  Uiso   1.00
C898   C     0.69987   0.20359   0.54834   0.00000  Uiso   1.00
C899   C     0.98832   0.14811   0.90982   0.00000  Uiso   1.00
C900   C     0.67833   0.18521   0.59018   0.00000  Uiso   1.00
C901   C     0.91102   0.17948   0.90883   0.00000  Uiso   1.00
C902   C     0.75564   0.15386   0.59117   0.00000  Uiso   1.00
C903   C     0.89143   0.16641   0.95401   0.00000  Uiso   1.00
C904   C     0.77522   0.16691   0.54598   0.00000  Uiso   1.00
C905   C     0.91737   0.13620   0.97185   0.00000  Uiso   1.00
C906   C     0.74927   0.19712   0.52814   0.00000  Uiso   1.00
C907   C     0.84511   0.17873   0.98080   0.00000  Uiso   1.00
C908   C     0.82153   0.15460   0.51919   0.00000  Uiso   1.00
C909   C     0.84445   0.11842   0.52856   0.00000  Uiso   1.00
C910   C     0.82219   0.21490   0.97142   0.00000  Uiso   1.00
C911   C     0.89286   0.11177   0.50846   0.00000  Uiso   1.00
C912   C     0.77378   0.22154   0.99152   0.00000  Uiso   1.00
H913   H     0.90999   0.08567   0.52013   0.00000  Uiso   1.00
H914   H     0.75665   0.24763   0.97984   0.00000  Uiso   1.00
H915   H     0.82554   0.09453   0.55129   0.00000  Uiso   1.00
H916   H     0.84109   0.23880   0.94870   0.00000  Uiso   1.00
C917   C     0.97605   0.02262   0.72359   0.00000  Uiso   1.00
C918   C     0.69063   0.31072   0.77640   0.00000  Uiso   1.00
H919   H     0.95899   0.04045   0.70206   0.00000  Uiso   1.00
H920   H     0.70768   0.29289   0.79793   0.00000  Uiso   1.00
C921   C     0.97770   0.31317   0.72052   0.00000  Uiso   1.00
C922   C     0.68898   0.02017   0.77947   0.00000  Uiso   1.00
C923   C     0.66797   0.29057   0.74777   0.00000  Uiso   1.00
C924   C     0.99870   0.04276   0.75223   0.00000  Uiso   1.00
C925   C     0.85023   0.13833   0.77545   0.00000  Uiso   1.00
C926   C     0.81644   0.19500   0.72454   0.00000  Uiso   1.00
C927   C     0.80079   0.13857   0.77531   0.00000  Uiso   1.00
C928   C     0.86588   0.19476   0.72469   0.00000  Uiso   1.00
H929   H     0.77589   0.11614   0.79555   0.00000  Uiso   1.00
H930   H     0.89078   0.21719   0.70445   0.00000  Uiso   1.00
N931   N     0.78403   0.16668   0.74999   0.00000  Uiso   1.00
N932   N     0.88264   0.16666   0.75001   0.00000  Uiso   1.00
C933   C     0.78543   0.13273   0.61597   0.00000  Uiso   1.00
N934   N     0.80901   0.11606   0.63600   0.00000  Uiso   1.00
C935   C     0.88124   0.20062   0.88402   0.00000  Uiso   1.00
N936   N     0.85768   0.21730   0.86399   0.00000  Uiso   1.00
N937   N     0.96006   0.18700   0.60843   0.00000  Uiso   1.00
O938   O     0.93538   0.15293   0.62094   0.00000  Uiso   1.00
O939   O     0.93689   0.22126   0.60713   0.00000  Uiso   1.00
N940   N     0.70660   0.14633   0.89158   0.00000  Uiso   1.00
O941   O     0.73127   0.18040   0.87906   0.00000  Uiso   1.00
O942   O     0.72977   0.11208   0.89291   0.00000  Uiso   1.00
N943   N     0.99516   0.10490   0.97379   0.00000  Uiso   1.00
O944   O     0.99344   0.06481   0.97187   0.00000  Uiso   1.00
O945   O     0.69378   0.12229   0.99089   0.00000  Uiso   1.00
N946   N     0.67146   0.22838   0.52618   0.00000  Uiso   1.00
O947   O     0.97269   0.21097   0.50929   0.00000  Uiso   1.00
O948   O     0.67327   0.26847   0.52797   0.00000  Uiso   1.00
N949   N     0.95824   0.29348   0.68781   0.00000  Uiso   1.00
O950   O     0.98269   0.26480   0.66328   0.00000  Uiso   1.00
O951   O     0.92028   0.30843   0.67760   0.00000  Uiso   1.00
N952   N     0.70846   0.03986   0.81216   0.00000  Uiso   1.00
O953   O     0.68400   0.06851   0.83673   0.00000  Uiso   1.00
O954   O     0.74649   0.02495   0.82229   0.00000  Uiso   1.00
N955   N     0.86570   0.10760   0.80215   0.00000  Uiso   1.00
O956   O     0.86989   0.06975   0.78849   0.00000  Uiso   1.00
O957   O     0.85980   0.11405   0.84440   0.00000  Uiso   1.00
N958   N     0.80097   0.22573   0.69784   0.00000  Uiso   1.00
O959   O     0.79676   0.26358   0.71152   0.00000  Uiso   1.00
O960   O     0.80688   0.21929   0.65559   0.00000  Uiso   1.00
O961   O     0.03958   0.43989   0.75000   0.00000  Uiso   1.00
O962   O     0.29375   0.56011   0.75000   0.00000  Uiso   1.00
O963   O     0.29372   0.43988   0.75000   0.00000  Uiso   1.00
O964   O     0.03961   0.56012   0.74999   0.00000  Uiso   1.00
C965   C     0.33283   0.42076   0.75114   0.00000  Uiso   1.00
C966   C     0.00051   0.57924   0.74886   0.00000  Uiso   1.00
O967   O     0.01852   0.50001   0.81491   0.00000  Uiso   1.00
O968   O     0.31481   0.49999   0.68508   0.00000  Uiso   1.00
O969   O     0.27267   0.50000   0.81492   0.00000  Uiso   1.00
O970   O     0.06067   0.50000   0.68508   0.00000  Uiso   1.00
C971   C     0.30633   0.50151   0.83614   0.00000  Uiso   1.00
C972   C     0.02700   0.49849   0.66386   0.00000  Uiso   1.00
Cu973  Cu    0.04689   0.50001   0.75000   0.00000  Uiso   1.00
Cu974  Cu    0.28645   0.49999   0.75000   0.00000  Uiso   1.00
C975   C     0.29166   0.50061   0.88574   0.00000  Uiso   1.00
C976   C     0.04167   0.49939   0.61426   0.00000  Uiso   1.00
C977   C     0.30010   0.46306   0.95165   0.00000  Uiso   1.00
C978   C     0.03320   0.53692   0.54834   0.00000  Uiso   1.00
C979   C     0.32166   0.48144   0.90982   0.00000  Uiso   1.00
C980   C     0.01166   0.51854   0.59018   0.00000  Uiso   1.00
C981   C     0.24435   0.51281   0.90883   0.00000  Uiso   1.00
C982   C     0.08898   0.48719   0.59117   0.00000  Uiso   1.00
C983   C     0.22476   0.49975   0.95401   0.00000  Uiso   1.00
C984   C     0.10855   0.50025   0.54598   0.00000  Uiso   1.00
C985   C     0.25071   0.46953   0.97185   0.00000  Uiso   1.00
C986   C     0.08260   0.53045   0.52814   0.00000  Uiso   1.00
C987   C     0.17845   0.51206   0.98080   0.00000  Uiso   1.00
C988   C     0.15487   0.48793   0.51919   0.00000  Uiso   1.00
C989   C     0.17778   0.45175   0.52856   0.00000  Uiso   1.00
C990   C     0.15552   0.54824   0.97142   0.00000  Uiso   1.00
C991   C     0.22619   0.44511   0.50846   0.00000  Uiso   1.00
C992   C     0.10712   0.55487   0.99152   0.00000  Uiso   1.00
H993   H     0.24332   0.41900   0.52013   0.00000  Uiso   1.00
H994   H     0.08998   0.58097   0.97984   0.00000  Uiso   1.00
H995   H     0.15888   0.42786   0.55129   0.00000  Uiso   1.00
H996   H     0.17443   0.57213   0.94870   0.00000  Uiso   1.00
C997   C     0.30938   0.35595   0.72359   0.00000  Uiso   1.00
C998   C     0.02396   0.64405   0.77640   0.00000  Uiso   1.00
H999   H     0.29232   0.37378   0.70206   0.00000  Uiso   1.00
H1000  H     0.04102   0.62622   0.79793   0.00000  Uiso   1.00
C1001  C     0.31104   0.64650   0.72052   0.00000  Uiso   1.00
C1002  C     0.02231   0.35350   0.77947   0.00000  Uiso   1.00
C1003  C     0.00130   0.62390   0.74777   0.00000  Uiso   1.00
C1004  C     0.33204   0.37610   0.75223   0.00000  Uiso   1.00
C1005  C     0.18356   0.47167   0.77545   0.00000  Uiso   1.00
C1006  C     0.14977   0.52833   0.72454   0.00000  Uiso   1.00
C1007  C     0.13412   0.47191   0.77531   0.00000  Uiso   1.00
C1008  C     0.19921   0.52809   0.72469   0.00000  Uiso   1.00
H1009  H     0.10922   0.44948   0.79555   0.00000  Uiso   1.00
H1010  H     0.22411   0.55052   0.70445   0.00000  Uiso   1.00
N1011  N     0.11736   0.50001   0.74999   0.00000  Uiso   1.00
N1012  N     0.21597   0.49999   0.75001   0.00000  Uiso   1.00
C1013  C     0.11877   0.46606   0.61597   0.00000  Uiso   1.00
N1014  N     0.14234   0.44939   0.63600   0.00000  Uiso   1.00
C1015  C     0.21457   0.53395   0.88402   0.00000  Uiso   1.00
N1016  N     0.19101   0.55063   0.86399   0.00000  Uiso   1.00
N1017  N     0.29339   0.52033   0.60843   0.00000  Uiso   1.00
O1018  O     0.26871   0.48626   0.62094   0.00000  Uiso   1.00
O1019  O     0.27023   0.55459   0.60713   0.00000  Uiso   1.00
N1020  N     0.03993   0.47966   0.89158   0.00000  Uiso   1.00
O1021  O     0.06461   0.51373   0.87906   0.00000  Uiso   1.00
O1022  O     0.06311   0.44541   0.89291   0.00000  Uiso   1.00
N1023  N     0.32849   0.43823   0.97379   0.00000  Uiso   1.00
O1024  O     0.32677   0.39815   0.97187   0.00000  Uiso   1.00
O1025  O     0.02711   0.45562   0.99089   0.00000  Uiso   1.00
N1026  N     0.00479   0.56171   0.52618   0.00000  Uiso   1.00
O1027  O     0.30602   0.54431   0.50929   0.00000  Uiso   1.00
O1028  O     0.00660   0.60180   0.52797   0.00000  Uiso   1.00
N1029  N     0.29158   0.62681   0.68781   0.00000  Uiso   1.00
O1030  O     0.31603   0.59814   0.66328   0.00000  Uiso   1.00
O1031  O     0.25361   0.64176   0.67760   0.00000  Uiso   1.00
N1032  N     0.04179   0.37319   0.81216   0.00000  Uiso   1.00
O1033  O     0.01734   0.40184   0.83673   0.00000  Uiso   1.00
O1034  O     0.07982   0.35829   0.82229   0.00000  Uiso   1.00
N1035  N     0.19903   0.44094   0.80215   0.00000  Uiso   1.00
O1036  O     0.20323   0.40308   0.78849   0.00000  Uiso   1.00
O1037  O     0.19314   0.44738   0.84440   0.00000  Uiso   1.00
N1038  N     0.13430   0.55906   0.69784   0.00000  Uiso   1.00
O1039  O     0.13009   0.59691   0.71152   0.00000  Uiso   1.00
O1040  O     0.14022   0.55262   0.65559   0.00000  Uiso   1.00
O1041  O     0.37291   0.43989   0.75000   0.00000  Uiso   1.00
O1042  O     0.62709   0.56011   0.75000   0.00000  Uiso   1.00
O1043  O     0.62706   0.43988   0.75000   0.00000  Uiso   1.00
O1044  O     0.37294   0.56012   0.74999   0.00000  Uiso   1.00
C1045  C     0.66616   0.42076   0.75114   0.00000  Uiso   1.00
C1046  C     0.33384   0.57924   0.74886   0.00000  Uiso   1.00
O1047  O     0.35186   0.50001   0.81491   0.00000  Uiso   1.00
O1048  O     0.64814   0.49999   0.68508   0.00000  Uiso   1.00
O1049  O     0.60600   0.50000   0.81492   0.00000  Uiso   1.00
O1050  O     0.39400   0.50000   0.68508   0.00000  Uiso   1.00
C1051  C     0.63966   0.50151   0.83614   0.00000  Uiso   1.00
C1052  C     0.36034   0.49849   0.66386   0.00000  Uiso   1.00
Cu1053 Cu    0.38022   0.50001   0.75000   0.00000  Uiso   1.00
Cu1054 Cu    0.61978   0.49999   0.75000   0.00000  Uiso   1.00
C1055  C     0.62499   0.50061   0.88574   0.00000  Uiso   1.00
C1056  C     0.37501   0.49939   0.61426   0.00000  Uiso   1.00
C1057  C     0.63344   0.46306   0.95165   0.00000  Uiso   1.00
C1058  C     0.36654   0.53692   0.54834   0.00000  Uiso   1.00
C1059  C     0.65499   0.48144   0.90982   0.00000  Uiso   1.00
C1060  C     0.34500   0.51854   0.59018   0.00000  Uiso   1.00
C1061  C     0.57769   0.51281   0.90883   0.00000  Uiso   1.00
C1062  C     0.42231   0.48719   0.59117   0.00000  Uiso   1.00
C1063  C     0.55810   0.49975   0.95401   0.00000  Uiso   1.00
C1064  C     0.44189   0.50025   0.54598   0.00000  Uiso   1.00
C1065  C     0.58404   0.46953   0.97185   0.00000  Uiso   1.00
C1066  C     0.41593   0.53045   0.52814   0.00000  Uiso   1.00
C1067  C     0.51178   0.51206   0.98080   0.00000  Uiso   1.00
C1068  C     0.48820   0.48793   0.51919   0.00000  Uiso   1.00
C1069  C     0.51112   0.45175   0.52856   0.00000  Uiso   1.00
C1070  C     0.48886   0.54824   0.97142   0.00000  Uiso   1.00
C1071  C     0.55952   0.44511   0.50846   0.00000  Uiso   1.00
C1072  C     0.44045   0.55487   0.99152   0.00000  Uiso   1.00
H1073  H     0.57665   0.41900   0.52013   0.00000  Uiso   1.00
H1074  H     0.42332   0.58097   0.97984   0.00000  Uiso   1.00
H1075  H     0.49221   0.42786   0.55129   0.00000  Uiso   1.00
H1076  H     0.50776   0.57213   0.94870   0.00000  Uiso   1.00
C1077  C     0.64271   0.35595   0.72359   0.00000  Uiso   1.00
C1078  C     0.35729   0.64405   0.77640   0.00000  Uiso   1.00
H1079  H     0.62566   0.37378   0.70206   0.00000  Uiso   1.00
H1080  H     0.37435   0.62622   0.79793   0.00000  Uiso   1.00
C1081  C     0.64437   0.64650   0.72052   0.00000  Uiso   1.00
C1082  C     0.35564   0.35350   0.77947   0.00000  Uiso   1.00
C1083  C     0.33463   0.62390   0.74777   0.00000  Uiso   1.00
C1084  C     0.66537   0.37610   0.75223   0.00000  Uiso   1.00
C1085  C     0.51689   0.47167   0.77545   0.00000  Uiso   1.00
C1086  C     0.48311   0.52833   0.72454   0.00000  Uiso   1.00
C1087  C     0.46745   0.47191   0.77531   0.00000  Uiso   1.00
C1088  C     0.53255   0.52809   0.72469   0.00000  Uiso   1.00
H1089  H     0.44256   0.44948   0.79555   0.00000  Uiso   1.00
H1090  H     0.55744   0.55052   0.70445   0.00000  Uiso   1.00
N1091  N     0.45069   0.50001   0.74999   0.00000  Uiso   1.00
N1092  N     0.54931   0.49999   0.75001   0.00000  Uiso   1.00
C1093  C     0.45210   0.46606   0.61597   0.00000  Uiso   1.00
N1094  N     0.47568   0.44939   0.63600   0.00000  Uiso   1.00
C1095  C     0.54791   0.53395   0.88402   0.00000  Uiso   1.00
N1096  N     0.52434   0.55063   0.86399   0.00000  Uiso   1.00
N1097  N     0.62673   0.52033   0.60843   0.00000  Uiso   1.00
O1098  O     0.60204   0.48626   0.62094   0.00000  Uiso   1.00
O1099  O     0.60356   0.55459   0.60713   0.00000  Uiso   1.00
N1100  N     0.37326   0.47966   0.89158   0.00000  Uiso   1.00
O1101  O     0.39794   0.51373   0.87906   0.00000  Uiso   1.00
O1102  O     0.39644   0.44541   0.89291   0.00000  Uiso   1.00
N1103  N     0.66183   0.43823   0.97379   0.00000  Uiso   1.00
O1104  O     0.66011   0.39815   0.97187   0.00000  Uiso   1.00
O1105  O     0.36044   0.45562   0.99089   0.00000  Uiso   1.00
N1106  N     0.33813   0.56171   0.52618   0.00000  Uiso   1.00
O1107  O     0.63935   0.54431   0.50929   0.00000  Uiso   1.00
O1108  O     0.33994   0.60180   0.52797   0.00000  Uiso   1.00
N1109  N     0.62491   0.62681   0.68781   0.00000  Uiso   1.00
O1110  O     0.64936   0.59814   0.66328   0.00000  Uiso   1.00
O1111  O     0.58694   0.64176   0.67760   0.00000  Uiso   1.00
N1112  N     0.37513   0.37319   0.81216   0.00000  Uiso   1.00
O1113  O     0.35067   0.40184   0.83673   0.00000  Uiso   1.00
O1114  O     0.41316   0.35829   0.82229   0.00000  Uiso   1.00
N1115  N     0.53237   0.44094   0.80215   0.00000  Uiso   1.00
O1116  O     0.53656   0.40308   0.78849   0.00000  Uiso   1.00
O1117  O     0.52647   0.44738   0.84440   0.00000  Uiso   1.00
N1118  N     0.46763   0.55906   0.69784   0.00000  Uiso   1.00
O1119  O     0.46342   0.59691   0.71152   0.00000  Uiso   1.00
O1120  O     0.47355   0.55262   0.65559   0.00000  Uiso   1.00
O1121  O     0.70625   0.43989   0.75000   0.00000  Uiso   1.00
O1122  O     0.96042   0.56011   0.75000   0.00000  Uiso   1.00
O1123  O     0.96039   0.43988   0.75000   0.00000  Uiso   1.00
O1124  O     0.70628   0.56012   0.74999   0.00000  Uiso   1.00
C1125  C     0.99950   0.42076   0.75114   0.00000  Uiso   1.00
C1126  C     0.66717   0.57924   0.74886   0.00000  Uiso   1.00
O1127  O     0.68519   0.50001   0.81491   0.00000  Uiso   1.00
O1128  O     0.98148   0.49999   0.68508   0.00000  Uiso   1.00
O1129  O     0.93933   0.50000   0.81492   0.00000  Uiso   1.00
O1130  O     0.72733   0.50000   0.68508   0.00000  Uiso   1.00
C1131  C     0.97300   0.50151   0.83614   0.00000  Uiso   1.00
C1132  C     0.69367   0.49849   0.66386   0.00000  Uiso   1.00
Cu1133 Cu    0.71355   0.50001   0.75000   0.00000  Uiso   1.00
Cu1134 Cu    0.95311   0.49999   0.75000   0.00000  Uiso   1.00
C1135  C     0.95832   0.50061   0.88574   0.00000  Uiso   1.00
C1136  C     0.70834   0.49939   0.61426   0.00000  Uiso   1.00
C1137  C     0.96677   0.46306   0.95165   0.00000  Uiso   1.00
C1138  C     0.69987   0.53692   0.54834   0.00000  Uiso   1.00
C1139  C     0.98832   0.48144   0.90982   0.00000  Uiso   1.00
C1140  C     0.67833   0.51854   0.59018   0.00000  Uiso   1.00
C1141  C     0.91102   0.51281   0.90883   0.00000  Uiso   1.00
C1142  C     0.75564   0.48719   0.59117   0.00000  Uiso   1.00
C1143  C     0.89143   0.49975   0.95401   0.00000  Uiso   1.00
C1144  C     0.77522   0.50025   0.54598   0.00000  Uiso   1.00
C1145  C     0.91737   0.46953   0.97185   0.00000  Uiso   1.00
C1146  C     0.74927   0.53045   0.52814   0.00000  Uiso   1.00
C1147  C     0.84511   0.51206   0.98080   0.00000  Uiso   1.00
C1148  C     0.82153   0.48793   0.51919   0.00000  Uiso   1.00
C1149  C     0.84445   0.45175   0.52856   0.00000  Uiso   1.00
C1150  C     0.82219   0.54824   0.97142   0.00000  Uiso   1.00
C1151  C     0.89286   0.44511   0.50846   0.00000  Uiso   1.00
C1152  C     0.77378   0.55487   0.99152   0.00000  Uiso   1.00
H1153  H     0.90999   0.41900   0.52013   0.00000  Uiso   1.00
H1154  H     0.75665   0.58097   0.97984   0.00000  Uiso   1.00
H1155  H     0.82554   0.42786   0.55129   0.00000  Uiso   1.00
H1156  H     0.84109   0.57213   0.94870   0.00000  Uiso   1.00
C1157  C     0.97605   0.35595   0.72359   0.00000  Uiso   1.00
C1158  C     0.69063   0.64405   0.77640   0.00000  Uiso   1.00
H1159  H     0.95899   0.37378   0.70206   0.00000  Uiso   1.00
H1160  H     0.70768   0.62622   0.79793   0.00000  Uiso   1.00
C1161  C     0.97770   0.64650   0.72052   0.00000  Uiso   1.00
C1162  C     0.68898   0.35350   0.77947   0.00000  Uiso   1.00
C1163  C     0.66797   0.62390   0.74777   0.00000  Uiso   1.00
C1164  C     0.99870   0.37610   0.75223   0.00000  Uiso   1.00
C1165  C     0.85023   0.47167   0.77545   0.00000  Uiso   1.00
C1166  C     0.81644   0.52833   0.72454   0.00000  Uiso   1.00
C1167  C     0.80079   0.47191   0.77531   0.00000  Uiso   1.00
C1168  C     0.86588   0.52809   0.72469   0.00000  Uiso   1.00
H1169  H     0.77589   0.44948   0.79555   0.00000  Uiso   1.00
H1170  H     0.89078   0.55052   0.70445   0.00000  Uiso   1.00
N1171  N     0.78403   0.50001   0.74999   0.00000  Uiso   1.00
N1172  N     0.88264   0.49999   0.75001   0.00000  Uiso   1.00
C1173  C     0.78543   0.46606   0.61597   0.00000  Uiso   1.00
N1174  N     0.80901   0.44939   0.63600   0.00000  Uiso   1.00
C1175  C     0.88124   0.53395   0.88402   0.00000  Uiso   1.00
N1176  N     0.85768   0.55063   0.86399   0.00000  Uiso   1.00
N1177  N     0.96006   0.52033   0.60843   0.00000  Uiso   1.00
O1178  O     0.93538   0.48626   0.62094   0.00000  Uiso   1.00
O1179  O     0.93689   0.55459   0.60713   0.00000  Uiso   1.00
N1180  N     0.70660   0.47966   0.89158   0.00000  Uiso   1.00
O1181  O     0.73127   0.51373   0.87906   0.00000  Uiso   1.00
O1182  O     0.72977   0.44541   0.89291   0.00000  Uiso   1.00
N1183  N     0.99516   0.43823   0.97379   0.00000  Uiso   1.00
O1184  O     0.99344   0.39815   0.97187   0.00000  Uiso   1.00
O1185  O     0.69378   0.45562   0.99089   0.00000  Uiso   1.00
N1186  N     0.67146   0.56171   0.52618   0.00000  Uiso   1.00
O1187  O     0.97269   0.54431   0.50929   0.00000  Uiso   1.00
O1188  O     0.67327   0.60180   0.52797   0.00000  Uiso   1.00
N1189  N     0.95824   0.62681   0.68781   0.00000  Uiso   1.00
O1190  O     0.98269   0.59814   0.66328   0.00000  Uiso   1.00
O1191  O     0.92028   0.64176   0.67760   0.00000  Uiso   1.00
N1192  N     0.70846   0.37319   0.81216   0.00000  Uiso   1.00
O1193  O     0.68400   0.40184   0.83673   0.00000  Uiso   1.00
O1194  O     0.74649   0.35829   0.82229   0.00000  Uiso   1.00
N1195  N     0.86570   0.44094   0.80215   0.00000  Uiso   1.00
O1196  O     0.86989   0.40308   0.78849   0.00000  Uiso   1.00
O1197  O     0.85980   0.44738   0.84440   0.00000  Uiso   1.00
N1198  N     0.80097   0.55906   0.69784   0.00000  Uiso   1.00
O1199  O     0.79676   0.59691   0.71152   0.00000  Uiso   1.00
O1200  O     0.80688   0.55262   0.65559   0.00000  Uiso   1.00
O1201  O     0.03958   0.77322   0.75000   0.00000  Uiso   1.00
O1202  O     0.29375   0.89345   0.75000   0.00000  Uiso   1.00
O1203  O     0.29372   0.77321   0.75000   0.00000  Uiso   1.00
O1204  O     0.03961   0.89346   0.74999   0.00000  Uiso   1.00
C1205  C     0.33283   0.75410   0.75114   0.00000  Uiso   1.00
C1206  C     0.00051   0.91257   0.74886   0.00000  Uiso   1.00
O1207  O     0.01852   0.83334   0.81491   0.00000  Uiso   1.00
O1208  O     0.31481   0.83332   0.68508   0.00000  Uiso   1.00
O1209  O     0.27267   0.83333   0.81492   0.00000  Uiso   1.00
O1210  O     0.06067   0.83333   0.68508   0.00000  Uiso   1.00
C1211  C     0.30633   0.83485   0.83614   0.00000  Uiso   1.00
C1212  C     0.02700   0.83182   0.66386   0.00000  Uiso   1.00
Cu1213 Cu    0.04689   0.83334   0.75000   0.00000  Uiso   1.00
Cu1214 Cu    0.28645   0.83333   0.75000   0.00000  Uiso   1.00
C1215  C     0.29166   0.83394   0.88574   0.00000  Uiso   1.00
C1216  C     0.04167   0.83273   0.61426   0.00000  Uiso   1.00
C1217  C     0.30010   0.79639   0.95165   0.00000  Uiso   1.00
C1218  C     0.03320   0.87025   0.54834   0.00000  Uiso   1.00
C1219  C     0.32166   0.81478   0.90982   0.00000  Uiso   1.00
C1220  C     0.01166   0.85187   0.59018   0.00000  Uiso   1.00
C1221  C     0.24435   0.84615   0.90883   0.00000  Uiso   1.00
C1222  C     0.08898   0.82052   0.59117   0.00000  Uiso   1.00
C1223  C     0.22476   0.83308   0.95401   0.00000  Uiso   1.00
C1224  C     0.10855   0.83358   0.54598   0.00000  Uiso   1.00
C1225  C     0.25071   0.80287   0.97185   0.00000  Uiso   1.00
C1226  C     0.08260   0.86378   0.52814   0.00000  Uiso   1.00
C1227  C     0.17845   0.84539   0.98080   0.00000  Uiso   1.00
C1228  C     0.15487   0.82126   0.51919   0.00000  Uiso   1.00
C1229  C     0.17778   0.78508   0.52856   0.00000  Uiso   1.00
C1230  C     0.15552   0.88157   0.97142   0.00000  Uiso   1.00
C1231  C     0.22619   0.77844   0.50846   0.00000  Uiso   1.00
C1232  C     0.10712   0.88821   0.99152   0.00000  Uiso   1.00
H1233  H     0.24332   0.75234   0.52013   0.00000  Uiso   1.00
H1234  H     0.08998   0.91430   0.97984   0.00000  Uiso   1.00
H1235  H     0.15888   0.76119   0.55129   0.00000  Uiso   1.00
H1236  H     0.17443   0.90546   0.94870   0.00000  Uiso   1.00
C1237  C     0.30938   0.68928   0.72359   0.00000  Uiso   1.00
C1238  C     0.02396   0.97738   0.77640   0.00000  Uiso   1.00
H1239  H     0.29232   0.70712   0.70206   0.00000  Uiso   1.00
H1240  H     0.04102   0.95955   0.79793   0.00000  Uiso   1.00
C1241  C     0.31104   0.97983   0.72052   0.00000  Uiso   1.00
C1242  C     0.02231   0.68683   0.77947   0.00000  Uiso   1.00
C1243  C     0.00130   0.95724   0.74777   0.00000  Uiso   1.00
C1244  C     0.33204   0.70943   0.75223   0.00000  Uiso   1.00
C1245  C     0.18356   0.80500   0.77545   0.00000  Uiso   1.00
C1246  C     0.14977   0.86167   0.72454   0.00000  Uiso   1.00
C1247  C     0.13412   0.80524   0.77531   0.00000  Uiso   1.00
C1248  C     0.19921   0.86143   0.72469   0.00000  Uiso   1.00
H1249  H     0.10922   0.78281   0.79555   0.00000  Uiso   1.00
H1250  H     0.22411   0.88386   0.70445   0.00000  Uiso   1.00
N1251  N     0.11736   0.83334   0.74999   0.00000  Uiso   1.00
N1252  N     0.21597   0.83332   0.75001   0.00000  Uiso   1.00
C1253  C     0.11877   0.79940   0.61597   0.00000  Uiso   1.00
N1254  N     0.14234   0.78273   0.63600   0.00000  Uiso   1.00
C1255  C     0.21457   0.86729   0.88402   0.00000  Uiso   1.00
N1256  N     0.19101   0.88397   0.86399   0.00000  Uiso   1.00
N1257  N     0.29339   0.85366   0.60843   0.00000  Uiso   1.00
O1258  O     0.26871   0.81960   0.62094   0.00000  Uiso   1.00
O1259  O     0.27023   0.88793   0.60713   0.00000  Uiso   1.00
N1260  N     0.03993   0.81300   0.89158   0.00000  Uiso   1.00
O1261  O     0.06461   0.84707   0.87906   0.00000  Uiso   1.00
O1262  O     0.06311   0.77874   0.89291   0.00000  Uiso   1.00
N1263  N     0.32849   0.77156   0.97379   0.00000  Uiso   1.00
O1264  O     0.32677   0.73148   0.97187   0.00000  Uiso   1.00
O1265  O     0.02711   0.78896   0.99089   0.00000  Uiso   1.00
N1266  N     0.00479   0.89505   0.52618   0.00000  Uiso   1.00
O1267  O     0.30602   0.87764   0.50929   0.00000  Uiso   1.00
O1268  O     0.00660   0.93514   0.52797   0.00000  Uiso   1.00
N1269  N     0.29158   0.96014   0.68781   0.00000  Uiso   1.00
O1270  O     0.31603   0.93147   0.66328   0.00000  Uiso   1.00
O1271  O     0.25361   0.97509   0.67760   0.00000  Uiso   1.00
N1272  N     0.04179   0.70653   0.81216   0.00000  Uiso   1.00
O1273  O     0.01734   0.73517   0.83673   0.00000  Uiso   1.00
O1274  O     0.07982   0.69162   0.82229   0.00000  Uiso   1.00
N1275  N     0.19903   0.77427   0.80215   0.00000  Uiso   1.00
O1276  O     0.20323   0.73642   0.78849   0.00000  Uiso   1.00
O1277  O     0.19314   0.78071   0.84440   0.00000  Uiso   1.00
N1278  N     0.13430   0.89239   0.69784   0.00000  Uiso   1.00
O1279  O     0.13009   0.93025   0.71152   0.00000  Uiso   1.00
O1280  O     0.14022   0.88596   0.65559   0.00000  Uiso   1.00
O1281  O     0.37291   0.77322   0.75000   0.00000  Uiso   1.00
O1282  O     0.62709   0.89345   0.75000   0.00000  Uiso   1.00
O1283  O     0.62706   0.77321   0.75000   0.00000  Uiso   1.00
O1284  O     0.37294   0.89346   0.74999   0.00000  Uiso   1.00
C1285  C     0.66616   0.75410   0.75114   0.00000  Uiso   1.00
C1286  C     0.33384   0.91257   0.74886   0.00000  Uiso   1.00
O1287  O     0.35186   0.83334   0.81491   0.00000  Uiso   1.00
O1288  O     0.64814   0.83332   0.68508   0.00000  Uiso   1.00
O1289  O     0.60600   0.83333   0.81492   0.00000  Uiso   1.00
O1290  O     0.39400   0.83333   0.68508   0.00000  Uiso   1.00
C1291  C     0.63966   0.83485   0.83614   0.00000  Uiso   1.00
C1292  C     0.36034   0.83182   0.66386   0.00000  Uiso   1.00
Cu1293 Cu    0.38022   0.83334   0.75000   0.00000  Uiso   1.00
Cu1294 Cu    0.61978   0.83333   0.75000   0.00000  Uiso   1.00
C1295  C     0.62499   0.83394   0.88574   0.00000  Uiso   1.00
C1296  C     0.37501   0.83273   0.61426   0.00000  Uiso   1.00
C1297  C     0.63344   0.79639   0.95165   0.00000  Uiso   1.00
C1298  C     0.36654   0.87025   0.54834   0.00000  Uiso   1.00
C1299  C     0.65499   0.81478   0.90982   0.00000  Uiso   1.00
C1300  C     0.34500   0.85187   0.59018   0.00000  Uiso   1.00
C1301  C     0.57769   0.84615   0.90883   0.00000  Uiso   1.00
C1302  C     0.42231   0.82052   0.59117   0.00000  Uiso   1.00
C1303  C     0.55810   0.83308   0.95401   0.00000  Uiso   1.00
C1304  C     0.44189   0.83358   0.54598   0.00000  Uiso   1.00
C1305  C     0.58404   0.80287   0.97185   0.00000  Uiso   1.00
C1306  C     0.41593   0.86378   0.52814   0.00000  Uiso   1.00
C1307  C     0.51178   0.84539   0.98080   0.00000  Uiso   1.00
C1308  C     0.48820   0.82126   0.51919   0.00000  Uiso   1.00
C1309  C     0.51112   0.78508   0.52856   0.00000  Uiso   1.00
C1310  C     0.48886   0.88157   0.97142   0.00000  Uiso   1.00
C1311  C     0.55952   0.77844   0.50846   0.00000  Uiso   1.00
C1312  C     0.44045   0.88821   0.99152   0.00000  Uiso   1.00
H1313  H     0.57665   0.75234   0.52013   0.00000  Uiso   1.00
H1314  H     0.42332   0.91430   0.97984   0.00000  Uiso   1.00
H1315  H     0.49221   0.76119   0.55129   0.00000  Uiso   1.00
H1316  H     0.50776   0.90546   0.94870   0.00000  Uiso   1.00
C1317  C     0.64271   0.68928   0.72359   0.00000  Uiso   1.00
C1318  C     0.35729   0.97738   0.77640   0.00000  Uiso   1.00
H1319  H     0.62566   0.70712   0.70206   0.00000  Uiso   1.00
H1320  H     0.37435   0.95955   0.79793   0.00000  Uiso   1.00
C1321  C     0.64437   0.97983   0.72052   0.00000  Uiso   1.00
C1322  C     0.35564   0.68683   0.77947   0.00000  Uiso   1.00
C1323  C     0.33463   0.95724   0.74777   0.00000  Uiso   1.00
C1324  C     0.66537   0.70943   0.75223   0.00000  Uiso   1.00
C1325  C     0.51689   0.80500   0.77545   0.00000  Uiso   1.00
C1326  C     0.48311   0.86167   0.72454   0.00000  Uiso   1.00
C1327  C     0.46745   0.80524   0.77531   0.00000  Uiso   1.00
C1328  C     0.53255   0.86143   0.72469   0.00000  Uiso   1.00
H1329  H     0.44256   0.78281   0.79555   0.00000  Uiso   1.00
H1330  H     0.55744   0.88386   0.70445   0.00000  Uiso   1.00
N1331  N     0.45069   0.83334   0.74999   0.00000  Uiso   1.00
N1332  N     0.54931   0.83332   0.75001   0.00000  Uiso   1.00
C1333  C     0.45210   0.79940   0.61597   0.00000  Uiso   1.00
N1334  N     0.47568   0.78273   0.63600   0.00000  Uiso   1.00
C1335  C     0.54791   0.86729   0.88402   0.00000  Uiso   1.00
N1336  N     0.52434   0.88397   0.86399   0.00000  Uiso   1.00
N1337  N     0.62673   0.85366   0.60843   0.00000  Uiso   1.00
O1338  O     0.60204   0.81960   0.62094   0.00000  Uiso   1.00
O1339  O     0.60356   0.88793   0.60713   0.00000  Uiso   1.00
N1340  N     0.37326   0.81300   0.89158   0.00000  Uiso   1.00
O1341  O     0.39794   0.84707   0.87906   0.00000  Uiso   1.00
O1342  O     0.39644   0.77874   0.89291   0.00000  Uiso   1.00
N1343  N     0.66183   0.77156   0.97379   0.00000  Uiso   1.00
O1344  O     0.66011   0.73148   0.97187   0.00000  Uiso   1.00
O1345  O     0.36044   0.78896   0.99089   0.00000  Uiso   1.00
N1346  N     0.33813   0.89505   0.52618   0.00000  Uiso   1.00
O1347  O     0.63935   0.87764   0.50929   0.00000  Uiso   1.00
O1348  O     0.33994   0.93514   0.52797   0.00000  Uiso   1.00
N1349  N     0.62491   0.96014   0.68781   0.00000  Uiso   1.00
O1350  O     0.64936   0.93147   0.66328   0.00000  Uiso   1.00
O1351  O     0.58694   0.97509   0.67760   0.00000  Uiso   1.00
N1352  N     0.37513   0.70653   0.81216   0.00000  Uiso   1.00
O1353  O     0.35067   0.73517   0.83673   0.00000  Uiso   1.00
O1354  O     0.41316   0.69162   0.82229   0.00000  Uiso   1.00
N1355  N     0.53237   0.77427   0.80215   0.00000  Uiso   1.00
O1356  O     0.53656   0.73642   0.78849   0.00000  Uiso   1.00
O1357  O     0.52647   0.78071   0.84440   0.00000  Uiso   1.00
N1358  N     0.46763   0.89239   0.69784   0.00000  Uiso   1.00
O1359  O     0.46342   0.93025   0.71152   0.00000  Uiso   1.00
O1360  O     0.47355   0.88596   0.65559   0.00000  Uiso   1.00
O1361  O     0.70625   0.77322   0.75000   0.00000  Uiso   1.00
O1362  O     0.96042   0.89345   0.75000   0.00000  Uiso   1.00
O1363  O     0.96039   0.77321   0.75000   0.00000  Uiso   1.00
O1364  O     0.70628   0.89346   0.74999   0.00000  Uiso   1.00
C1365  C     0.99950   0.75410   0.75114   0.00000  Uiso   1.00
C1366  C     0.66717   0.91257   0.74886   0.00000  Uiso   1.00
O1367  O     0.68519   0.83334   0.81491   0.00000  Uiso   1.00
O1368  O     0.98148   0.83332   0.68508   0.00000  Uiso   1.00
O1369  O     0.93933   0.83333   0.81492   0.00000  Uiso   1.00
O1370  O     0.72733   0.83333   0.68508   0.00000  Uiso   1.00
C1371  C     0.97300   0.83485   0.83614   0.00000  Uiso   1.00
C1372  C     0.69367   0.83182   0.66386   0.00000  Uiso   1.00
Cu1373 Cu    0.71355   0.83334   0.75000   0.00000  Uiso   1.00
Cu1374 Cu    0.95311   0.83333   0.75000   0.00000  Uiso   1.00
C1375  C     0.95832   0.83394   0.88574   0.00000  Uiso   1.00
C1376  C     0.70834   0.83273   0.61426   0.00000  Uiso   1.00
C1377  C     0.96677   0.79639   0.95165   0.00000  Uiso   1.00
C1378  C     0.69987   0.87025   0.54834   0.00000  Uiso   1.00
C1379  C     0.98832   0.81478   0.90982   0.00000  Uiso   1.00
C1380  C     0.67833   0.85187   0.59018   0.00000  Uiso   1.00
C1381  C     0.91102   0.84615   0.90883   0.00000  Uiso   1.00
C1382  C     0.75564   0.82052   0.59117   0.00000  Uiso   1.00
C1383  C     0.89143   0.83308   0.95401   0.00000  Uiso   1.00
C1384  C     0.77522   0.83358   0.54598   0.00000  Uiso   1.00
C1385  C     0.91737   0.80287   0.97185   0.00000  Uiso   1.00
C1386  C     0.74927   0.86378   0.52814   0.00000  Uiso   1.00
C1387  C     0.84511   0.84539   0.98080   0.00000  Uiso   1.00
C1388  C     0.82153   0.82126   0.51919   0.00000  Uiso   1.00
C1389  C     0.84445   0.78508   0.52856   0.00000  Uiso   1.00
C1390  C     0.82219   0.88157   0.97142   0.00000  Uiso   1.00
C1391  C     0.89286   0.77844   0.50846   0.00000  Uiso   1.00
C1392  C     0.77378   0.88821   0.99152   0.00000  Uiso   1.00
H1393  H     0.90999   0.75234   0.52013   0.00000  Uiso   1.00
H1394  H     0.75665   0.91430   0.97984   0.00000  Uiso   1.00
H1395  H     0.82554   0.76119   0.55129   0.00000  Uiso   1.00
H1396  H     0.84109   0.90546   0.94870   0.00000  Uiso   1.00
C1397  C     0.97605   0.68928   0.72359   0.00000  Uiso   1.00
C1398  C     0.69063   0.97738   0.77640   0.00000  Uiso   1.00
H1399  H     0.95899   0.70712   0.70206   0.00000  Uiso   1.00
H1400  H     0.70768   0.95955   0.79793   0.00000  Uiso   1.00
C1401  C     0.97770   0.97983   0.72052   0.00000  Uiso   1.00
C1402  C     0.68898   0.68683   0.77947   0.00000  Uiso   1.00
C1403  C     0.66797   0.95724   0.74777   0.00000  Uiso   1.00
C1404  C     0.99870   0.70943   0.75223   0.00000  Uiso   1.00
C1405  C     0.85023   0.80500   0.77545   0.00000  Uiso   1.00
C1406  C     0.81644   0.86167   0.72454   0.00000  Uiso   1.00
C1407  C     0.80079   0.80524   0.77531   0.00000  Uiso   1.00
C1408  C     0.86588   0.86143   0.72469   0.00000  Uiso   1.00
H1409  H     0.77589   0.78281   0.79555   0.00000  Uiso   1.00
H1410  H     0.89078   0.88386   0.70445   0.00000  Uiso   1.00
N1411  N     0.78403   0.83334   0.74999   0.00000  Uiso   1.00
N1412  N     0.88264   0.83332   0.75001   0.00000  Uiso   1.00
C1413  C     0.78543   0.79940   0.61597   0.00000  Uiso   1.00
N1414  N     0.80901   0.78273   0.63600   0.00000  Uiso   1.00
C1415  C     0.88124   0.86729   0.88402   0.00000  Uiso   1.00
N1416  N     0.85768   0.88397   0.86399   0.00000  Uiso   1.00
N1417  N     0.96006   0.85366   0.60843   0.00000  Uiso   1.00
O1418  O     0.93538   0.81960   0.62094   0.00000  Uiso   1.00
O1419  O     0.93689   0.88793   0.60713   0.00000  Uiso   1.00
N1420  N     0.70660   0.81300   0.89158   0.00000  Uiso   1.00
O1421  O     0.73127   0.84707   0.87906   0.00000  Uiso   1.00
O1422  O     0.72977   0.77874   0.89291   0.00000  Uiso   1.00
N1423  N     0.99516   0.77156   0.97379   0.00000  Uiso   1.00
O1424  O     0.99344   0.73148   0.97187   0.00000  Uiso   1.00
O1425  O     0.69378   0.78896   0.99089   0.00000  Uiso   1.00
N1426  N     0.67146   0.89505   0.52618   0.00000  Uiso   1.00
O1427  O     0.97269   0.87764   0.50929   0.00000  Uiso   1.00
O1428  O     0.67327   0.93514   0.52797   0.00000  Uiso   1.00
N1429  N     0.95824   0.96014   0.68781   0.00000  Uiso   1.00
O1430  O     0.98269   0.93147   0.66328   0.00000  Uiso   1.00
O1431  O     0.92028   0.97509   0.67760   0.00000  Uiso   1.00
N1432  N     0.70846   0.70653   0.81216   0.00000  Uiso   1.00
O1433  O     0.68400   0.73517   0.83673   0.00000  Uiso   1.00
O1434  O     0.74649   0.69162   0.82229   0.00000  Uiso   1.00
N1435  N     0.86570   0.77427   0.80215   0.00000  Uiso   1.00
O1436  O     0.86989   0.73642   0.78849   0.00000  Uiso   1.00
O1437  O     0.85980   0.78071   0.84440   0.00000  Uiso   1.00
N1438  N     0.80097   0.89239   0.69784   0.00000  Uiso   1.00
O1439  O     0.79676   0.93025   0.71152   0.00000  Uiso   1.00
O1440  O     0.80688   0.88596   0.65559   0.00000  Uiso   1.00
loop_
_geom_bond_atom_site_label_1
_geom_bond_atom_site_label_2
_geom_bond_distance
_geom_bond_site_symmetry_2
_ccdc_geom_bond_type
O1     Cu13    1.955   .     S
O1     C165    1.291   1_455 S
O2     Cu14    1.955   .     S
O2     C86     1.291   .     S
O3     Cu14    1.958   .     S
O3     C5      1.290   .     A
O4     Cu13    1.958   .     S
O4     C6      1.290   .     A
C5     C44     1.445   .     S
C5     O81     1.291   .     S
C6     C43     1.445   .     S
C6     O162    1.291   1_455 S
O7     Cu13    1.968   .     S
O7     C171    1.299   1_455 S
O8     Cu14    1.968   .     S
O8     C92     1.299   .     S
O9     Cu14    1.951   .     S
O9     C11     1.302   .     A
O10    C12     1.302   .     A
O10    Cu13    1.951   .     S
C11    C15     1.487   .     S
C11    O87     1.299   .     S
C12    C16     1.487   .     S
C12    O168    1.299   1_455 S
Cu13   N51     2.016   .     S
Cu13   Cu174   2.682   1_455 S
Cu14   N52     2.016   .     S
Cu14   Cu93    2.682   .     S
C15    C19     1.415   .     A
C15    C21     1.420   .     A
C16    C22     1.420   .     A
C16    C20     1.415   .     A
C17    C25     1.408   .     A
C17    N63     1.433   .     S
C17    C19     1.403   .     A
C18    C26     1.408   .     A
C18    N66     1.434   .     S
C18    C20     1.403   .     A
C19    N140    1.439   .     S
C20    N217    1.439   1_455 S
C21    C55     1.454   .     S
C21    C23     1.423   .     A
C22    C53     1.454   .     S
C22    C24     1.423   .     A
C23    C27     1.433   .     A
C23    C25     1.420   .     A
C24    C26     1.420   .     A
C24    C28     1.433   .     A
C25    C751    1.397   .     S
C26    C752    1.397   1_554 S
C27    C30     1.408   .     A
C27    C748    1.422   .     S
C28    C29     1.408   .     A
C28    C747    1.422   1_554 S
C29    H35     1.078   .     S
C29    C31     1.383   .     A
C30    H36     1.078   .     S
C30    C32     1.383   .     A
C31    H33     1.082   .     S
C31    C745    1.397   1_554 S
C32    H34     1.082   .     S
C32    C746    1.397   .     S
C37    C44     1.398   .     A
C37    H39     1.084   .     S
C37    C521    1.390   1_545 S
C38    H40     1.084   .     S
C38    C43     1.398   .     A
C38    C282    1.390   .     S
C41    N69     1.436   .     S
C41    C277    1.390   .     S
C41    C123    1.409   .     S
C42    N72     1.436   .     S
C42    C518    1.390   1_545 S
C42    C204    1.409   1_455 S
C43    C201    1.409   1_455 S
C44    C122    1.409   .     S
C45    C47     1.415   .     A
C45    N52     1.379   .     A
C45    N75     1.427   .     S
C46    C48     1.415   .     A
C46    N78     1.427   .     S
C46    N51     1.379   .     A
C47    H49     1.082   .     S
C47    N51     1.359   .     A
C48    H50     1.082   .     S
C48    N52     1.359   .     A
C53    N54     1.158   .     T
C55    N56     1.158   .     T
N57    O59     1.301   .     A
N57    O58     1.301   .     A
N57    C100    1.439   .     S
N60    O62     1.301   .     A
N60    O61     1.301   .     A
N60    C179    1.439   1_455 S
N63    O64     1.301   .     A
N63    O145    1.300   .     S
O65    N223    1.300   1_455 S
N66    O68     1.301   .     A
N66    O227    1.300   1_455 S
O67    N146    1.300   .     S
N69    O71     1.302   .     A
N69    O70     1.301   .     A
N72    O74     1.302   .     A
N72    O73     1.301   .     A
N75    O76     1.301   .     A
N75    O77     1.300   .     A
N78    O80     1.300   .     A
N78    O79     1.301   .     A
O81    Cu93    1.955   .     S
O82    Cu94    1.955   .     S
O82    C166    1.291   .     S
O83    Cu94    1.958   .     S
O83    C85     1.290   .     A
O84    Cu93    1.958   .     S
O84    C86     1.290   .     A
C85    C124    1.445   .     S
C85    O161    1.291   .     S
C86    C123    1.445   .     S
O87    Cu93    1.968   .     S
O88    Cu94    1.968   .     S
O88    C172    1.299   .     S
O89    Cu94    1.951   .     S
O89    C91     1.302   .     A
O90    C92     1.302   .     A
O90    Cu93    1.951   .     S
C91    C95     1.487   .     S
C91    O167    1.299   .     S
C92    C96     1.487   .     S
Cu93   N131    2.016   .     S
Cu94   N132    2.016   .     S
Cu94   Cu173   2.682   .     S
C95    C99     1.415   .     A
C95    C101    1.420   .     A
C96    C102    1.420   .     A
C96    C100    1.415   .     A
C97    C105    1.408   .     A
C97    N143    1.433   .     S
C97    C99     1.403   .     A
C98    C106    1.408   .     A
C98    N146    1.434   .     S
C98    C100    1.403   .     A
C99    N220    1.439   .     S
C101   C135    1.454   .     S
C101   C103    1.423   .     A
C102   C133    1.454   .     S
C102   C104    1.423   .     A
C103   C107    1.433   .     A
C103   C105    1.420   .     A
C104   C106    1.420   .     A
C104   C108    1.433   .     A
C105   C831    1.397   .     S
C106   C832    1.397   1_554 S
C107   C110    1.408   .     A
C107   C828    1.422   .     S
C108   C109    1.408   .     A
C108   C827    1.422   1_554 S
C109   H115    1.078   .     S
C109   C111    1.383   .     A
C110   H116    1.078   .     S
C110   C112    1.383   .     A
C111   H113    1.082   .     S
C111   C825    1.397   1_554 S
C112   H114    1.082   .     S
C112   C826    1.397   .     S
C117   C124    1.398   .     A
C117   H119    1.084   .     S
C117   C601    1.390   1_545 S
C118   H120    1.084   .     S
C118   C123    1.398   .     A
C118   C362    1.390   .     S
C121   N149    1.436   .     S
C121   C357    1.390   .     S
C121   C203    1.409   .     S
C122   N152    1.436   .     S
C122   C598    1.390   1_545 S
C124   C202    1.409   .     S
C125   C127    1.415   .     A
C125   N132    1.379   .     A
C125   N155    1.427   .     S
C126   C128    1.415   .     A
C126   N158    1.427   .     S
C126   N131    1.379   .     A
C127   H129    1.082   .     S
C127   N131    1.359   .     A
C128   H130    1.082   .     S
C128   N132    1.359   .     A
C133   N134    1.158   .     T
C135   N136    1.158   .     T
N137   O139    1.301   .     A
N137   O138    1.301   .     A
N137   C180    1.439   .     S
N140   O142    1.301   .     A
N140   O141    1.301   .     A
N143   O144    1.301   .     A
N143   O225    1.300   .     S
N146   O148    1.301   .     A
O147   N226    1.300   .     S
N149   O151    1.302   .     A
N149   O150    1.301   .     A
N152   O154    1.302   .     A
N152   O153    1.301   .     A
N155   O156    1.301   .     A
N155   O157    1.300   .     A
N158   O160    1.300   .     A
N158   O159    1.301   .     A
O161   Cu173   1.955   .     S
O162   Cu174   1.955   .     S
O162   C6      1.291   1_655 S
O163   Cu174   1.958   .     S
O163   C165    1.290   .     A
O164   Cu173   1.958   .     S
O164   C166    1.290   .     A
C165   C204    1.445   .     S
C165   O1      1.291   1_655 S
C166   C203    1.445   .     S
O167   Cu173   1.968   .     S
O168   Cu174   1.968   .     S
O168   C12     1.299   1_655 S
O169   Cu174   1.951   .     S
O169   C171    1.302   .     A
O170   C172    1.302   .     A
O170   Cu173   1.951   .     S
C171   C175    1.487   .     S
C171   O7      1.299   1_655 S
C172   C176    1.487   .     S
Cu173  N211    2.016   .     S
Cu174  N212    2.016   .     S
Cu174  Cu13    2.682   1_655 S
C175   C179    1.415   .     A
C175   C181    1.420   .     A
C176   C182    1.420   .     A
C176   C180    1.415   .     A
C177   C185    1.408   .     A
C177   N223    1.433   .     S
C177   C179    1.403   .     A
C178   C186    1.408   .     A
C178   N226    1.434   .     S
C178   C180    1.403   .     A
C179   N60     1.439   1_655 S
C181   C215    1.454   .     S
C181   C183    1.423   .     A
C182   C213    1.454   .     S
C182   C184    1.423   .     A
C183   C187    1.433   .     A
C183   C185    1.420   .     A
C184   C186    1.420   .     A
C184   C188    1.433   .     A
C185   C911    1.397   .     S
C186   C912    1.397   1_554 S
C187   C190    1.408   .     A
C187   C908    1.422   .     S
C188   C189    1.408   .     A
C188   C907    1.422   1_554 S
C189   H195    1.078   .     S
C189   C191    1.383   .     A
C190   H196    1.078   .     S
C190   C192    1.383   .     A
C191   H193    1.082   .     S
C191   C905    1.397   1_554 S
C192   H194    1.082   .     S
C192   C906    1.397   .     S
C197   C204    1.398   .     A
C197   H199    1.084   .     S
C197   C681    1.390   1_545 S
C198   H200    1.084   .     S
C198   C203    1.398   .     A
C198   C442    1.390   .     S
C201   N229    1.436   .     S
C201   C437    1.390   .     S
C201   C43     1.409   1_655 S
C202   N232    1.436   .     S
C202   C678    1.390   1_545 S
C204   C42     1.409   1_655 S
C205   C207    1.415   .     A
C205   N212    1.379   .     A
C205   N235    1.427   .     S
C206   C208    1.415   .     A
C206   N238    1.427   .     S
C206   N211    1.379   .     A
C207   H209    1.082   .     S
C207   N211    1.359   .     A
C208   H210    1.082   .     S
C208   N212    1.359   .     A
C213   N214    1.158   .     T
C215   N216    1.158   .     T
N217   O219    1.301   .     A
N217   O218    1.301   .     A
N217   C20     1.439   1_655 S
N220   O222    1.301   .     A
N220   O221    1.301   .     A
N223   O224    1.301   .     A
N223   O65     1.300   1_655 S
N226   O228    1.301   .     A
O227   N66     1.300   1_655 S
N229   O231    1.302   .     A
N229   O230    1.301   .     A
N232   O234    1.302   .     A
N232   O233    1.301   .     A
N235   O236    1.301   .     A
N235   O237    1.300   .     A
N238   O240    1.300   .     A
N238   O239    1.301   .     A
O241   Cu253   1.955   .     S
O241   C405    1.291   1_455 S
O242   Cu254   1.955   .     S
O242   C326    1.291   .     S
O243   Cu254   1.958   .     S
O243   C245    1.290   .     A
O244   Cu253   1.958   .     S
O244   C246    1.290   .     A
C245   C284    1.445   .     S
C245   O321    1.291   .     S
C246   C283    1.445   .     S
C246   O402    1.291   1_455 S
O247   Cu253   1.968   .     S
O247   C411    1.299   1_455 S
O248   Cu254   1.968   .     S
O248   C332    1.299   .     S
O249   Cu254   1.951   .     S
O249   C251    1.302   .     A
O250   C252    1.302   .     A
O250   Cu253   1.951   .     S
C251   C255    1.487   .     S
C251   O327    1.299   .     S
C252   C256    1.487   .     S
C252   O408    1.299   1_455 S
Cu253  N291    2.016   .     S
Cu253  Cu414   2.682   1_455 S
Cu254  N292    2.016   .     S
Cu254  Cu333   2.682   .     S
C255   C259    1.415   .     A
C255   C261    1.420   .     A
C256   C262    1.420   .     A
C256   C260    1.415   .     A
C257   C265    1.408   .     A
C257   N303    1.433   .     S
C257   C259    1.403   .     A
C258   C266    1.408   .     A
C258   N306    1.434   .     S
C258   C260    1.403   .     A
C259   N380    1.439   .     S
C260   N457    1.439   1_455 S
C261   C295    1.454   .     S
C261   C263    1.423   .     A
C262   C293    1.454   .     S
C262   C264    1.423   .     A
C263   C267    1.433   .     A
C263   C265    1.420   .     A
C264   C266    1.420   .     A
C264   C268    1.433   .     A
C265   C991    1.397   .     S
C266   C992    1.397   1_554 S
C267   C270    1.408   .     A
C267   C988    1.422   .     S
C268   C269    1.408   .     A
C268   C987    1.422   1_554 S
C269   H275    1.078   .     S
C269   C271    1.383   .     A
C270   H276    1.078   .     S
C270   C272    1.383   .     A
C271   H273    1.082   .     S
C271   C985    1.397   1_554 S
C272   H274    1.082   .     S
C272   C986    1.397   .     S
C277   C284    1.398   .     A
C277   H279    1.084   .     S
C278   H280    1.084   .     S
C278   C283    1.398   .     A
C278   C522    1.390   .     S
C281   N309    1.436   .     S
C281   C517    1.390   .     S
C281   C363    1.409   .     S
C282   N312    1.436   .     S
C282   C444    1.409   1_455 S
C283   C441    1.409   1_455 S
C284   C362    1.409   .     S
C285   C287    1.415   .     A
C285   N292    1.379   .     A
C285   N315    1.427   .     S
C286   C288    1.415   .     A
C286   N318    1.427   .     S
C286   N291    1.379   .     A
C287   H289    1.082   .     S
C287   N291    1.359   .     A
C288   H290    1.082   .     S
C288   N292    1.359   .     A
C293   N294    1.158   .     T
C295   N296    1.158   .     T
N297   O299    1.301   .     A
N297   O298    1.301   .     A
N297   C340    1.439   .     S
N300   O302    1.301   .     A
N300   O301    1.301   .     A
N300   C419    1.439   1_455 S
N303   O304    1.301   .     A
N303   O385    1.300   .     S
O305   N463    1.300   1_455 S
N306   O308    1.301   .     A
N306   O467    1.300   1_455 S
O307   N386    1.300   .     S
N309   O311    1.302   .     A
N309   O310    1.301   .     A
N312   O314    1.302   .     A
N312   O313    1.301   .     A
N315   O316    1.301   .     A
N315   O317    1.300   .     A
N318   O320    1.300   .     A
N318   O319    1.301   .     A
O321   Cu333   1.955   .     S
O322   Cu334   1.955   .     S
O322   C406    1.291   .     S
O323   Cu334   1.958   .     S
O323   C325    1.290   .     A
O324   Cu333   1.958   .     S
O324   C326    1.290   .     A
C325   C364    1.445   .     S
C325   O401    1.291   .     S
C326   C363    1.445   .     S
O327   Cu333   1.968   .     S
O328   Cu334   1.968   .     S
O328   C412    1.299   .     S
O329   Cu334   1.951   .     S
O329   C331    1.302   .     A
O330   C332    1.302   .     A
O330   Cu333   1.951   .     S
C331   C335    1.487   .     S
C331   O407    1.299   .     S
C332   C336    1.487   .     S
Cu333  N371    2.016   .     S
Cu334  N372    2.016   .     S
Cu334  Cu413   2.682   .     S
C335   C339    1.415   .     A
C335   C341    1.420   .     A
C336   C342    1.420   .     A
C336   C340    1.415   .     A
C337   C345    1.408   .     A
C337   N383    1.433   .     S
C337   C339    1.403   .     A
C338   C346    1.408   .     A
C338   N386    1.434   .     S
C338   C340    1.403   .     A
C339   N460    1.439   .     S
C341   C375    1.454   .     S
C341   C343    1.423   .     A
C342   C373    1.454   .     S
C342   C344    1.423   .     A
C343   C347    1.433   .     A
C343   C345    1.420   .     A
C344   C346    1.420   .     A
C344   C348    1.433   .     A
C345   C1071   1.397   .     S
C346   C1072   1.397   1_554 S
C347   C350    1.408   .     A
C347   C1068   1.422   .     S
C348   C349    1.408   .     A
C348   C1067   1.422   1_554 S
C349   H355    1.078   .     S
C349   C351    1.383   .     A
C350   H356    1.078   .     S
C350   C352    1.383   .     A
C351   H353    1.082   .     S
C351   C1065   1.397   1_554 S
C352   H354    1.082   .     S
C352   C1066   1.397   .     S
C357   C364    1.398   .     A
C357   H359    1.084   .     S
C358   H360    1.084   .     S
C358   C363    1.398   .     A
C358   C602    1.390   .     S
C361   N389    1.436   .     S
C361   C597    1.390   .     S
C361   C443    1.409   .     S
C362   N392    1.436   .     S
C364   C442    1.409   .     S
C365   C367    1.415   .     A
C365   N372    1.379   .     A
C365   N395    1.427   .     S
C366   C368    1.415   .     A
C366   N398    1.427   .     S
C366   N371    1.379   .     A
C367   H369    1.082   .     S
C367   N371    1.359   .     A
C368   H370    1.082   .     S
C368   N372    1.359   .     A
C373   N374    1.158   .     T
C375   N376    1.158   .     T
N377   O379    1.301   .     A
N377   O378    1.301   .     A
N377   C420    1.439   .     S
N380   O382    1.301   .     A
N380   O381    1.301   .     A
N383   O384    1.301   .     A
N383   O465    1.300   .     S
N386   O388    1.301   .     A
O387   N466    1.300   .     S
N389   O391    1.302   .     A
N389   O390    1.301   .     A
N392   O394    1.302   .     A
N392   O393    1.301   .     A
N395   O396    1.301   .     A
N395   O397    1.300   .     A
N398   O400    1.300   .     A
N398   O399    1.301   .     A
O401   Cu413   1.955   .     S
O402   Cu414   1.955   .     S
O402   C246    1.291   1_655 S
O403   Cu414   1.958   .     S
O403   C405    1.290   .     A
O404   Cu413   1.958   .     S
O404   C406    1.290   .     A
C405   C444    1.445   .     S
C405   O241    1.291   1_655 S
C406   C443    1.445   .     S
O407   Cu413   1.968   .     S
O408   Cu414   1.968   .     S
O408   C252    1.299   1_655 S
O409   Cu414   1.951   .     S
O409   C411    1.302   .     A
O410   C412    1.302   .     A
O410   Cu413   1.951   .     S
C411   C415    1.487   .     S
C411   O247    1.299   1_655 S
C412   C416    1.487   .     S
Cu413  N451    2.016   .     S
Cu414  N452    2.016   .     S
Cu414  Cu253   2.682   1_655 S
C415   C419    1.415   .     A
C415   C421    1.420   .     A
C416   C422    1.420   .     A
C416   C420    1.415   .     A
C417   C425    1.408   .     A
C417   N463    1.433   .     S
C417   C419    1.403   .     A
C418   C426    1.408   .     A
C418   N466    1.434   .     S
C418   C420    1.403   .     A
C419   N300    1.439   1_655 S
C421   C455    1.454   .     S
C421   C423    1.423   .     A
C422   C453    1.454   .     S
C422   C424    1.423   .     A
C423   C427    1.433   .     A
C423   C425    1.420   .     A
C424   C426    1.420   .     A
C424   C428    1.433   .     A
C425   C1151   1.397   .     S
C426   C1152   1.397   1_554 S
C427   C430    1.408   .     A
C427   C1148   1.422   .     S
C428   C429    1.408   .     A
C428   C1147   1.422   1_554 S
C429   H435    1.078   .     S
C429   C431    1.383   .     A
C430   H436    1.078   .     S
C430   C432    1.383   .     A
C431   H433    1.082   .     S
C431   C1145   1.397   1_554 S
C432   H434    1.082   .     S
C432   C1146   1.397   .     S
C437   C444    1.398   .     A
C437   H439    1.084   .     S
C438   H440    1.084   .     S
C438   C443    1.398   .     A
C438   C682    1.390   .     S
C441   N469    1.436   .     S
C441   C677    1.390   .     S
C441   C283    1.409   1_655 S
C442   N472    1.436   .     S
C444   C282    1.409   1_655 S
C445   C447    1.415   .     A
C445   N452    1.379   .     A
C445   N475    1.427   .     S
C446   C448    1.415   .     A
C446   N478    1.427   .     S
C446   N451    1.379   .     A
C447   H449    1.082   .     S
C447   N451    1.359   .     A
C448   H450    1.082   .     S
C448   N452    1.359   .     A
C453   N454    1.158   .     T
C455   N456    1.158   .     T
N457   O459    1.301   .     A
N457   O458    1.301   .     A
N457   C260    1.439   1_655 S
N460   O462    1.301   .     A
N460   O461    1.301   .     A
N463   O464    1.301   .     A
N463   O305    1.300   1_655 S
N466   O468    1.301   .     A
O467   N306    1.300   1_655 S
N469   O471    1.302   .     A
N469   O470    1.301   .     A
N472   O474    1.302   .     A
N472   O473    1.301   .     A
N475   O476    1.301   .     A
N475   O477    1.300   .     A
N478   O480    1.300   .     A
N478   O479    1.301   .     A
O481   Cu493   1.955   .     S
O481   C645    1.291   1_455 S
O482   Cu494   1.955   .     S
O482   C566    1.291   .     S
O483   Cu494   1.958   .     S
O483   C485    1.290   .     A
O484   Cu493   1.958   .     S
O484   C486    1.290   .     A
C485   C524    1.445   .     S
C485   O561    1.291   .     S
C486   C523    1.445   .     S
C486   O642    1.291   1_455 S
O487   Cu493   1.968   .     S
O487   C651    1.299   1_455 S
O488   Cu494   1.968   .     S
O488   C572    1.299   .     S
O489   Cu494   1.951   .     S
O489   C491    1.302   .     A
O490   C492    1.302   .     A
O490   Cu493   1.951   .     S
C491   C495    1.487   .     S
C491   O567    1.299   .     S
C492   C496    1.487   .     S
C492   O648    1.299   1_455 S
Cu493  N531    2.016   .     S
Cu493  Cu654   2.682   1_455 S
Cu494  N532    2.016   .     S
Cu494  Cu573   2.682   .     S
C495   C499    1.415   .     A
C495   C501    1.420   .     A
C496   C502    1.420   .     A
C496   C500    1.415   .     A
C497   C505    1.408   .     A
C497   N543    1.433   .     S
C497   C499    1.403   .     A
C498   C506    1.408   .     A
C498   N546    1.434   .     S
C498   C500    1.403   .     A
C499   N620    1.439   .     S
C500   N697    1.439   1_455 S
C501   C535    1.454   .     S
C501   C503    1.423   .     A
C502   C533    1.454   .     S
C502   C504    1.423   .     A
C503   C507    1.433   .     A
C503   C505    1.420   .     A
C504   C506    1.420   .     A
C504   C508    1.433   .     A
C505   C1231   1.397   .     S
C506   C1232   1.397   1_554 S
C507   C510    1.408   .     A
C507   C1228   1.422   .     S
C508   C509    1.408   .     A
C508   C1227   1.422   1_554 S
C509   H515    1.078   .     S
C509   C511    1.383   .     A
C510   H516    1.078   .     S
C510   C512    1.383   .     A
C511   H513    1.082   .     S
C511   C1225   1.397   1_554 S
C512   H514    1.082   .     S
C512   C1226   1.397   .     S
C517   C524    1.398   .     A
C517   H519    1.084   .     S
C518   H520    1.084   .     S
C518   C523    1.398   .     A
C518   C42     1.390   1_565 S
C521   N549    1.436   .     S
C521   C37     1.390   1_565 S
C521   C603    1.409   .     S
C522   N552    1.436   .     S
C522   C684    1.409   1_455 S
C523   C681    1.409   1_455 S
C524   C602    1.409   .     S
C525   C527    1.415   .     A
C525   N532    1.379   .     A
C525   N555    1.427   .     S
C526   C528    1.415   .     A
C526   N558    1.427   .     S
C526   N531    1.379   .     A
C527   H529    1.082   .     S
C527   N531    1.359   .     A
C528   H530    1.082   .     S
C528   N532    1.359   .     A
C533   N534    1.158   .     T
C535   N536    1.158   .     T
N537   O539    1.301   .     A
N537   O538    1.301   .     A
N537   C580    1.439   .     S
N540   O542    1.301   .     A
N540   O541    1.301   .     A
N540   C659    1.439   1_455 S
N543   O544    1.301   .     A
N543   O625    1.300   .     S
O545   N703    1.300   1_455 S
N546   O548    1.301   .     A
N546   O707    1.300   1_455 S
O547   N626    1.300   .     S
N549   O551    1.302   .     A
N549   O550    1.301   .     A
N552   O554    1.302   .     A
N552   O553    1.301   .     A
N555   O556    1.301   .     A
N555   O557    1.300   .     A
N558   O560    1.300   .     A
N558   O559    1.301   .     A
O561   Cu573   1.955   .     S
O562   Cu574   1.955   .     S
O562   C646    1.291   .     S
O563   Cu574   1.958   .     S
O563   C565    1.290   .     A
O564   Cu573   1.958   .     S
O564   C566    1.290   .     A
C565   C604    1.445   .     S
C565   O641    1.291   .     S
C566   C603    1.445   .     S
O567   Cu573   1.968   .     S
O568   Cu574   1.968   .     S
O568   C652    1.299   .     S
O569   Cu574   1.951   .     S
O569   C571    1.302   .     A
O570   C572    1.302   .     A
O570   Cu573   1.951   .     S
C571   C575    1.487   .     S
C571   O647    1.299   .     S
C572   C576    1.487   .     S
Cu573  N611    2.016   .     S
Cu574  N612    2.016   .     S
Cu574  Cu653   2.682   .     S
C575   C579    1.415   .     A
C575   C581    1.420   .     A
C576   C582    1.420   .     A
C576   C580    1.415   .     A
C577   C585    1.408   .     A
C577   N623    1.433   .     S
C577   C579    1.403   .     A
C578   C586    1.408   .     A
C578   N626    1.434   .     S
C578   C580    1.403   .     A
C579   N700    1.439   .     S
C581   C615    1.454   .     S
C581   C583    1.423   .     A
C582   C613    1.454   .     S
C582   C584    1.423   .     A
C583   C587    1.433   .     A
C583   C585    1.420   .     A
C584   C586    1.420   .     A
C584   C588    1.433   .     A
C585   C1311   1.397   .     S
C586   C1312   1.397   1_554 S
C587   C590    1.408   .     A
C587   C1308   1.422   .     S
C588   C589    1.408   .     A
C588   C1307   1.422   1_554 S
C589   H595    1.078   .     S
C589   C591    1.383   .     A
C590   H596    1.078   .     S
C590   C592    1.383   .     A
C591   H593    1.082   .     S
C591   C1305   1.397   1_554 S
C592   H594    1.082   .     S
C592   C1306   1.397   .     S
C597   C604    1.398   .     A
C597   H599    1.084   .     S
C598   H600    1.084   .     S
C598   C603    1.398   .     A
C598   C122    1.390   1_565 S
C601   N629    1.436   .     S
C601   C117    1.390   1_565 S
C601   C683    1.409   .     S
C602   N632    1.436   .     S
C604   C682    1.409   .     S
C605   C607    1.415   .     A
C605   N612    1.379   .     A
C605   N635    1.427   .     S
C606   C608    1.415   .     A
C606   N638    1.427   .     S
C606   N611    1.379   .     A
C607   H609    1.082   .     S
C607   N611    1.359   .     A
C608   H610    1.082   .     S
C608   N612    1.359   .     A
C613   N614    1.158   .     T
C615   N616    1.158   .     T
N617   O619    1.301   .     A
N617   O618    1.301   .     A
N617   C660    1.439   .     S
N620   O622    1.301   .     A
N620   O621    1.301   .     A
N623   O624    1.301   .     A
N623   O705    1.300   .     S
N626   O628    1.301   .     A
O627   N706    1.300   .     S
N629   O631    1.302   .     A
N629   O630    1.301   .     A
N632   O634    1.302   .     A
N632   O633    1.301   .     A
N635   O636    1.301   .     A
N635   O637    1.300   .     A
N638   O640    1.300   .     A
N638   O639    1.301   .     A
O641   Cu653   1.955   .     S
O642   Cu654   1.955   .     S
O642   C486    1.291   1_655 S
O643   Cu654   1.958   .     S
O643   C645    1.290   .     A
O644   Cu653   1.958   .     S
O644   C646    1.290   .     A
C645   C684    1.445   .     S
C645   O481    1.291   1_655 S
C646   C683    1.445   .     S
O647   Cu653   1.968   .     S
O648   Cu654   1.968   .     S
O648   C492    1.299   1_655 S
O649   Cu654   1.951   .     S
O649   C651    1.302   .     A
O650   C652    1.302   .     A
O650   Cu653   1.951   .     S
C651   C655    1.487   .     S
C651   O487    1.299   1_655 S
C652   C656    1.487   .     S
Cu653  N691    2.016   .     S
Cu654  N692    2.016   .     S
Cu654  Cu493   2.682   1_655 S
C655   C659    1.415   .     A
C655   C661    1.420   .     A
C656   C662    1.420   .     A
C656   C660    1.415   .     A
C657   C665    1.408   .     A
C657   N703    1.433   .     S
C657   C659    1.403   .     A
C658   C666    1.408   .     A
C658   N706    1.434   .     S
C658   C660    1.403   .     A
C659   N540    1.439   1_655 S
C661   C695    1.454   .     S
C661   C663    1.423   .     A
C662   C693    1.454   .     S
C662   C664    1.423   .     A
C663   C667    1.433   .     A
C663   C665    1.420   .     A
C664   C666    1.420   .     A
C664   C668    1.433   .     A
C665   C1391   1.397   .     S
C666   C1392   1.397   1_554 S
C667   C670    1.408   .     A
C667   C1388   1.422   .     S
C668   C669    1.408   .     A
C668   C1387   1.422   1_554 S
C669   H675    1.078   .     S
C669   C671    1.383   .     A
C670   H676    1.078   .     S
C670   C672    1.383   .     A
C671   H673    1.082   .     S
C671   C1385   1.397   1_554 S
C672   H674    1.082   .     S
C672   C1386   1.397   .     S
C677   C684    1.398   .     A
C677   H679    1.084   .     S
C678   H680    1.084   .     S
C678   C683    1.398   .     A
C678   C202    1.390   1_565 S
C681   N709    1.436   .     S
C681   C197    1.390   1_565 S
C681   C523    1.409   1_655 S
C682   N712    1.436   .     S
C684   C522    1.409   1_655 S
C685   C687    1.415   .     A
C685   N692    1.379   .     A
C685   N715    1.427   .     S
C686   C688    1.415   .     A
C686   N718    1.427   .     S
C686   N691    1.379   .     A
C687   H689    1.082   .     S
C687   N691    1.359   .     A
C688   H690    1.082   .     S
C688   N692    1.359   .     A
C693   N694    1.158   .     T
C695   N696    1.158   .     T
N697   O699    1.301   .     A
N697   O698    1.301   .     A
N697   C500    1.439   1_655 S
N700   O702    1.301   .     A
N700   O701    1.301   .     A
N703   O704    1.301   .     A
N703   O545    1.300   1_655 S
N706   O708    1.301   .     A
O707   N546    1.300   1_655 S
N709   O711    1.302   .     A
N709   O710    1.301   .     A
N712   O714    1.302   .     A
N712   O713    1.301   .     A
N715   O716    1.301   .     A
N715   O717    1.300   .     A
N718   O720    1.300   .     A
N718   O719    1.301   .     A
O721   Cu733   1.955   .     S
O721   C885    1.291   1_455 S
O722   Cu734   1.955   .     S
O722   C806    1.291   .     S
O723   Cu734   1.958   .     S
O723   C725    1.290   .     A
O724   Cu733   1.958   .     S
O724   C726    1.290   .     A
C725   C764    1.445   .     S
C725   O801    1.291   .     S
C726   C763    1.445   .     S
C726   O882    1.291   1_455 S
O727   Cu733   1.968   .     S
O727   C891    1.299   1_455 S
O728   Cu734   1.968   .     S
O728   C812    1.299   .     S
O729   Cu734   1.951   .     S
O729   C731    1.302   .     A
O730   C732    1.302   .     A
O730   Cu733   1.951   .     S
C731   C735    1.487   .     S
C731   O807    1.299   .     S
C732   C736    1.487   .     S
C732   O888    1.299   1_455 S
Cu733  N771    2.016   .     S
Cu733  Cu894   2.682   1_455 S
Cu734  N772    2.016   .     S
Cu734  Cu813   2.682   .     S
C735   C739    1.415   .     A
C735   C741    1.420   .     A
C736   C742    1.420   .     A
C736   C740    1.415   .     A
C737   C745    1.408   .     A
C737   N783    1.433   .     S
C737   C739    1.403   .     A
C738   C746    1.408   .     A
C738   N786    1.434   .     S
C738   C740    1.403   .     A
C739   N860    1.439   .     S
C740   N937    1.439   1_455 S
C741   C775    1.454   .     S
C741   C743    1.423   .     A
C742   C773    1.454   .     S
C742   C744    1.423   .     A
C743   C747    1.433   .     A
C743   C745    1.420   .     A
C744   C746    1.420   .     A
C744   C748    1.433   .     A
C745   C31     1.397   1_556 S
C747   C750    1.408   .     A
C747   C28     1.422   1_556 S
C748   C749    1.408   .     A
C749   H755    1.078   .     S
C749   C751    1.383   .     A
C750   H756    1.078   .     S
C750   C752    1.383   .     A
C751   H753    1.082   .     S
C752   H754    1.082   .     S
C752   C26     1.397   1_556 S
C757   C764    1.398   .     A
C757   H759    1.084   .     S
C757   C1241   1.390   1_545 S
C758   H760    1.084   .     S
C758   C763    1.398   .     A
C758   C1002   1.390   .     S
C761   N789    1.436   .     S
C761   C997    1.390   .     S
C761   C843    1.409   .     S
C762   N792    1.436   .     S
C762   C1238   1.390   1_545 S
C762   C924    1.409   1_455 S
C763   C921    1.409   1_455 S
C764   C842    1.409   .     S
C765   C767    1.415   .     A
C765   N772    1.379   .     A
C765   N795    1.427   .     S
C766   C768    1.415   .     A
C766   N798    1.427   .     S
C766   N771    1.379   .     A
C767   H769    1.082   .     S
C767   N771    1.359   .     A
C768   H770    1.082   .     S
C768   N772    1.359   .     A
C773   N774    1.158   .     T
C775   N776    1.158   .     T
N777   O779    1.301   .     A
N777   O778    1.301   .     A
N777   C820    1.439   .     S
N780   O782    1.301   .     A
N780   O781    1.301   .     A
N780   C899    1.439   1_455 S
N783   O784    1.301   .     A
N783   O865    1.300   .     S
O785   N943    1.300   1_455 S
N786   O788    1.301   .     A
N786   O947    1.300   1_455 S
O787   N866    1.300   .     S
N789   O791    1.302   .     A
N789   O790    1.301   .     A
N792   O794    1.302   .     A
N792   O793    1.301   .     A
N795   O796    1.301   .     A
N795   O797    1.300   .     A
N798   O800    1.300   .     A
N798   O799    1.301   .     A
O801   Cu813   1.955   .     S
O802   Cu814   1.955   .     S
O802   C886    1.291   .     S
O803   Cu814   1.958   .     S
O803   C805    1.290   .     A
O804   Cu813   1.958   .     S
O804   C806    1.290   .     A
C805   C844    1.445   .     S
C805   O881    1.291   .     S
C806   C843    1.445   .     S
O807   Cu813   1.968   .     S
O808   Cu814   1.968   .     S
O808   C892    1.299   .     S
O809   Cu814   1.951   .     S
O809   C811    1.302   .     A
O810   C812    1.302   .     A
O810   Cu813   1.951   .     S
C811   C815    1.487   .     S
C811   O887    1.299   .     S
C812   C816    1.487   .     S
Cu813  N851    2.016   .     S
Cu814  N852    2.016   .     S
Cu814  Cu893   2.682   .     S
C815   C819    1.415   .     A
C815   C821    1.420   .     A
C816   C822    1.420   .     A
C816   C820    1.415   .     A
C817   C825    1.408   .     A
C817   N863    1.433   .     S
C817   C819    1.403   .     A
C818   C826    1.408   .     A
C818   N866    1.434   .     S
C818   C820    1.403   .     A
C819   N940    1.439   .     S
C821   C855    1.454   .     S
C821   C823    1.423   .     A
C822   C853    1.454   .     S
C822   C824    1.423   .     A
C823   C827    1.433   .     A
C823   C825    1.420   .     A
C824   C826    1.420   .     A
C824   C828    1.433   .     A
C825   C111    1.397   1_556 S
C827   C830    1.408   .     A
C827   C108    1.422   1_556 S
C828   C829    1.408   .     A
C829   H835    1.078   .     S
C829   C831    1.383   .     A
C830   H836    1.078   .     S
C830   C832    1.383   .     A
C831   H833    1.082   .     S
C832   H834    1.082   .     S
C832   C106    1.397   1_556 S
C837   C844    1.398   .     A
C837   H839    1.084   .     S
C837   C1321   1.390   1_545 S
C838   H840    1.084   .     S
C838   C843    1.398   .     A
C838   C1082   1.390   .     S
C841   N869    1.436   .     S
C841   C1077   1.390   .     S
C841   C923    1.409   .     S
C842   N872    1.436   .     S
C842   C1318   1.390   1_545 S
C844   C922    1.409   .     S
C845   C847    1.415   .     A
C845   N852    1.379   .     A
C845   N875    1.427   .     S
C846   C848    1.415   .     A
C846   N878    1.427   .     S
C846   N851    1.379   .     A
C847   H849    1.082   .     S
C847   N851    1.359   .     A
C848   H850    1.082   .     S
C848   N852    1.359   .     A
C853   N854    1.158   .     T
C855   N856    1.158   .     T
N857   O859    1.301   .     A
N857   O858    1.301   .     A
N857   C900    1.439   .     S
N860   O862    1.301   .     A
N860   O861    1.301   .     A
N863   O864    1.301   .     A
N863   O945    1.300   .     S
N866   O868    1.301   .     A
O867   N946    1.300   .     S
N869   O871    1.302   .     A
N869   O870    1.301   .     A
N872   O874    1.302   .     A
N872   O873    1.301   .     A
N875   O876    1.301   .     A
N875   O877    1.300   .     A
N878   O880    1.300   .     A
N878   O879    1.301   .     A
O881   Cu893   1.955   .     S
O882   Cu894   1.955   .     S
O882   C726    1.291   1_655 S
O883   Cu894   1.958   .     S
O883   C885    1.290   .     A
O884   Cu893   1.958   .     S
O884   C886    1.290   .     A
C885   C924    1.445   .     S
C885   O721    1.291   1_655 S
C886   C923    1.445   .     S
O887   Cu893   1.968   .     S
O888   Cu894   1.968   .     S
O888   C732    1.299   1_655 S
O889   Cu894   1.951   .     S
O889   C891    1.302   .     A
O890   C892    1.302   .     A
O890   Cu893   1.951   .     S
C891   C895    1.487   .     S
C891   O727    1.299   1_655 S
C892   C896    1.487   .     S
Cu893  N931    2.016   .     S
Cu894  N932    2.016   .     S
Cu894  Cu733   2.682   1_655 S
C895   C899    1.415   .     A
C895   C901    1.420   .     A
C896   C902    1.420   .     A
C896   C900    1.415   .     A
C897   C905    1.408   .     A
C897   N943    1.433   .     S
C897   C899    1.403   .     A
C898   C906    1.408   .     A
C898   N946    1.434   .     S
C898   C900    1.403   .     A
C899   N780    1.439   1_655 S
C901   C935    1.454   .     S
C901   C903    1.423   .     A
C902   C933    1.454   .     S
C902   C904    1.423   .     A
C903   C907    1.433   .     A
C903   C905    1.420   .     A
C904   C906    1.420   .     A
C904   C908    1.433   .     A
C905   C191    1.397   1_556 S
C907   C910    1.408   .     A
C907   C188    1.422   1_556 S
C908   C909    1.408   .     A
C909   H915    1.078   .     S
C909   C911    1.383   .     A
C910   H916    1.078   .     S
C910   C912    1.383   .     A
C911   H913    1.082   .     S
C912   H914    1.082   .     S
C912   C186    1.397   1_556 S
C917   C924    1.398   .     A
C917   H919    1.084   .     S
C917   C1401   1.390   1_545 S
C918   H920    1.084   .     S
C918   C923    1.398   .     A
C918   C1162   1.390   .     S
C921   N949    1.436   .     S
C921   C1157   1.390   .     S
C921   C763    1.409   1_655 S
C922   N952    1.436   .     S
C922   C1398   1.390   1_545 S
C924   C762    1.409   1_655 S
C925   C927    1.415   .     A
C925   N932    1.379   .     A
C925   N955    1.427   .     S
C926   C928    1.415   .     A
C926   N958    1.427   .     S
C926   N931    1.379   .     A
C927   H929    1.082   .     S
C927   N931    1.359   .     A
C928   H930    1.082   .     S
C928   N932    1.359   .     A
C933   N934    1.158   .     T
C935   N936    1.158   .     T
N937   O939    1.301   .     A
N937   O938    1.301   .     A
N937   C740    1.439   1_655 S
N940   O942    1.301   .     A
N940   O941    1.301   .     A
N943   O944    1.301   .     A
N943   O785    1.300   1_655 S
N946   O948    1.301   .     A
O947   N786    1.300   1_655 S
N949   O951    1.302   .     A
N949   O950    1.301   .     A
N952   O954    1.302   .     A
N952   O953    1.301   .     A
N955   O956    1.301   .     A
N955   O957    1.300   .     A
N958   O960    1.300   .     A
N958   O959    1.301   .     A
O961   Cu973   1.955   .     S
O961   C1125   1.291   1_455 S
O962   Cu974   1.955   .     S
O962   C1046   1.291   .     S
O963   Cu974   1.958   .     S
O963   C965    1.290   .     A
O964   Cu973   1.958   .     S
O964   C966    1.290   .     A
C965   C1004   1.445   .     S
C965   O1041   1.291   .     S
C966   C1003   1.445   .     S
C966   O1122   1.291   1_455 S
O967   Cu973   1.968   .     S
O967   C1131   1.299   1_455 S
O968   Cu974   1.968   .     S
O968   C1052   1.299   .     S
O969   Cu974   1.951   .     S
O969   C971    1.302   .     A
O970   C972    1.302   .     A
O970   Cu973   1.951   .     S
C971   C975    1.487   .     S
C971   O1047   1.299   .     S
C972   C976    1.487   .     S
C972   O1128   1.299   1_455 S
Cu973  N1011   2.016   .     S
Cu973  Cu1134  2.682   1_455 S
Cu974  N1012   2.016   .     S
Cu974  Cu1053  2.682   .     S
C975   C979    1.415   .     A
C975   C981    1.420   .     A
C976   C982    1.420   .     A
C976   C980    1.415   .     A
C977   C985    1.408   .     A
C977   N1023   1.433   .     S
C977   C979    1.403   .     A
C978   C986    1.408   .     A
C978   N1026   1.434   .     S
C978   C980    1.403   .     A
C979   N1100   1.439   .     S
C980   N1177   1.439   1_455 S
C981   C1015   1.454   .     S
C981   C983    1.423   .     A
C982   C1013   1.454   .     S
C982   C984    1.423   .     A
C983   C987    1.433   .     A
C983   C985    1.420   .     A
C984   C986    1.420   .     A
C984   C988    1.433   .     A
C985   C271    1.397   1_556 S
C987   C990    1.408   .     A
C987   C268    1.422   1_556 S
C988   C989    1.408   .     A
C989   H995    1.078   .     S
C989   C991    1.383   .     A
C990   H996    1.078   .     S
C990   C992    1.383   .     A
C991   H993    1.082   .     S
C992   H994    1.082   .     S
C992   C266    1.397   1_556 S
C997   C1004   1.398   .     A
C997   H999    1.084   .     S
C998   H1000   1.084   .     S
C998   C1003   1.398   .     A
C998   C1242   1.390   .     S
C1001  N1029   1.436   .     S
C1001  C1237   1.390   .     S
C1001  C1083   1.409   .     S
C1002  N1032   1.436   .     S
C1002  C1164   1.409   1_455 S
C1003  C1161   1.409   1_455 S
C1004  C1082   1.409   .     S
C1005  C1007   1.415   .     A
C1005  N1012   1.379   .     A
C1005  N1035   1.427   .     S
C1006  C1008   1.415   .     A
C1006  N1038   1.427   .     S
C1006  N1011   1.379   .     A
C1007  H1009   1.082   .     S
C1007  N1011   1.359   .     A
C1008  H1010   1.082   .     S
C1008  N1012   1.359   .     A
C1013  N1014   1.158   .     T
C1015  N1016   1.158   .     T
N1017  O1019   1.301   .     A
N1017  O1018   1.301   .     A
N1017  C1060   1.439   .     S
N1020  O1022   1.301   .     A
N1020  O1021   1.301   .     A
N1020  C1139   1.439   1_455 S
N1023  O1024   1.301   .     A
N1023  O1105   1.300   .     S
O1025  N1183   1.300   1_455 S
N1026  O1028   1.301   .     A
N1026  O1187   1.300   1_455 S
O1027  N1106   1.300   .     S
N1029  O1031   1.302   .     A
N1029  O1030   1.301   .     A
N1032  O1034   1.302   .     A
N1032  O1033   1.301   .     A
N1035  O1036   1.301   .     A
N1035  O1037   1.300   .     A
N1038  O1040   1.300   .     A
N1038  O1039   1.301   .     A
O1041  Cu1053  1.955   .     S
O1042  Cu1054  1.955   .     S
O1042  C1126   1.291   .     S
O1043  Cu1054  1.958   .     S
O1043  C1045   1.290   .     A
O1044  Cu1053  1.958   .     S
O1044  C1046   1.290   .     A
C1045  C1084   1.445   .     S
C1045  O1121   1.291   .     S
C1046  C1083   1.445   .     S
O1047  Cu1053  1.968   .     S
O1048  Cu1054  1.968   .     S
O1048  C1132   1.299   .     S
O1049  Cu1054  1.951   .     S
O1049  C1051   1.302   .     A
O1050  C1052   1.302   .     A
O1050  Cu1053  1.951   .     S
C1051  C1055   1.487   .     S
C1051  O1127   1.299   .     S
C1052  C1056   1.487   .     S
Cu1053 N1091   2.016   .     S
Cu1054 N1092   2.016   .     S
Cu1054 Cu1133  2.682   .     S
C1055  C1059   1.415   .     A
C1055  C1061   1.420   .     A
C1056  C1062   1.420   .     A
C1056  C1060   1.415   .     A
C1057  C1065   1.408   .     A
C1057  N1103   1.433   .     S
C1057  C1059   1.403   .     A
C1058  C1066   1.408   .     A
C1058  N1106   1.434   .     S
C1058  C1060   1.403   .     A
C1059  N1180   1.439   .     S
C1061  C1095   1.454   .     S
C1061  C1063   1.423   .     A
C1062  C1093   1.454   .     S
C1062  C1064   1.423   .     A
C1063  C1067   1.433   .     A
C1063  C1065   1.420   .     A
C1064  C1066   1.420   .     A
C1064  C1068   1.433   .     A
C1065  C351    1.397   1_556 S
C1067  C1070   1.408   .     A
C1067  C348    1.422   1_556 S
C1068  C1069   1.408   .     A
C1069  H1075   1.078   .     S
C1069  C1071   1.383   .     A
C1070  H1076   1.078   .     S
C1070  C1072   1.383   .     A
C1071  H1073   1.082   .     S
C1072  H1074   1.082   .     S
C1072  C346    1.397   1_556 S
C1077  C1084   1.398   .     A
C1077  H1079   1.084   .     S
C1078  H1080   1.084   .     S
C1078  C1083   1.398   .     A
C1078  C1322   1.390   .     S
C1081  N1109   1.436   .     S
C1081  C1317   1.390   .     S
C1081  C1163   1.409   .     S
C1082  N1112   1.436   .     S
C1084  C1162   1.409   .     S
C1085  C1087   1.415   .     A
C1085  N1092   1.379   .     A
C1085  N1115   1.427   .     S
C1086  C1088   1.415   .     A
C1086  N1118   1.427   .     S
C1086  N1091   1.379   .     A
C1087  H1089   1.082   .     S
C1087  N1091   1.359   .     A
C1088  H1090   1.082   .     S
C1088  N1092   1.359   .     A
C1093  N1094   1.158   .     T
C1095  N1096   1.158   .     T
N1097  O1099   1.301   .     A
N1097  O1098   1.301   .     A
N1097  C1140   1.439   .     S
N1100  O1102   1.301   .     A
N1100  O1101   1.301   .     A
N1103  O1104   1.301   .     A
N1103  O1185   1.300   .     S
N1106  O1108   1.301   .     A
O1107  N1186   1.300   .     S
N1109  O1111   1.302   .     A
N1109  O1110   1.301   .     A
N1112  O1114   1.302   .     A
N1112  O1113   1.301   .     A
N1115  O1116   1.301   .     A
N1115  O1117   1.300   .     A
N1118  O1120   1.300   .     A
N1118  O1119   1.301   .     A
O1121  Cu1133  1.955   .     S
O1122  Cu1134  1.955   .     S
O1122  C966    1.291   1_655 S
O1123  Cu1134  1.958   .     S
O1123  C1125   1.290   .     A
O1124  Cu1133  1.958   .     S
O1124  C1126   1.290   .     A
C1125  C1164   1.445   .     S
C1125  O961    1.291   1_655 S
C1126  C1163   1.445   .     S
O1127  Cu1133  1.968   .     S
O1128  Cu1134  1.968   .     S
O1128  C972    1.299   1_655 S
O1129  Cu1134  1.951   .     S
O1129  C1131   1.302   .     A
O1130  C1132   1.302   .     A
O1130  Cu1133  1.951   .     S
C1131  C1135   1.487   .     S
C1131  O967    1.299   1_655 S
C1132  C1136   1.487   .     S
Cu1133 N1171   2.016   .     S
Cu1134 N1172   2.016   .     S
Cu1134 Cu973   2.682   1_655 S
C1135  C1139   1.415   .     A
C1135  C1141   1.420   .     A
C1136  C1142   1.420   .     A
C1136  C1140   1.415   .     A
C1137  C1145   1.408   .     A
C1137  N1183   1.433   .     S
C1137  C1139   1.403   .     A
C1138  C1146   1.408   .     A
C1138  N1186   1.434   .     S
C1138  C1140   1.403   .     A
C1139  N1020   1.439   1_655 S
C1141  C1175   1.454   .     S
C1141  C1143   1.423   .     A
C1142  C1173   1.454   .     S
C1142  C1144   1.423   .     A
C1143  C1147   1.433   .     A
C1143  C1145   1.420   .     A
C1144  C1146   1.420   .     A
C1144  C1148   1.433   .     A
C1145  C431    1.397   1_556 S
C1147  C1150   1.408   .     A
C1147  C428    1.422   1_556 S
C1148  C1149   1.408   .     A
C1149  H1155   1.078   .     S
C1149  C1151   1.383   .     A
C1150  H1156   1.078   .     S
C1150  C1152   1.383   .     A
C1151  H1153   1.082   .     S
C1152  H1154   1.082   .     S
C1152  C426    1.397   1_556 S
C1157  C1164   1.398   .     A
C1157  H1159   1.084   .     S
C1158  H1160   1.084   .     S
C1158  C1163   1.398   .     A
C1158  C1402   1.390   .     S
C1161  N1189   1.436   .     S
C1161  C1397   1.390   .     S
C1161  C1003   1.409   1_655 S
C1162  N1192   1.436   .     S
C1164  C1002   1.409   1_655 S
C1165  C1167   1.415   .     A
C1165  N1172   1.379   .     A
C1165  N1195   1.427   .     S
C1166  C1168   1.415   .     A
C1166  N1198   1.427   .     S
C1166  N1171   1.379   .     A
C1167  H1169   1.082   .     S
C1167  N1171   1.359   .     A
C1168  H1170   1.082   .     S
C1168  N1172   1.359   .     A
C1173  N1174   1.158   .     T
C1175  N1176   1.158   .     T
N1177  O1179   1.301   .     A
N1177  O1178   1.301   .     A
N1177  C980    1.439   1_655 S
N1180  O1182   1.301   .     A
N1180  O1181   1.301   .     A
N1183  O1184   1.301   .     A
N1183  O1025   1.300   1_655 S
N1186  O1188   1.301   .     A
O1187  N1026   1.300   1_655 S
N1189  O1191   1.302   .     A
N1189  O1190   1.301   .     A
N1192  O1194   1.302   .     A
N1192  O1193   1.301   .     A
N1195  O1196   1.301   .     A
N1195  O1197   1.300   .     A
N1198  O1200   1.300   .     A
N1198  O1199   1.301   .     A
O1201  Cu1213  1.955   .     S
O1201  C1365   1.291   1_455 S
O1202  Cu1214  1.955   .     S
O1202  C1286   1.291   .     S
O1203  Cu1214  1.958   .     S
O1203  C1205   1.290   .     A
O1204  Cu1213  1.958   .     S
O1204  C1206   1.290   .     A
C1205  C1244   1.445   .     S
C1205  O1281   1.291   .     S
C1206  C1243   1.445   .     S
C1206  O1362   1.291   1_455 S
O1207  Cu1213  1.968   .     S
O1207  C1371   1.299   1_455 S
O1208  Cu1214  1.968   .     S
O1208  C1292   1.299   .     S
O1209  Cu1214  1.951   .     S
O1209  C1211   1.302   .     A
O1210  C1212   1.302   .     A
O1210  Cu1213  1.951   .     S
C1211  C1215   1.487   .     S
C1211  O1287   1.299   .     S
C1212  C1216   1.487   .     S
C1212  O1368   1.299   1_455 S
Cu1213 N1251   2.016   .     S
Cu1213 Cu1374  2.682   1_455 S
Cu1214 N1252   2.016   .     S
Cu1214 Cu1293  2.682   .     S
C1215  C1219   1.415   .     A
C1215  C1221   1.420   .     A
C1216  C1222   1.420   .     A
C1216  C1220   1.415   .     A
C1217  C1225   1.408   .     A
C1217  N1263   1.433   .     S
C1217  C1219   1.403   .     A
C1218  C1226   1.408   .     A
C1218  N1266   1.434   .     S
C1218  C1220   1.403   .     A
C1219  N1340   1.439   .     S
C1220  N1417   1.439   1_455 S
C1221  C1255   1.454   .     S
C1221  C1223   1.423   .     A
C1222  C1253   1.454   .     S
C1222  C1224   1.423   .     A
C1223  C1227   1.433   .     A
C1223  C1225   1.420   .     A
C1224  C1226   1.420   .     A
C1224  C1228   1.433   .     A
C1225  C511    1.397   1_556 S
C1227  C1230   1.408   .     A
C1227  C508    1.422   1_556 S
C1228  C1229   1.408   .     A
C1229  H1235   1.078   .     S
C1229  C1231   1.383   .     A
C1230  H1236   1.078   .     S
C1230  C1232   1.383   .     A
C1231  H1233   1.082   .     S
C1232  H1234   1.082   .     S
C1232  C506    1.397   1_556 S
C1237  C1244   1.398   .     A
C1237  H1239   1.084   .     S
C1238  H1240   1.084   .     S
C1238  C1243   1.398   .     A
C1238  C762    1.390   1_565 S
C1241  N1269   1.436   .     S
C1241  C757    1.390   1_565 S
C1241  C1323   1.409   .     S
C1242  N1272   1.436   .     S
C1242  C1404   1.409   1_455 S
C1243  C1401   1.409   1_455 S
C1244  C1322   1.409   .     S
C1245  C1247   1.415   .     A
C1245  N1252   1.379   .     A
C1245  N1275   1.427   .     S
C1246  C1248   1.415   .     A
C1246  N1278   1.427   .     S
C1246  N1251   1.379   .     A
C1247  H1249   1.082   .     S
C1247  N1251   1.359   .     A
C1248  H1250   1.082   .     S
C1248  N1252   1.359   .     A
C1253  N1254   1.158   .     T
C1255  N1256   1.158   .     T
N1257  O1259   1.301   .     A
N1257  O1258   1.301   .     A
N1257  C1300   1.439   .     S
N1260  O1262   1.301   .     A
N1260  O1261   1.301   .     A
N1260  C1379   1.439   1_455 S
N1263  O1264   1.301   .     A
N1263  O1345   1.300   .     S
O1265  N1423   1.300   1_455 S
N1266  O1268   1.301   .     A
N1266  O1427   1.300   1_455 S
O1267  N1346   1.300   .     S
N1269  O1271   1.302   .     A
N1269  O1270   1.301   .     A
N1272  O1274   1.302   .     A
N1272  O1273   1.301   .     A
N1275  O1276   1.301   .     A
N1275  O1277   1.300   .     A
N1278  O1280   1.300   .     A
N1278  O1279   1.301   .     A
O1281  Cu1293  1.955   .     S
O1282  Cu1294  1.955   .     S
O1282  C1366   1.291   .     S
O1283  Cu1294  1.958   .     S
O1283  C1285   1.290   .     A
O1284  Cu1293  1.958   .     S
O1284  C1286   1.290   .     A
C1285  C1324   1.445   .     S
C1285  O1361   1.291   .     S
C1286  C1323   1.445   .     S
O1287  Cu1293  1.968   .     S
O1288  Cu1294  1.968   .     S
O1288  C1372   1.299   .     S
O1289  Cu1294  1.951   .     S
O1289  C1291   1.302   .     A
O1290  C1292   1.302   .     A
O1290  Cu1293  1.951   .     S
C1291  C1295   1.487   .     S
C1291  O1367   1.299   .     S
C1292  C1296   1.487   .     S
Cu1293 N1331   2.016   .     S
Cu1294 N1332   2.016   .     S
Cu1294 Cu1373  2.682   .     S
C1295  C1299   1.415   .     A
C1295  C1301   1.420   .     A
C1296  C1302   1.420   .     A
C1296  C1300   1.415   .     A
C1297  C1305   1.408   .     A
C1297  N1343   1.433   .     S
C1297  C1299   1.403   .     A
C1298  C1306   1.408   .     A
C1298  N1346   1.434   .     S
C1298  C1300   1.403   .     A
C1299  N1420   1.439   .     S
C1301  C1335   1.454   .     S
C1301  C1303   1.423   .     A
C1302  C1333   1.454   .     S
C1302  C1304   1.423   .     A
C1303  C1307   1.433   .     A
C1303  C1305   1.420   .     A
C1304  C1306   1.420   .     A
C1304  C1308   1.433   .     A
C1305  C591    1.397   1_556 S
C1307  C1310   1.408   .     A
C1307  C588    1.422   1_556 S
C1308  C1309   1.408   .     A
C1309  H1315   1.078   .     S
C1309  C1311   1.383   .     A
C1310  H1316   1.078   .     S
C1310  C1312   1.383   .     A
C1311  H1313   1.082   .     S
C1312  H1314   1.082   .     S
C1312  C586    1.397   1_556 S
C1317  C1324   1.398   .     A
C1317  H1319   1.084   .     S
C1318  H1320   1.084   .     S
C1318  C1323   1.398   .     A
C1318  C842    1.390   1_565 S
C1321  N1349   1.436   .     S
C1321  C837    1.390   1_565 S
C1321  C1403   1.409   .     S
C1322  N1352   1.436   .     S
C1324  C1402   1.409   .     S
C1325  C1327   1.415   .     A
C1325  N1332   1.379   .     A
C1325  N1355   1.427   .     S
C1326  C1328   1.415   .     A
C1326  N1358   1.427   .     S
C1326  N1331   1.379   .     A
C1327  H1329   1.082   .     S
C1327  N1331   1.359   .     A
C1328  H1330   1.082   .     S
C1328  N1332   1.359   .     A
C1333  N1334   1.158   .     T
C1335  N1336   1.158   .     T
N1337  O1339   1.301   .     A
N1337  O1338   1.301   .     A
N1337  C1380   1.439   .     S
N1340  O1342   1.301   .     A
N1340  O1341   1.301   .     A
N1343  O1344   1.301   .     A
N1343  O1425   1.300   .     S
N1346  O1348   1.301   .     A
O1347  N1426   1.300   .     S
N1349  O1351   1.302   .     A
N1349  O1350   1.301   .     A
N1352  O1354   1.302   .     A
N1352  O1353   1.301   .     A
N1355  O1356   1.301   .     A
N1355  O1357   1.300   .     A
N1358  O1360   1.300   .     A
N1358  O1359   1.301   .     A
O1361  Cu1373  1.955   .     S
O1362  Cu1374  1.955   .     S
O1362  C1206   1.291   1_655 S
O1363  Cu1374  1.958   .     S
O1363  C1365   1.290   .     A
O1364  Cu1373  1.958   .     S
O1364  C1366   1.290   .     A
C1365  C1404   1.445   .     S
C1365  O1201   1.291   1_655 S
C1366  C1403   1.445   .     S
O1367  Cu1373  1.968   .     S
O1368  Cu1374  1.968   .     S
O1368  C1212   1.299   1_655 S
O1369  Cu1374  1.951   .     S
O1369  C1371   1.302   .     A
O1370  C1372   1.302   .     A
O1370  Cu1373  1.951   .     S
C1371  C1375   1.487   .     S
C1371  O1207   1.299   1_655 S
C1372  C1376   1.487   .     S
Cu1373 N1411   2.016   .     S
Cu1374 N1412   2.016   .     S
Cu1374 Cu1213  2.682   1_655 S
C1375  C1379   1.415   .     A
C1375  C1381   1.420   .     A
C1376  C1382   1.420   .     A
C1376  C1380   1.415   .     A
C1377  C1385   1.408   .     A
C1377  N1423   1.433   .     S
C1377  C1379   1.403   .     A
C1378  C1386   1.408   .     A
C1378  N1426   1.434   .     S
C1378  C1380   1.403   .     A
C1379  N1260   1.439   1_655 S
C1381  C1415   1.454   .     S
C1381  C1383   1.423   .     A
C1382  C1413   1.454   .     S
C1382  C1384   1.423   .     A
C1383  C1387   1.433   .     A
C1383  C1385   1.420   .     A
C1384  C1386   1.420   .     A
C1384  C1388   1.433   .     A
C1385  C671    1.397   1_556 S
C1387  C1390   1.408   .     A
C1387  C668    1.422   1_556 S
C1388  C1389   1.408   .     A
C1389  H1395   1.078   .     S
C1389  C1391   1.383   .     A
C1390  H1396   1.078   .     S
C1390  C1392   1.383   .     A
C1391  H1393   1.082   .     S
C1392  H1394   1.082   .     S
C1392  C666    1.397   1_556 S
C1397  C1404   1.398   .     A
C1397  H1399   1.084   .     S
C1398  H1400   1.084   .     S
C1398  C1403   1.398   .     A
C1398  C922    1.390   1_565 S
C1401  N1429   1.436   .     S
C1401  C917    1.390   1_565 S
C1401  C1243   1.409   1_655 S
C1402  N1432   1.436   .     S
C1404  C1242   1.409   1_655 S
C1405  C1407   1.415   .     A
C1405  N1412   1.379   .     A
C1405  N1435   1.427   .     S
C1406  C1408   1.415   .     A
C1406  N1438   1.427   .     S
C1406  N1411   1.379   .     A
C1407  H1409   1.082   .     S
C1407  N1411   1.359   .     A
C1408  H1410   1.082   .     S
C1408  N1412   1.359   .     A
C1413  N1414   1.158   .     T
C1415  N1416   1.158   .     T
N1417  O1419   1.301   .     A
N1417  O1418   1.301   .     A
N1417  C1220   1.439   1_655 S
N1420  O1422   1.301   .     A
N1420  O1421   1.301   .     A
N1423  O1424   1.301   .     A
N1423  O1265   1.300   1_655 S
N1426  O1428   1.301   .     A
O1427  N1266   1.300   1_655 S
N1429  O1431   1.302   .     A
N1429  O1430   1.301   .     A
N1432  O1434   1.302   .     A
N1432  O1433   1.301   .     A
N1435  O1436   1.301   .     A
N1435  O1437   1.300   .     A
N1438  O1440   1.300   .     A
N1438  O1439   1.301   .     A
