data_str_m3_o2_o5_pcu_sym.12
_audit_creation_date              2020-01-03
_audit_creation_method            'Materials Studio'
_symmetry_space_group_name_H-M    'P1'
_symmetry_Int_Tables_number       1
_symmetry_cell_setting            triclinic
loop_
_symmetry_equiv_pos_as_xyz
  x,y,z
_cell_length_a                    30.0224
_cell_length_b                    28.6274
_cell_length_c                    26.7062
_cell_angle_alpha                 90.0000
_cell_angle_beta                  91.3941
_cell_angle_gamma                 90.0000
loop_
_atom_site_label
_atom_site_type_symbol
_atom_site_fract_x
_atom_site_fract_y
_atom_site_fract_z
_atom_site_U_iso_or_equiv
_atom_site_adp_type
_atom_site_occupancy
Br1    Br    0.18634   0.13251   0.08431   0.00000  Uiso   1.00
Br2    Br    0.32093   0.36716   0.24101   0.00000  Uiso   1.00
Br3    Br    0.31366   0.13251   0.24902   0.00000  Uiso   1.00
Br4    Br    0.17907   0.36716   0.09233   0.00000  Uiso   1.00
C5     C     0.16400   0.25002   0.16666   0.00000  Uiso   1.00
C6     C     0.21939   0.44719   0.13713   0.00000  Uiso   1.00
C7     C     0.24994   0.25000   0.07296   0.00000  Uiso   1.00
C8     C     0.25006   0.25000   0.26037   0.00000  Uiso   1.00
C9     C     0.25000   0.02663   0.16667   0.00000  Uiso   1.00
C10    C     0.25000   0.47329   0.16667   0.00000  Uiso   1.00
C11    C     0.24998   0.25000   0.02182   0.00000  Uiso   1.00
C12    C     0.25002   0.25000   0.31152   0.00000  Uiso   1.00
C13    C     0.04756   0.28983   0.18374   0.00000  Uiso   1.00
C14    C     0.45339   0.21109   0.18391   0.00000  Uiso   1.00
C15    C     0.45244   0.28983   0.14960   0.00000  Uiso   1.00
C16    C     0.33600   0.25002   0.16668   0.00000  Uiso   1.00
C17    C     0.04661   0.21109   0.14942   0.00000  Uiso   1.00
C18    C     0.09355   0.28977   0.18348   0.00000  Uiso   1.00
C19    C     0.40742   0.21077   0.18347   0.00000  Uiso   1.00
C20    C     0.40645   0.28977   0.14986   0.00000  Uiso   1.00
C21    C     0.09258   0.21077   0.14987   0.00000  Uiso   1.00
C22    C     0.11607   0.25016   0.16670   0.00000  Uiso   1.00
C23    C     0.38393   0.25016   0.16663   0.00000  Uiso   1.00
C24    C     0.02406   0.25053   0.16658   0.00000  Uiso   1.00
C25    C     0.47594   0.25053   0.16675   0.00000  Uiso   1.00
C26    C     0.22445   0.10184   0.13236   0.00000  Uiso   1.00
C27    C     0.27962   0.39810   0.19657   0.00000  Uiso   1.00
C28    C     0.27555   0.10184   0.20098   0.00000  Uiso   1.00
C29    C     0.22038   0.39810   0.13676   0.00000  Uiso   1.00
C30    C     0.22483   0.05274   0.13126   0.00000  Uiso   1.00
C31    C     0.28061   0.44719   0.19621   0.00000  Uiso   1.00
C32    C     0.27517   0.05274   0.20207   0.00000  Uiso   1.00
H33    H     0.03039   0.32024   0.19777   0.00000  Uiso   1.00
H34    H     0.30584   0.46395   0.21928   0.00000  Uiso   1.00
H35    H     0.29478   0.03596   0.23123   0.00000  Uiso   1.00
H36    H     0.19416   0.46395   0.11405   0.00000  Uiso   1.00
H37    H     0.47133   0.18079   0.19797   0.00000  Uiso   1.00
H38    H     0.46961   0.32024   0.13557   0.00000  Uiso   1.00
H39    H     0.02867   0.18079   0.13537   0.00000  Uiso   1.00
H40    H     0.11144   0.32032   0.19700   0.00000  Uiso   1.00
H41    H     0.39039   0.18005   0.19683   0.00000  Uiso   1.00
H42    H     0.38857   0.32032   0.13633   0.00000  Uiso   1.00
H43    H     0.10961   0.18005   0.13651   0.00000  Uiso   1.00
H44    H     0.20522   0.03596   0.10211   0.00000  Uiso   1.00
N45    N     0.25000   0.12624   0.16667   0.00000  Uiso   1.00
N46    N     0.25000   0.37377   0.16667   0.00000  Uiso   1.00
O47    O     0.18453   0.28974   0.16667   0.00000  Uiso   1.00
O48    O     0.31547   0.21026   0.16666   0.00000  Uiso   1.00
O49    O     0.31547   0.28974   0.16666   0.00000  Uiso   1.00
O50    O     0.18453   0.21026   0.16667   0.00000  Uiso   1.00
O51    O     0.25000   0.28973   0.09511   0.00000  Uiso   1.00
O52    O     0.25000   0.21027   0.23822   0.00000  Uiso   1.00
O53    O     0.25000   0.28973   0.23822   0.00000  Uiso   1.00
O54    O     0.25000   0.21027   0.09511   0.00000  Uiso   1.00
Zn55   Zn    0.25000   0.30307   0.16667   0.00000  Uiso   1.00
Zn56   Zn    0.25000   0.19693   0.16667   0.00000  Uiso   1.00
Br57   Br    0.68634   0.13251   0.08431   0.00000  Uiso   1.00
Br58   Br    0.82093   0.36716   0.24101   0.00000  Uiso   1.00
Br59   Br    0.81366   0.13251   0.24902   0.00000  Uiso   1.00
Br60   Br    0.67907   0.36716   0.09233   0.00000  Uiso   1.00
C61    C     0.66400   0.25002   0.16666   0.00000  Uiso   1.00
C62    C     0.71939   0.44719   0.13713   0.00000  Uiso   1.00
C63    C     0.74994   0.25000   0.07296   0.00000  Uiso   1.00
C64    C     0.75006   0.25000   0.26037   0.00000  Uiso   1.00
C65    C     0.75000   0.02663   0.16667   0.00000  Uiso   1.00
C66    C     0.75000   0.47329   0.16667   0.00000  Uiso   1.00
C67    C     0.74998   0.25000   0.02182   0.00000  Uiso   1.00
C68    C     0.75002   0.25000   0.31152   0.00000  Uiso   1.00
C69    C     0.54756   0.28983   0.18374   0.00000  Uiso   1.00
C70    C     0.95339   0.21109   0.18391   0.00000  Uiso   1.00
C71    C     0.95244   0.28983   0.14960   0.00000  Uiso   1.00
C72    C     0.83600   0.25002   0.16668   0.00000  Uiso   1.00
C73    C     0.54661   0.21109   0.14942   0.00000  Uiso   1.00
C74    C     0.59355   0.28977   0.18348   0.00000  Uiso   1.00
C75    C     0.90742   0.21077   0.18347   0.00000  Uiso   1.00
C76    C     0.90645   0.28977   0.14986   0.00000  Uiso   1.00
C77    C     0.59258   0.21077   0.14987   0.00000  Uiso   1.00
C78    C     0.61607   0.25016   0.16670   0.00000  Uiso   1.00
C79    C     0.88393   0.25016   0.16663   0.00000  Uiso   1.00
C80    C     0.52406   0.25053   0.16658   0.00000  Uiso   1.00
C81    C     0.97594   0.25053   0.16675   0.00000  Uiso   1.00
C82    C     0.72445   0.10184   0.13236   0.00000  Uiso   1.00
C83    C     0.77962   0.39810   0.19657   0.00000  Uiso   1.00
C84    C     0.77555   0.10184   0.20098   0.00000  Uiso   1.00
C85    C     0.72038   0.39810   0.13676   0.00000  Uiso   1.00
C86    C     0.72483   0.05274   0.13126   0.00000  Uiso   1.00
C87    C     0.78061   0.44719   0.19621   0.00000  Uiso   1.00
C88    C     0.77517   0.05274   0.20207   0.00000  Uiso   1.00
H89    H     0.53039   0.32024   0.19777   0.00000  Uiso   1.00
H90    H     0.80584   0.46395   0.21928   0.00000  Uiso   1.00
H91    H     0.79478   0.03596   0.23123   0.00000  Uiso   1.00
H92    H     0.69416   0.46395   0.11405   0.00000  Uiso   1.00
H93    H     0.97133   0.18079   0.19797   0.00000  Uiso   1.00
H94    H     0.96961   0.32024   0.13557   0.00000  Uiso   1.00
H95    H     0.52867   0.18079   0.13537   0.00000  Uiso   1.00
H96    H     0.61144   0.32032   0.19700   0.00000  Uiso   1.00
H97    H     0.89039   0.18005   0.19683   0.00000  Uiso   1.00
H98    H     0.88857   0.32032   0.13633   0.00000  Uiso   1.00
H99    H     0.60961   0.18005   0.13651   0.00000  Uiso   1.00
H100   H     0.70522   0.03596   0.10211   0.00000  Uiso   1.00
N101   N     0.75000   0.12624   0.16667   0.00000  Uiso   1.00
N102   N     0.75000   0.37377   0.16667   0.00000  Uiso   1.00
O103   O     0.68453   0.28974   0.16667   0.00000  Uiso   1.00
O104   O     0.81547   0.21026   0.16666   0.00000  Uiso   1.00
O105   O     0.81547   0.28974   0.16666   0.00000  Uiso   1.00
O106   O     0.68453   0.21026   0.16667   0.00000  Uiso   1.00
O107   O     0.75000   0.28973   0.09511   0.00000  Uiso   1.00
O108   O     0.75000   0.21027   0.23822   0.00000  Uiso   1.00
O109   O     0.75000   0.28973   0.23822   0.00000  Uiso   1.00
O110   O     0.75000   0.21027   0.09511   0.00000  Uiso   1.00
Zn111  Zn    0.75000   0.30307   0.16667   0.00000  Uiso   1.00
Zn112  Zn    0.75000   0.19693   0.16667   0.00000  Uiso   1.00
Br113  Br    0.18634   0.63251   0.08431   0.00000  Uiso   1.00
Br114  Br    0.32093   0.86716   0.24101   0.00000  Uiso   1.00
Br115  Br    0.31366   0.63251   0.24902   0.00000  Uiso   1.00
Br116  Br    0.17907   0.86716   0.09233   0.00000  Uiso   1.00
C117   C     0.16400   0.75002   0.16666   0.00000  Uiso   1.00
C118   C     0.21939   0.94719   0.13713   0.00000  Uiso   1.00
C119   C     0.24994   0.75000   0.07296   0.00000  Uiso   1.00
C120   C     0.25006   0.75000   0.26037   0.00000  Uiso   1.00
C121   C     0.25000   0.52663   0.16667   0.00000  Uiso   1.00
C122   C     0.25000   0.97329   0.16667   0.00000  Uiso   1.00
C123   C     0.24998   0.75000   0.02182   0.00000  Uiso   1.00
C124   C     0.25002   0.75000   0.31152   0.00000  Uiso   1.00
C125   C     0.04756   0.78983   0.18374   0.00000  Uiso   1.00
C126   C     0.45339   0.71109   0.18391   0.00000  Uiso   1.00
C127   C     0.45244   0.78983   0.14960   0.00000  Uiso   1.00
C128   C     0.33600   0.75002   0.16668   0.00000  Uiso   1.00
C129   C     0.04661   0.71109   0.14942   0.00000  Uiso   1.00
C130   C     0.09355   0.78977   0.18348   0.00000  Uiso   1.00
C131   C     0.40742   0.71077   0.18347   0.00000  Uiso   1.00
C132   C     0.40645   0.78977   0.14986   0.00000  Uiso   1.00
C133   C     0.09258   0.71077   0.14987   0.00000  Uiso   1.00
C134   C     0.11607   0.75016   0.16670   0.00000  Uiso   1.00
C135   C     0.38393   0.75016   0.16663   0.00000  Uiso   1.00
C136   C     0.02406   0.75053   0.16658   0.00000  Uiso   1.00
C137   C     0.47594   0.75053   0.16675   0.00000  Uiso   1.00
C138   C     0.22445   0.60184   0.13236   0.00000  Uiso   1.00
C139   C     0.27962   0.89810   0.19657   0.00000  Uiso   1.00
C140   C     0.27555   0.60184   0.20098   0.00000  Uiso   1.00
C141   C     0.22038   0.89810   0.13676   0.00000  Uiso   1.00
C142   C     0.22483   0.55274   0.13126   0.00000  Uiso   1.00
C143   C     0.28061   0.94719   0.19621   0.00000  Uiso   1.00
C144   C     0.27517   0.55274   0.20207   0.00000  Uiso   1.00
H145   H     0.03039   0.82024   0.19777   0.00000  Uiso   1.00
H146   H     0.30584   0.96395   0.21928   0.00000  Uiso   1.00
H147   H     0.29478   0.53596   0.23123   0.00000  Uiso   1.00
H148   H     0.19416   0.96395   0.11405   0.00000  Uiso   1.00
H149   H     0.47133   0.68079   0.19797   0.00000  Uiso   1.00
H150   H     0.46961   0.82024   0.13557   0.00000  Uiso   1.00
H151   H     0.02867   0.68079   0.13537   0.00000  Uiso   1.00
H152   H     0.11144   0.82032   0.19700   0.00000  Uiso   1.00
H153   H     0.39039   0.68005   0.19683   0.00000  Uiso   1.00
H154   H     0.38857   0.82032   0.13633   0.00000  Uiso   1.00
H155   H     0.10961   0.68005   0.13651   0.00000  Uiso   1.00
H156   H     0.20522   0.53596   0.10211   0.00000  Uiso   1.00
N157   N     0.25000   0.62624   0.16667   0.00000  Uiso   1.00
N158   N     0.25000   0.87377   0.16667   0.00000  Uiso   1.00
O159   O     0.18453   0.78974   0.16667   0.00000  Uiso   1.00
O160   O     0.31547   0.71026   0.16666   0.00000  Uiso   1.00
O161   O     0.31547   0.78974   0.16666   0.00000  Uiso   1.00
O162   O     0.18453   0.71026   0.16667   0.00000  Uiso   1.00
O163   O     0.25000   0.78973   0.09511   0.00000  Uiso   1.00
O164   O     0.25000   0.71027   0.23822   0.00000  Uiso   1.00
O165   O     0.25000   0.78973   0.23822   0.00000  Uiso   1.00
O166   O     0.25000   0.71027   0.09511   0.00000  Uiso   1.00
Zn167  Zn    0.25000   0.80307   0.16667   0.00000  Uiso   1.00
Zn168  Zn    0.25000   0.69693   0.16667   0.00000  Uiso   1.00
Br169  Br    0.68634   0.63251   0.08431   0.00000  Uiso   1.00
Br170  Br    0.82093   0.86716   0.24101   0.00000  Uiso   1.00
Br171  Br    0.81366   0.63251   0.24902   0.00000  Uiso   1.00
Br172  Br    0.67907   0.86716   0.09233   0.00000  Uiso   1.00
C173   C     0.66400   0.75002   0.16666   0.00000  Uiso   1.00
C174   C     0.71939   0.94719   0.13713   0.00000  Uiso   1.00
C175   C     0.74994   0.75000   0.07296   0.00000  Uiso   1.00
C176   C     0.75006   0.75000   0.26037   0.00000  Uiso   1.00
C177   C     0.75000   0.52663   0.16667   0.00000  Uiso   1.00
C178   C     0.75000   0.97329   0.16667   0.00000  Uiso   1.00
C179   C     0.74998   0.75000   0.02182   0.00000  Uiso   1.00
C180   C     0.75002   0.75000   0.31152   0.00000  Uiso   1.00
C181   C     0.54756   0.78983   0.18374   0.00000  Uiso   1.00
C182   C     0.95339   0.71109   0.18391   0.00000  Uiso   1.00
C183   C     0.95244   0.78983   0.14960   0.00000  Uiso   1.00
C184   C     0.83600   0.75002   0.16668   0.00000  Uiso   1.00
C185   C     0.54661   0.71109   0.14942   0.00000  Uiso   1.00
C186   C     0.59355   0.78977   0.18348   0.00000  Uiso   1.00
C187   C     0.90742   0.71077   0.18347   0.00000  Uiso   1.00
C188   C     0.90645   0.78977   0.14986   0.00000  Uiso   1.00
C189   C     0.59258   0.71077   0.14987   0.00000  Uiso   1.00
C190   C     0.61607   0.75016   0.16670   0.00000  Uiso   1.00
C191   C     0.88393   0.75016   0.16663   0.00000  Uiso   1.00
C192   C     0.52406   0.75053   0.16658   0.00000  Uiso   1.00
C193   C     0.97594   0.75053   0.16675   0.00000  Uiso   1.00
C194   C     0.72445   0.60184   0.13236   0.00000  Uiso   1.00
C195   C     0.77962   0.89810   0.19657   0.00000  Uiso   1.00
C196   C     0.77555   0.60184   0.20098   0.00000  Uiso   1.00
C197   C     0.72038   0.89810   0.13676   0.00000  Uiso   1.00
C198   C     0.72483   0.55274   0.13126   0.00000  Uiso   1.00
C199   C     0.78061   0.94719   0.19621   0.00000  Uiso   1.00
C200   C     0.77517   0.55274   0.20207   0.00000  Uiso   1.00
H201   H     0.53039   0.82024   0.19777   0.00000  Uiso   1.00
H202   H     0.80584   0.96395   0.21928   0.00000  Uiso   1.00
H203   H     0.79478   0.53596   0.23123   0.00000  Uiso   1.00
H204   H     0.69416   0.96395   0.11405   0.00000  Uiso   1.00
H205   H     0.97133   0.68079   0.19797   0.00000  Uiso   1.00
H206   H     0.96961   0.82024   0.13557   0.00000  Uiso   1.00
H207   H     0.52867   0.68079   0.13537   0.00000  Uiso   1.00
H208   H     0.61144   0.82032   0.19700   0.00000  Uiso   1.00
H209   H     0.89039   0.68005   0.19683   0.00000  Uiso   1.00
H210   H     0.88857   0.82032   0.13633   0.00000  Uiso   1.00
H211   H     0.60961   0.68005   0.13651   0.00000  Uiso   1.00
H212   H     0.70522   0.53596   0.10211   0.00000  Uiso   1.00
N213   N     0.75000   0.62624   0.16667   0.00000  Uiso   1.00
N214   N     0.75000   0.87377   0.16667   0.00000  Uiso   1.00
O215   O     0.68453   0.78974   0.16667   0.00000  Uiso   1.00
O216   O     0.81547   0.71026   0.16666   0.00000  Uiso   1.00
O217   O     0.81547   0.78974   0.16666   0.00000  Uiso   1.00
O218   O     0.68453   0.71026   0.16667   0.00000  Uiso   1.00
O219   O     0.75000   0.78973   0.09511   0.00000  Uiso   1.00
O220   O     0.75000   0.71027   0.23822   0.00000  Uiso   1.00
O221   O     0.75000   0.78973   0.23822   0.00000  Uiso   1.00
O222   O     0.75000   0.71027   0.09511   0.00000  Uiso   1.00
Zn223  Zn    0.75000   0.80307   0.16667   0.00000  Uiso   1.00
Zn224  Zn    0.75000   0.69693   0.16667   0.00000  Uiso   1.00
Br225  Br    0.18634   0.13251   0.41765   0.00000  Uiso   1.00
Br226  Br    0.32093   0.36716   0.57434   0.00000  Uiso   1.00
Br227  Br    0.31366   0.13251   0.58235   0.00000  Uiso   1.00
Br228  Br    0.17907   0.36716   0.42566   0.00000  Uiso   1.00
C229   C     0.16400   0.25002   0.49999   0.00000  Uiso   1.00
C230   C     0.21939   0.44719   0.47046   0.00000  Uiso   1.00
C231   C     0.24994   0.25000   0.40629   0.00000  Uiso   1.00
C232   C     0.25006   0.25000   0.59371   0.00000  Uiso   1.00
C233   C     0.25000   0.02663   0.50000   0.00000  Uiso   1.00
C234   C     0.25000   0.47329   0.50000   0.00000  Uiso   1.00
C235   C     0.24998   0.25000   0.35515   0.00000  Uiso   1.00
C236   C     0.25002   0.25000   0.64485   0.00000  Uiso   1.00
C237   C     0.04756   0.28983   0.51707   0.00000  Uiso   1.00
C238   C     0.45339   0.21109   0.51725   0.00000  Uiso   1.00
C239   C     0.45244   0.28983   0.48293   0.00000  Uiso   1.00
C240   C     0.33600   0.25002   0.50001   0.00000  Uiso   1.00
C241   C     0.04661   0.21109   0.48276   0.00000  Uiso   1.00
C242   C     0.09355   0.28977   0.51681   0.00000  Uiso   1.00
C243   C     0.40742   0.21077   0.51680   0.00000  Uiso   1.00
C244   C     0.40645   0.28977   0.48319   0.00000  Uiso   1.00
C245   C     0.09258   0.21077   0.48320   0.00000  Uiso   1.00
C246   C     0.11607   0.25016   0.50003   0.00000  Uiso   1.00
C247   C     0.38393   0.25016   0.49997   0.00000  Uiso   1.00
C248   C     0.02406   0.25053   0.49992   0.00000  Uiso   1.00
C249   C     0.47594   0.25053   0.50009   0.00000  Uiso   1.00
C250   C     0.22445   0.10184   0.46569   0.00000  Uiso   1.00
C251   C     0.27962   0.39810   0.52991   0.00000  Uiso   1.00
C252   C     0.27555   0.10184   0.53431   0.00000  Uiso   1.00
C253   C     0.22038   0.39810   0.47009   0.00000  Uiso   1.00
C254   C     0.22483   0.05274   0.46460   0.00000  Uiso   1.00
C255   C     0.28061   0.44719   0.52954   0.00000  Uiso   1.00
C256   C     0.27517   0.05274   0.53540   0.00000  Uiso   1.00
H257   H     0.03039   0.32024   0.53110   0.00000  Uiso   1.00
H258   H     0.30584   0.46395   0.55262   0.00000  Uiso   1.00
H259   H     0.29478   0.03596   0.56456   0.00000  Uiso   1.00
H260   H     0.19416   0.46395   0.44738   0.00000  Uiso   1.00
H261   H     0.47133   0.18079   0.53130   0.00000  Uiso   1.00
H262   H     0.46961   0.32024   0.46890   0.00000  Uiso   1.00
H263   H     0.02867   0.18079   0.46870   0.00000  Uiso   1.00
H264   H     0.11144   0.32032   0.53034   0.00000  Uiso   1.00
H265   H     0.39039   0.18005   0.53016   0.00000  Uiso   1.00
H266   H     0.38857   0.32032   0.46966   0.00000  Uiso   1.00
H267   H     0.10961   0.18005   0.46984   0.00000  Uiso   1.00
H268   H     0.20522   0.03596   0.43544   0.00000  Uiso   1.00
N269   N     0.25000   0.12624   0.50000   0.00000  Uiso   1.00
N270   N     0.25000   0.37377   0.50000   0.00000  Uiso   1.00
O271   O     0.18453   0.28974   0.50000   0.00000  Uiso   1.00
O272   O     0.31547   0.21026   0.50000   0.00000  Uiso   1.00
O273   O     0.31547   0.28974   0.50000   0.00000  Uiso   1.00
O274   O     0.18453   0.21026   0.50000   0.00000  Uiso   1.00
O275   O     0.25000   0.28973   0.42845   0.00000  Uiso   1.00
O276   O     0.25000   0.21027   0.57155   0.00000  Uiso   1.00
O277   O     0.25000   0.28973   0.57155   0.00000  Uiso   1.00
O278   O     0.25000   0.21027   0.42845   0.00000  Uiso   1.00
Zn279  Zn    0.25000   0.30307   0.50000   0.00000  Uiso   1.00
Zn280  Zn    0.25000   0.19693   0.50000   0.00000  Uiso   1.00
Br281  Br    0.68634   0.13251   0.41765   0.00000  Uiso   1.00
Br282  Br    0.82093   0.36716   0.57434   0.00000  Uiso   1.00
Br283  Br    0.81366   0.13251   0.58235   0.00000  Uiso   1.00
Br284  Br    0.67907   0.36716   0.42566   0.00000  Uiso   1.00
C285   C     0.66400   0.25002   0.49999   0.00000  Uiso   1.00
C286   C     0.71939   0.44719   0.47046   0.00000  Uiso   1.00
C287   C     0.74994   0.25000   0.40629   0.00000  Uiso   1.00
C288   C     0.75006   0.25000   0.59371   0.00000  Uiso   1.00
C289   C     0.75000   0.02663   0.50000   0.00000  Uiso   1.00
C290   C     0.75000   0.47329   0.50000   0.00000  Uiso   1.00
C291   C     0.74998   0.25000   0.35515   0.00000  Uiso   1.00
C292   C     0.75002   0.25000   0.64485   0.00000  Uiso   1.00
C293   C     0.54756   0.28983   0.51707   0.00000  Uiso   1.00
C294   C     0.95339   0.21109   0.51725   0.00000  Uiso   1.00
C295   C     0.95244   0.28983   0.48293   0.00000  Uiso   1.00
C296   C     0.83600   0.25002   0.50001   0.00000  Uiso   1.00
C297   C     0.54661   0.21109   0.48276   0.00000  Uiso   1.00
C298   C     0.59355   0.28977   0.51681   0.00000  Uiso   1.00
C299   C     0.90742   0.21077   0.51680   0.00000  Uiso   1.00
C300   C     0.90645   0.28977   0.48319   0.00000  Uiso   1.00
C301   C     0.59258   0.21077   0.48320   0.00000  Uiso   1.00
C302   C     0.61607   0.25016   0.50003   0.00000  Uiso   1.00
C303   C     0.88393   0.25016   0.49997   0.00000  Uiso   1.00
C304   C     0.52406   0.25053   0.49992   0.00000  Uiso   1.00
C305   C     0.97594   0.25053   0.50009   0.00000  Uiso   1.00
C306   C     0.72445   0.10184   0.46569   0.00000  Uiso   1.00
C307   C     0.77962   0.39810   0.52991   0.00000  Uiso   1.00
C308   C     0.77555   0.10184   0.53431   0.00000  Uiso   1.00
C309   C     0.72038   0.39810   0.47009   0.00000  Uiso   1.00
C310   C     0.72483   0.05274   0.46460   0.00000  Uiso   1.00
C311   C     0.78061   0.44719   0.52954   0.00000  Uiso   1.00
C312   C     0.77517   0.05274   0.53540   0.00000  Uiso   1.00
H313   H     0.53039   0.32024   0.53110   0.00000  Uiso   1.00
H314   H     0.80584   0.46395   0.55262   0.00000  Uiso   1.00
H315   H     0.79478   0.03596   0.56456   0.00000  Uiso   1.00
H316   H     0.69416   0.46395   0.44738   0.00000  Uiso   1.00
H317   H     0.97133   0.18079   0.53130   0.00000  Uiso   1.00
H318   H     0.96961   0.32024   0.46890   0.00000  Uiso   1.00
H319   H     0.52867   0.18079   0.46870   0.00000  Uiso   1.00
H320   H     0.61144   0.32032   0.53034   0.00000  Uiso   1.00
H321   H     0.89039   0.18005   0.53016   0.00000  Uiso   1.00
H322   H     0.88857   0.32032   0.46966   0.00000  Uiso   1.00
H323   H     0.60961   0.18005   0.46984   0.00000  Uiso   1.00
H324   H     0.70522   0.03596   0.43544   0.00000  Uiso   1.00
N325   N     0.75000   0.12624   0.50000   0.00000  Uiso   1.00
N326   N     0.75000   0.37377   0.50000   0.00000  Uiso   1.00
O327   O     0.68453   0.28974   0.50000   0.00000  Uiso   1.00
O328   O     0.81547   0.21026   0.50000   0.00000  Uiso   1.00
O329   O     0.81547   0.28974   0.50000   0.00000  Uiso   1.00
O330   O     0.68453   0.21026   0.50000   0.00000  Uiso   1.00
O331   O     0.75000   0.28973   0.42845   0.00000  Uiso   1.00
O332   O     0.75000   0.21027   0.57155   0.00000  Uiso   1.00
O333   O     0.75000   0.28973   0.57155   0.00000  Uiso   1.00
O334   O     0.75000   0.21027   0.42845   0.00000  Uiso   1.00
Zn335  Zn    0.75000   0.30307   0.50000   0.00000  Uiso   1.00
Zn336  Zn    0.75000   0.19693   0.50000   0.00000  Uiso   1.00
Br337  Br    0.18634   0.63251   0.41765   0.00000  Uiso   1.00
Br338  Br    0.32093   0.86716   0.57434   0.00000  Uiso   1.00
Br339  Br    0.31366   0.63251   0.58235   0.00000  Uiso   1.00
Br340  Br    0.17907   0.86716   0.42566   0.00000  Uiso   1.00
C341   C     0.16400   0.75002   0.49999   0.00000  Uiso   1.00
C342   C     0.21939   0.94719   0.47046   0.00000  Uiso   1.00
C343   C     0.24994   0.75000   0.40629   0.00000  Uiso   1.00
C344   C     0.25006   0.75000   0.59371   0.00000  Uiso   1.00
C345   C     0.25000   0.52663   0.50000   0.00000  Uiso   1.00
C346   C     0.25000   0.97329   0.50000   0.00000  Uiso   1.00
C347   C     0.24998   0.75000   0.35515   0.00000  Uiso   1.00
C348   C     0.25002   0.75000   0.64485   0.00000  Uiso   1.00
C349   C     0.04756   0.78983   0.51707   0.00000  Uiso   1.00
C350   C     0.45339   0.71109   0.51725   0.00000  Uiso   1.00
C351   C     0.45244   0.78983   0.48293   0.00000  Uiso   1.00
C352   C     0.33600   0.75002   0.50001   0.00000  Uiso   1.00
C353   C     0.04661   0.71109   0.48276   0.00000  Uiso   1.00
C354   C     0.09355   0.78977   0.51681   0.00000  Uiso   1.00
C355   C     0.40742   0.71077   0.51680   0.00000  Uiso   1.00
C356   C     0.40645   0.78977   0.48319   0.00000  Uiso   1.00
C357   C     0.09258   0.71077   0.48320   0.00000  Uiso   1.00
C358   C     0.11607   0.75016   0.50003   0.00000  Uiso   1.00
C359   C     0.38393   0.75016   0.49997   0.00000  Uiso   1.00
C360   C     0.02406   0.75053   0.49992   0.00000  Uiso   1.00
C361   C     0.47594   0.75053   0.50009   0.00000  Uiso   1.00
C362   C     0.22445   0.60184   0.46569   0.00000  Uiso   1.00
C363   C     0.27962   0.89810   0.52991   0.00000  Uiso   1.00
C364   C     0.27555   0.60184   0.53431   0.00000  Uiso   1.00
C365   C     0.22038   0.89810   0.47009   0.00000  Uiso   1.00
C366   C     0.22483   0.55274   0.46460   0.00000  Uiso   1.00
C367   C     0.28061   0.94719   0.52954   0.00000  Uiso   1.00
C368   C     0.27517   0.55274   0.53540   0.00000  Uiso   1.00
H369   H     0.03039   0.82024   0.53110   0.00000  Uiso   1.00
H370   H     0.30584   0.96395   0.55262   0.00000  Uiso   1.00
H371   H     0.29478   0.53596   0.56456   0.00000  Uiso   1.00
H372   H     0.19416   0.96395   0.44738   0.00000  Uiso   1.00
H373   H     0.47133   0.68079   0.53130   0.00000  Uiso   1.00
H374   H     0.46961   0.82024   0.46890   0.00000  Uiso   1.00
H375   H     0.02867   0.68079   0.46870   0.00000  Uiso   1.00
H376   H     0.11144   0.82032   0.53034   0.00000  Uiso   1.00
H377   H     0.39039   0.68005   0.53016   0.00000  Uiso   1.00
H378   H     0.38857   0.82032   0.46966   0.00000  Uiso   1.00
H379   H     0.10961   0.68005   0.46984   0.00000  Uiso   1.00
H380   H     0.20522   0.53596   0.43544   0.00000  Uiso   1.00
N381   N     0.25000   0.62624   0.50000   0.00000  Uiso   1.00
N382   N     0.25000   0.87377   0.50000   0.00000  Uiso   1.00
O383   O     0.18453   0.78974   0.50000   0.00000  Uiso   1.00
O384   O     0.31547   0.71026   0.50000   0.00000  Uiso   1.00
O385   O     0.31547   0.78974   0.50000   0.00000  Uiso   1.00
O386   O     0.18453   0.71026   0.50000   0.00000  Uiso   1.00
O387   O     0.25000   0.78973   0.42845   0.00000  Uiso   1.00
O388   O     0.25000   0.71027   0.57155   0.00000  Uiso   1.00
O389   O     0.25000   0.78973   0.57155   0.00000  Uiso   1.00
O390   O     0.25000   0.71027   0.42845   0.00000  Uiso   1.00
Zn391  Zn    0.25000   0.80307   0.50000   0.00000  Uiso   1.00
Zn392  Zn    0.25000   0.69693   0.50000   0.00000  Uiso   1.00
Br393  Br    0.68634   0.63251   0.41765   0.00000  Uiso   1.00
Br394  Br    0.82093   0.86716   0.57434   0.00000  Uiso   1.00
Br395  Br    0.81366   0.63251   0.58235   0.00000  Uiso   1.00
Br396  Br    0.67907   0.86716   0.42566   0.00000  Uiso   1.00
C397   C     0.66400   0.75002   0.49999   0.00000  Uiso   1.00
C398   C     0.71939   0.94719   0.47046   0.00000  Uiso   1.00
C399   C     0.74994   0.75000   0.40629   0.00000  Uiso   1.00
C400   C     0.75006   0.75000   0.59371   0.00000  Uiso   1.00
C401   C     0.75000   0.52663   0.50000   0.00000  Uiso   1.00
C402   C     0.75000   0.97329   0.50000   0.00000  Uiso   1.00
C403   C     0.74998   0.75000   0.35515   0.00000  Uiso   1.00
C404   C     0.75002   0.75000   0.64485   0.00000  Uiso   1.00
C405   C     0.54756   0.78983   0.51707   0.00000  Uiso   1.00
C406   C     0.95339   0.71109   0.51725   0.00000  Uiso   1.00
C407   C     0.95244   0.78983   0.48293   0.00000  Uiso   1.00
C408   C     0.83600   0.75002   0.50001   0.00000  Uiso   1.00
C409   C     0.54661   0.71109   0.48276   0.00000  Uiso   1.00
C410   C     0.59355   0.78977   0.51681   0.00000  Uiso   1.00
C411   C     0.90742   0.71077   0.51680   0.00000  Uiso   1.00
C412   C     0.90645   0.78977   0.48319   0.00000  Uiso   1.00
C413   C     0.59258   0.71077   0.48320   0.00000  Uiso   1.00
C414   C     0.61607   0.75016   0.50003   0.00000  Uiso   1.00
C415   C     0.88393   0.75016   0.49997   0.00000  Uiso   1.00
C416   C     0.52406   0.75053   0.49992   0.00000  Uiso   1.00
C417   C     0.97594   0.75053   0.50009   0.00000  Uiso   1.00
C418   C     0.72445   0.60184   0.46569   0.00000  Uiso   1.00
C419   C     0.77962   0.89810   0.52991   0.00000  Uiso   1.00
C420   C     0.77555   0.60184   0.53431   0.00000  Uiso   1.00
C421   C     0.72038   0.89810   0.47009   0.00000  Uiso   1.00
C422   C     0.72483   0.55274   0.46460   0.00000  Uiso   1.00
C423   C     0.78061   0.94719   0.52954   0.00000  Uiso   1.00
C424   C     0.77517   0.55274   0.53540   0.00000  Uiso   1.00
H425   H     0.53039   0.82024   0.53110   0.00000  Uiso   1.00
H426   H     0.80584   0.96395   0.55262   0.00000  Uiso   1.00
H427   H     0.79478   0.53596   0.56456   0.00000  Uiso   1.00
H428   H     0.69416   0.96395   0.44738   0.00000  Uiso   1.00
H429   H     0.97133   0.68079   0.53130   0.00000  Uiso   1.00
H430   H     0.96961   0.82024   0.46890   0.00000  Uiso   1.00
H431   H     0.52867   0.68079   0.46870   0.00000  Uiso   1.00
H432   H     0.61144   0.82032   0.53034   0.00000  Uiso   1.00
H433   H     0.89039   0.68005   0.53016   0.00000  Uiso   1.00
H434   H     0.88857   0.82032   0.46966   0.00000  Uiso   1.00
H435   H     0.60961   0.68005   0.46984   0.00000  Uiso   1.00
H436   H     0.70522   0.53596   0.43544   0.00000  Uiso   1.00
N437   N     0.75000   0.62624   0.50000   0.00000  Uiso   1.00
N438   N     0.75000   0.87377   0.50000   0.00000  Uiso   1.00
O439   O     0.68453   0.78974   0.50000   0.00000  Uiso   1.00
O440   O     0.81547   0.71026   0.50000   0.00000  Uiso   1.00
O441   O     0.81547   0.78974   0.50000   0.00000  Uiso   1.00
O442   O     0.68453   0.71026   0.50000   0.00000  Uiso   1.00
O443   O     0.75000   0.78973   0.42845   0.00000  Uiso   1.00
O444   O     0.75000   0.71027   0.57155   0.00000  Uiso   1.00
O445   O     0.75000   0.78973   0.57155   0.00000  Uiso   1.00
O446   O     0.75000   0.71027   0.42845   0.00000  Uiso   1.00
Zn447  Zn    0.75000   0.80307   0.50000   0.00000  Uiso   1.00
Zn448  Zn    0.75000   0.69693   0.50000   0.00000  Uiso   1.00
Br449  Br    0.18634   0.13251   0.75098   0.00000  Uiso   1.00
Br450  Br    0.32093   0.36716   0.90767   0.00000  Uiso   1.00
Br451  Br    0.31366   0.13251   0.91569   0.00000  Uiso   1.00
Br452  Br    0.17907   0.36716   0.75899   0.00000  Uiso   1.00
C453   C     0.16400   0.25002   0.83332   0.00000  Uiso   1.00
C454   C     0.21939   0.44719   0.80379   0.00000  Uiso   1.00
C455   C     0.24994   0.25000   0.73963   0.00000  Uiso   1.00
C456   C     0.25006   0.25000   0.92704   0.00000  Uiso   1.00
C457   C     0.25000   0.02663   0.83333   0.00000  Uiso   1.00
C458   C     0.25000   0.47329   0.83333   0.00000  Uiso   1.00
C459   C     0.24998   0.25000   0.68848   0.00000  Uiso   1.00
C460   C     0.25002   0.25000   0.97818   0.00000  Uiso   1.00
C461   C     0.04756   0.28983   0.85040   0.00000  Uiso   1.00
C462   C     0.45339   0.21109   0.85058   0.00000  Uiso   1.00
C463   C     0.45244   0.28983   0.81627   0.00000  Uiso   1.00
C464   C     0.33600   0.25002   0.83334   0.00000  Uiso   1.00
C465   C     0.04661   0.21109   0.81609   0.00000  Uiso   1.00
C466   C     0.09355   0.28977   0.85015   0.00000  Uiso   1.00
C467   C     0.40742   0.21077   0.85013   0.00000  Uiso   1.00
C468   C     0.40645   0.28977   0.81652   0.00000  Uiso   1.00
C469   C     0.09258   0.21077   0.81653   0.00000  Uiso   1.00
C470   C     0.11607   0.25016   0.83337   0.00000  Uiso   1.00
C471   C     0.38393   0.25016   0.83330   0.00000  Uiso   1.00
C472   C     0.02406   0.25053   0.83325   0.00000  Uiso   1.00
C473   C     0.47594   0.25053   0.83342   0.00000  Uiso   1.00
C474   C     0.22445   0.10184   0.79903   0.00000  Uiso   1.00
C475   C     0.27962   0.39810   0.86324   0.00000  Uiso   1.00
C476   C     0.27555   0.10184   0.86764   0.00000  Uiso   1.00
C477   C     0.22038   0.39810   0.80343   0.00000  Uiso   1.00
C478   C     0.22483   0.05274   0.79793   0.00000  Uiso   1.00
C479   C     0.28061   0.44719   0.86287   0.00000  Uiso   1.00
C480   C     0.27517   0.05274   0.86874   0.00000  Uiso   1.00
H481   H     0.03039   0.32024   0.86443   0.00000  Uiso   1.00
H482   H     0.30584   0.46395   0.88595   0.00000  Uiso   1.00
H483   H     0.29478   0.03596   0.89789   0.00000  Uiso   1.00
H484   H     0.19416   0.46395   0.78072   0.00000  Uiso   1.00
H485   H     0.47133   0.18079   0.86463   0.00000  Uiso   1.00
H486   H     0.46961   0.32024   0.80224   0.00000  Uiso   1.00
H487   H     0.02867   0.18079   0.80204   0.00000  Uiso   1.00
H488   H     0.11144   0.32032   0.86367   0.00000  Uiso   1.00
H489   H     0.39039   0.18005   0.86349   0.00000  Uiso   1.00
H490   H     0.38857   0.32032   0.80300   0.00000  Uiso   1.00
H491   H     0.10961   0.18005   0.80318   0.00000  Uiso   1.00
H492   H     0.20522   0.03596   0.76877   0.00000  Uiso   1.00
N493   N     0.25000   0.12624   0.83333   0.00000  Uiso   1.00
N494   N     0.25000   0.37377   0.83333   0.00000  Uiso   1.00
O495   O     0.18453   0.28974   0.83334   0.00000  Uiso   1.00
O496   O     0.31547   0.21026   0.83333   0.00000  Uiso   1.00
O497   O     0.31547   0.28974   0.83333   0.00000  Uiso   1.00
O498   O     0.18453   0.21026   0.83334   0.00000  Uiso   1.00
O499   O     0.25000   0.28973   0.76178   0.00000  Uiso   1.00
O500   O     0.25000   0.21027   0.90489   0.00000  Uiso   1.00
O501   O     0.25000   0.28973   0.90489   0.00000  Uiso   1.00
O502   O     0.25000   0.21027   0.76178   0.00000  Uiso   1.00
Zn503  Zn    0.25000   0.30307   0.83333   0.00000  Uiso   1.00
Zn504  Zn    0.25000   0.19693   0.83333   0.00000  Uiso   1.00
Br505  Br    0.68634   0.13251   0.75098   0.00000  Uiso   1.00
Br506  Br    0.82093   0.36716   0.90767   0.00000  Uiso   1.00
Br507  Br    0.81366   0.13251   0.91569   0.00000  Uiso   1.00
Br508  Br    0.67907   0.36716   0.75899   0.00000  Uiso   1.00
C509   C     0.66400   0.25002   0.83332   0.00000  Uiso   1.00
C510   C     0.71939   0.44719   0.80379   0.00000  Uiso   1.00
C511   C     0.74994   0.25000   0.73963   0.00000  Uiso   1.00
C512   C     0.75006   0.25000   0.92704   0.00000  Uiso   1.00
C513   C     0.75000   0.02663   0.83333   0.00000  Uiso   1.00
C514   C     0.75000   0.47329   0.83333   0.00000  Uiso   1.00
C515   C     0.74998   0.25000   0.68848   0.00000  Uiso   1.00
C516   C     0.75002   0.25000   0.97818   0.00000  Uiso   1.00
C517   C     0.54756   0.28983   0.85040   0.00000  Uiso   1.00
C518   C     0.95339   0.21109   0.85058   0.00000  Uiso   1.00
C519   C     0.95244   0.28983   0.81627   0.00000  Uiso   1.00
C520   C     0.83600   0.25002   0.83334   0.00000  Uiso   1.00
C521   C     0.54661   0.21109   0.81609   0.00000  Uiso   1.00
C522   C     0.59355   0.28977   0.85015   0.00000  Uiso   1.00
C523   C     0.90742   0.21077   0.85013   0.00000  Uiso   1.00
C524   C     0.90645   0.28977   0.81652   0.00000  Uiso   1.00
C525   C     0.59258   0.21077   0.81653   0.00000  Uiso   1.00
C526   C     0.61607   0.25016   0.83337   0.00000  Uiso   1.00
C527   C     0.88393   0.25016   0.83330   0.00000  Uiso   1.00
C528   C     0.52406   0.25053   0.83325   0.00000  Uiso   1.00
C529   C     0.97594   0.25053   0.83342   0.00000  Uiso   1.00
C530   C     0.72445   0.10184   0.79903   0.00000  Uiso   1.00
C531   C     0.77962   0.39810   0.86324   0.00000  Uiso   1.00
C532   C     0.77555   0.10184   0.86764   0.00000  Uiso   1.00
C533   C     0.72038   0.39810   0.80343   0.00000  Uiso   1.00
C534   C     0.72483   0.05274   0.79793   0.00000  Uiso   1.00
C535   C     0.78061   0.44719   0.86287   0.00000  Uiso   1.00
C536   C     0.77517   0.05274   0.86874   0.00000  Uiso   1.00
H537   H     0.53039   0.32024   0.86443   0.00000  Uiso   1.00
H538   H     0.80584   0.46395   0.88595   0.00000  Uiso   1.00
H539   H     0.79478   0.03596   0.89789   0.00000  Uiso   1.00
H540   H     0.69416   0.46395   0.78072   0.00000  Uiso   1.00
H541   H     0.97133   0.18079   0.86463   0.00000  Uiso   1.00
H542   H     0.96961   0.32024   0.80224   0.00000  Uiso   1.00
H543   H     0.52867   0.18079   0.80204   0.00000  Uiso   1.00
H544   H     0.61144   0.32032   0.86367   0.00000  Uiso   1.00
H545   H     0.89039   0.18005   0.86349   0.00000  Uiso   1.00
H546   H     0.88857   0.32032   0.80300   0.00000  Uiso   1.00
H547   H     0.60961   0.18005   0.80318   0.00000  Uiso   1.00
H548   H     0.70522   0.03596   0.76877   0.00000  Uiso   1.00
N549   N     0.75000   0.12624   0.83333   0.00000  Uiso   1.00
N550   N     0.75000   0.37377   0.83333   0.00000  Uiso   1.00
O551   O     0.68453   0.28974   0.83334   0.00000  Uiso   1.00
O552   O     0.81547   0.21026   0.83333   0.00000  Uiso   1.00
O553   O     0.81547   0.28974   0.83333   0.00000  Uiso   1.00
O554   O     0.68453   0.21026   0.83334   0.00000  Uiso   1.00
O555   O     0.75000   0.28973   0.76178   0.00000  Uiso   1.00
O556   O     0.75000   0.21027   0.90489   0.00000  Uiso   1.00
O557   O     0.75000   0.28973   0.90489   0.00000  Uiso   1.00
O558   O     0.75000   0.21027   0.76178   0.00000  Uiso   1.00
Zn559  Zn    0.75000   0.30307   0.83333   0.00000  Uiso   1.00
Zn560  Zn    0.75000   0.19693   0.83333   0.00000  Uiso   1.00
Br561  Br    0.18634   0.63251   0.75098   0.00000  Uiso   1.00
Br562  Br    0.32093   0.86716   0.90767   0.00000  Uiso   1.00
Br563  Br    0.31366   0.63251   0.91569   0.00000  Uiso   1.00
Br564  Br    0.17907   0.86716   0.75899   0.00000  Uiso   1.00
C565   C     0.16400   0.75002   0.83332   0.00000  Uiso   1.00
C566   C     0.21939   0.94719   0.80379   0.00000  Uiso   1.00
C567   C     0.24994   0.75000   0.73963   0.00000  Uiso   1.00
C568   C     0.25006   0.75000   0.92704   0.00000  Uiso   1.00
C569   C     0.25000   0.52663   0.83333   0.00000  Uiso   1.00
C570   C     0.25000   0.97329   0.83333   0.00000  Uiso   1.00
C571   C     0.24998   0.75000   0.68848   0.00000  Uiso   1.00
C572   C     0.25002   0.75000   0.97818   0.00000  Uiso   1.00
C573   C     0.04756   0.78983   0.85040   0.00000  Uiso   1.00
C574   C     0.45339   0.71109   0.85058   0.00000  Uiso   1.00
C575   C     0.45244   0.78983   0.81627   0.00000  Uiso   1.00
C576   C     0.33600   0.75002   0.83334   0.00000  Uiso   1.00
C577   C     0.04661   0.71109   0.81609   0.00000  Uiso   1.00
C578   C     0.09355   0.78977   0.85015   0.00000  Uiso   1.00
C579   C     0.40742   0.71077   0.85013   0.00000  Uiso   1.00
C580   C     0.40645   0.78977   0.81652   0.00000  Uiso   1.00
C581   C     0.09258   0.71077   0.81653   0.00000  Uiso   1.00
C582   C     0.11607   0.75016   0.83337   0.00000  Uiso   1.00
C583   C     0.38393   0.75016   0.83330   0.00000  Uiso   1.00
C584   C     0.02406   0.75053   0.83325   0.00000  Uiso   1.00
C585   C     0.47594   0.75053   0.83342   0.00000  Uiso   1.00
C586   C     0.22445   0.60184   0.79903   0.00000  Uiso   1.00
C587   C     0.27962   0.89810   0.86324   0.00000  Uiso   1.00
C588   C     0.27555   0.60184   0.86764   0.00000  Uiso   1.00
C589   C     0.22038   0.89810   0.80343   0.00000  Uiso   1.00
C590   C     0.22483   0.55274   0.79793   0.00000  Uiso   1.00
C591   C     0.28061   0.94719   0.86287   0.00000  Uiso   1.00
C592   C     0.27517   0.55274   0.86874   0.00000  Uiso   1.00
H593   H     0.03039   0.82024   0.86443   0.00000  Uiso   1.00
H594   H     0.30584   0.96395   0.88595   0.00000  Uiso   1.00
H595   H     0.29478   0.53596   0.89789   0.00000  Uiso   1.00
H596   H     0.19416   0.96395   0.78072   0.00000  Uiso   1.00
H597   H     0.47133   0.68079   0.86463   0.00000  Uiso   1.00
H598   H     0.46961   0.82024   0.80224   0.00000  Uiso   1.00
H599   H     0.02867   0.68079   0.80204   0.00000  Uiso   1.00
H600   H     0.11144   0.82032   0.86367   0.00000  Uiso   1.00
H601   H     0.39039   0.68005   0.86349   0.00000  Uiso   1.00
H602   H     0.38857   0.82032   0.80300   0.00000  Uiso   1.00
H603   H     0.10961   0.68005   0.80318   0.00000  Uiso   1.00
H604   H     0.20522   0.53596   0.76877   0.00000  Uiso   1.00
N605   N     0.25000   0.62624   0.83333   0.00000  Uiso   1.00
N606   N     0.25000   0.87377   0.83333   0.00000  Uiso   1.00
O607   O     0.18453   0.78974   0.83334   0.00000  Uiso   1.00
O608   O     0.31547   0.71026   0.83333   0.00000  Uiso   1.00
O609   O     0.31547   0.78974   0.83333   0.00000  Uiso   1.00
O610   O     0.18453   0.71026   0.83334   0.00000  Uiso   1.00
O611   O     0.25000   0.78973   0.76178   0.00000  Uiso   1.00
O612   O     0.25000   0.71027   0.90489   0.00000  Uiso   1.00
O613   O     0.25000   0.78973   0.90489   0.00000  Uiso   1.00
O614   O     0.25000   0.71027   0.76178   0.00000  Uiso   1.00
Zn615  Zn    0.25000   0.80307   0.83333   0.00000  Uiso   1.00
Zn616  Zn    0.25000   0.69693   0.83333   0.00000  Uiso   1.00
Br617  Br    0.68634   0.63251   0.75098   0.00000  Uiso   1.00
Br618  Br    0.82093   0.86716   0.90767   0.00000  Uiso   1.00
Br619  Br    0.81366   0.63251   0.91569   0.00000  Uiso   1.00
Br620  Br    0.67907   0.86716   0.75899   0.00000  Uiso   1.00
C621   C     0.66400   0.75002   0.83332   0.00000  Uiso   1.00
C622   C     0.71939   0.94719   0.80379   0.00000  Uiso   1.00
C623   C     0.74994   0.75000   0.73963   0.00000  Uiso   1.00
C624   C     0.75006   0.75000   0.92704   0.00000  Uiso   1.00
C625   C     0.75000   0.52663   0.83333   0.00000  Uiso   1.00
C626   C     0.75000   0.97329   0.83333   0.00000  Uiso   1.00
C627   C     0.74998   0.75000   0.68848   0.00000  Uiso   1.00
C628   C     0.75002   0.75000   0.97818   0.00000  Uiso   1.00
C629   C     0.54756   0.78983   0.85040   0.00000  Uiso   1.00
C630   C     0.95339   0.71109   0.85058   0.00000  Uiso   1.00
C631   C     0.95244   0.78983   0.81627   0.00000  Uiso   1.00
C632   C     0.83600   0.75002   0.83334   0.00000  Uiso   1.00
C633   C     0.54661   0.71109   0.81609   0.00000  Uiso   1.00
C634   C     0.59355   0.78977   0.85015   0.00000  Uiso   1.00
C635   C     0.90742   0.71077   0.85013   0.00000  Uiso   1.00
C636   C     0.90645   0.78977   0.81652   0.00000  Uiso   1.00
C637   C     0.59258   0.71077   0.81653   0.00000  Uiso   1.00
C638   C     0.61607   0.75016   0.83337   0.00000  Uiso   1.00
C639   C     0.88393   0.75016   0.83330   0.00000  Uiso   1.00
C640   C     0.52406   0.75053   0.83325   0.00000  Uiso   1.00
C641   C     0.97594   0.75053   0.83342   0.00000  Uiso   1.00
C642   C     0.72445   0.60184   0.79903   0.00000  Uiso   1.00
C643   C     0.77962   0.89810   0.86324   0.00000  Uiso   1.00
C644   C     0.77555   0.60184   0.86764   0.00000  Uiso   1.00
C645   C     0.72038   0.89810   0.80343   0.00000  Uiso   1.00
C646   C     0.72483   0.55274   0.79793   0.00000  Uiso   1.00
C647   C     0.78061   0.94719   0.86287   0.00000  Uiso   1.00
C648   C     0.77517   0.55274   0.86874   0.00000  Uiso   1.00
H649   H     0.53039   0.82024   0.86443   0.00000  Uiso   1.00
H650   H     0.80584   0.96395   0.88595   0.00000  Uiso   1.00
H651   H     0.79478   0.53596   0.89789   0.00000  Uiso   1.00
H652   H     0.69416   0.96395   0.78072   0.00000  Uiso   1.00
H653   H     0.97133   0.68079   0.86463   0.00000  Uiso   1.00
H654   H     0.96961   0.82024   0.80224   0.00000  Uiso   1.00
H655   H     0.52867   0.68079   0.80204   0.00000  Uiso   1.00
H656   H     0.61144   0.82032   0.86367   0.00000  Uiso   1.00
H657   H     0.89039   0.68005   0.86349   0.00000  Uiso   1.00
H658   H     0.88857   0.82032   0.80300   0.00000  Uiso   1.00
H659   H     0.60961   0.68005   0.80318   0.00000  Uiso   1.00
H660   H     0.70522   0.53596   0.76877   0.00000  Uiso   1.00
N661   N     0.75000   0.62624   0.83333   0.00000  Uiso   1.00
N662   N     0.75000   0.87377   0.83333   0.00000  Uiso   1.00
O663   O     0.68453   0.78974   0.83334   0.00000  Uiso   1.00
O664   O     0.81547   0.71026   0.83333   0.00000  Uiso   1.00
O665   O     0.81547   0.78974   0.83333   0.00000  Uiso   1.00
O666   O     0.68453   0.71026   0.83334   0.00000  Uiso   1.00
O667   O     0.75000   0.78973   0.76178   0.00000  Uiso   1.00
O668   O     0.75000   0.71027   0.90489   0.00000  Uiso   1.00
O669   O     0.75000   0.78973   0.90489   0.00000  Uiso   1.00
O670   O     0.75000   0.71027   0.76178   0.00000  Uiso   1.00
Zn671  Zn    0.75000   0.80307   0.83333   0.00000  Uiso   1.00
Zn672  Zn    0.75000   0.69693   0.83333   0.00000  Uiso   1.00
loop_
_geom_bond_atom_site_label_1
_geom_bond_atom_site_label_2
_geom_bond_distance
_geom_bond_site_symmetry_2
_ccdc_geom_bond_type
Br1    C26     1.912   .     S
Br2    C27     1.913   .     S
Br3    C28     1.912   .     S
Br4    C29     1.913   .     S
C5     O47     1.293   .     A
C5     O50     1.294   .     A
C5     C22     1.439   .     S
C6     C10     1.411   .     A
C6     H36     1.078   .     S
C6     C29     1.406   .     A
C7     O54     1.282   .     A
C7     O51     1.282   .     A
C7     C11     1.366   .     S
C8     O52     1.282   .     A
C8     C12     1.366   .     S
C8     O53     1.282   .     A
C9     C30     1.410   .     A
C9     C32     1.410   .     A
C9     C122    1.527   1_545 S
C10    C31     1.411   .     A
C10    C121    1.527   .     S
C11    C460    1.165   1_554 S
C12    C235    1.165   .     S
C13    H33     1.083   .     S
C13    C18     1.381   .     A
C13    C24     1.399   .     A
C14    H37     1.083   .     S
C14    C25     1.399   .     A
C14    C19     1.380   .     A
C15    H38     1.083   .     S
C15    C20     1.381   .     A
C15    C25     1.399   .     A
C16    O48     1.294   .     A
C16    C23     1.439   .     S
C16    O49     1.293   .     A
C17    C24     1.399   .     A
C17    H39     1.083   .     S
C17    C21     1.380   .     A
C18    C22     1.400   .     A
C18    H40     1.084   .     S
C19    C23     1.399   .     A
C19    H41     1.082   .     S
C20    H42     1.084   .     S
C20    C23     1.400   .     A
C21    C22     1.399   .     A
C21    H43     1.082   .     S
C24    C81     1.445   1_455 S
C25    C80     1.445   .     S
C26    C30     1.406   .     A
C26    N45     1.372   .     A
C27    N46     1.371   .     A
C27    C31     1.406   .     A
C28    N45     1.372   .     A
C28    C32     1.406   .     A
C29    N46     1.371   .     A
C30    H44     1.078   .     S
C31    H34     1.078   .     S
C32    H35     1.078   .     S
N45    Zn56    2.024   .     S
N46    Zn55    2.024   .     S
O47    Zn55    2.002   .     S
O48    Zn56    2.002   .     S
O49    Zn55    2.002   .     S
O50    Zn56    2.002   .     S
O51    Zn55    1.949   .     S
O52    Zn56    1.949   .     S
O53    Zn55    1.949   .     S
O54    Zn56    1.949   .     S
Br57   C82     1.912   .     S
Br58   C83     1.913   .     S
Br59   C84     1.912   .     S
Br60   C85     1.913   .     S
C61    O103    1.293   .     A
C61    O106    1.294   .     A
C61    C78     1.439   .     S
C62    C66     1.411   .     A
C62    H92     1.078   .     S
C62    C85     1.406   .     A
C63    O110    1.282   .     A
C63    O107    1.282   .     A
C63    C67     1.366   .     S
C64    O108    1.282   .     A
C64    C68     1.366   .     S
C64    O109    1.282   .     A
C65    C86     1.410   .     A
C65    C88     1.410   .     A
C65    C178    1.527   1_545 S
C66    C87     1.411   .     A
C66    C177    1.527   .     S
C67    C516    1.165   1_554 S
C68    C291    1.165   .     S
C69    H89     1.083   .     S
C69    C74     1.381   .     A
C69    C80     1.399   .     A
C70    H93     1.083   .     S
C70    C81     1.399   .     A
C70    C75     1.380   .     A
C71    H94     1.083   .     S
C71    C76     1.381   .     A
C71    C81     1.399   .     A
C72    O104    1.294   .     A
C72    C79     1.439   .     S
C72    O105    1.293   .     A
C73    C80     1.399   .     A
C73    H95     1.083   .     S
C73    C77     1.380   .     A
C74    C78     1.400   .     A
C74    H96     1.084   .     S
C75    C79     1.399   .     A
C75    H97     1.082   .     S
C76    H98     1.084   .     S
C76    C79     1.400   .     A
C77    C78     1.399   .     A
C77    H99     1.082   .     S
C81    C24     1.445   1_655 S
C82    C86     1.406   .     A
C82    N101    1.372   .     A
C83    N102    1.371   .     A
C83    C87     1.406   .     A
C84    N101    1.372   .     A
C84    C88     1.406   .     A
C85    N102    1.371   .     A
C86    H100    1.078   .     S
C87    H90     1.078   .     S
C88    H91     1.078   .     S
N101   Zn112   2.024   .     S
N102   Zn111   2.024   .     S
O103   Zn111   2.002   .     S
O104   Zn112   2.002   .     S
O105   Zn111   2.002   .     S
O106   Zn112   2.002   .     S
O107   Zn111   1.949   .     S
O108   Zn112   1.949   .     S
O109   Zn111   1.949   .     S
O110   Zn112   1.949   .     S
Br113  C138    1.912   .     S
Br114  C139    1.913   .     S
Br115  C140    1.912   .     S
Br116  C141    1.913   .     S
C117   O159    1.293   .     A
C117   O162    1.294   .     A
C117   C134    1.439   .     S
C118   C122    1.411   .     A
C118   H148    1.078   .     S
C118   C141    1.406   .     A
C119   O166    1.282   .     A
C119   O163    1.282   .     A
C119   C123    1.366   .     S
C120   O164    1.282   .     A
C120   C124    1.366   .     S
C120   O165    1.282   .     A
C121   C142    1.410   .     A
C121   C144    1.410   .     A
C122   C143    1.411   .     A
C122   C9      1.527   1_565 S
C123   C572    1.165   1_554 S
C124   C347    1.165   .     S
C125   H145    1.083   .     S
C125   C130    1.381   .     A
C125   C136    1.399   .     A
C126   H149    1.083   .     S
C126   C137    1.399   .     A
C126   C131    1.380   .     A
C127   H150    1.083   .     S
C127   C132    1.381   .     A
C127   C137    1.399   .     A
C128   O160    1.294   .     A
C128   C135    1.439   .     S
C128   O161    1.293   .     A
C129   C136    1.399   .     A
C129   H151    1.083   .     S
C129   C133    1.380   .     A
C130   C134    1.400   .     A
C130   H152    1.084   .     S
C131   C135    1.399   .     A
C131   H153    1.082   .     S
C132   H154    1.084   .     S
C132   C135    1.400   .     A
C133   C134    1.399   .     A
C133   H155    1.082   .     S
C136   C193    1.445   1_455 S
C137   C192    1.445   .     S
C138   C142    1.406   .     A
C138   N157    1.372   .     A
C139   N158    1.371   .     A
C139   C143    1.406   .     A
C140   N157    1.372   .     A
C140   C144    1.406   .     A
C141   N158    1.371   .     A
C142   H156    1.078   .     S
C143   H146    1.078   .     S
C144   H147    1.078   .     S
N157   Zn168   2.024   .     S
N158   Zn167   2.024   .     S
O159   Zn167   2.002   .     S
O160   Zn168   2.002   .     S
O161   Zn167   2.002   .     S
O162   Zn168   2.002   .     S
O163   Zn167   1.949   .     S
O164   Zn168   1.949   .     S
O165   Zn167   1.949   .     S
O166   Zn168   1.949   .     S
Br169  C194    1.912   .     S
Br170  C195    1.913   .     S
Br171  C196    1.912   .     S
Br172  C197    1.913   .     S
C173   O215    1.293   .     A
C173   O218    1.294   .     A
C173   C190    1.439   .     S
C174   C178    1.411   .     A
C174   H204    1.078   .     S
C174   C197    1.406   .     A
C175   O222    1.282   .     A
C175   O219    1.282   .     A
C175   C179    1.366   .     S
C176   O220    1.282   .     A
C176   C180    1.366   .     S
C176   O221    1.282   .     A
C177   C198    1.410   .     A
C177   C200    1.410   .     A
C178   C199    1.411   .     A
C178   C65     1.527   1_565 S
C179   C628    1.165   1_554 S
C180   C403    1.165   .     S
C181   H201    1.083   .     S
C181   C186    1.381   .     A
C181   C192    1.399   .     A
C182   H205    1.083   .     S
C182   C193    1.399   .     A
C182   C187    1.380   .     A
C183   H206    1.083   .     S
C183   C188    1.381   .     A
C183   C193    1.399   .     A
C184   O216    1.294   .     A
C184   C191    1.439   .     S
C184   O217    1.293   .     A
C185   C192    1.399   .     A
C185   H207    1.083   .     S
C185   C189    1.380   .     A
C186   C190    1.400   .     A
C186   H208    1.084   .     S
C187   C191    1.399   .     A
C187   H209    1.082   .     S
C188   H210    1.084   .     S
C188   C191    1.400   .     A
C189   C190    1.399   .     A
C189   H211    1.082   .     S
C193   C136    1.445   1_655 S
C194   C198    1.406   .     A
C194   N213    1.372   .     A
C195   N214    1.371   .     A
C195   C199    1.406   .     A
C196   N213    1.372   .     A
C196   C200    1.406   .     A
C197   N214    1.371   .     A
C198   H212    1.078   .     S
C199   H202    1.078   .     S
C200   H203    1.078   .     S
N213   Zn224   2.024   .     S
N214   Zn223   2.024   .     S
O215   Zn223   2.002   .     S
O216   Zn224   2.002   .     S
O217   Zn223   2.002   .     S
O218   Zn224   2.002   .     S
O219   Zn223   1.949   .     S
O220   Zn224   1.949   .     S
O221   Zn223   1.949   .     S
O222   Zn224   1.949   .     S
Br225  C250    1.912   .     S
Br226  C251    1.913   .     S
Br227  C252    1.912   .     S
Br228  C253    1.913   .     S
C229   O271    1.293   .     A
C229   O274    1.294   .     A
C229   C246    1.439   .     S
C230   C234    1.411   .     A
C230   H260    1.078   .     S
C230   C253    1.406   .     A
C231   O278    1.282   .     A
C231   O275    1.282   .     A
C231   C235    1.366   .     S
C232   O276    1.282   .     A
C232   C236    1.366   .     S
C232   O277    1.282   .     A
C233   C254    1.410   .     A
C233   C256    1.410   .     A
C233   C346    1.527   1_545 S
C234   C255    1.411   .     A
C234   C345    1.527   .     S
C236   C459    1.165   .     S
C237   H257    1.083   .     S
C237   C242    1.381   .     A
C237   C248    1.399   .     A
C238   H261    1.083   .     S
C238   C249    1.399   .     A
C238   C243    1.380   .     A
C239   H262    1.083   .     S
C239   C244    1.381   .     A
C239   C249    1.399   .     A
C240   O272    1.294   .     A
C240   C247    1.439   .     S
C240   O273    1.293   .     A
C241   C248    1.399   .     A
C241   H263    1.083   .     S
C241   C245    1.380   .     A
C242   C246    1.400   .     A
C242   H264    1.084   .     S
C243   C247    1.399   .     A
C243   H265    1.082   .     S
C244   H266    1.084   .     S
C244   C247    1.400   .     A
C245   C246    1.399   .     A
C245   H267    1.082   .     S
C248   C305    1.445   1_455 S
C249   C304    1.445   .     S
C250   C254    1.406   .     A
C250   N269    1.372   .     A
C251   N270    1.371   .     A
C251   C255    1.406   .     A
C252   N269    1.372   .     A
C252   C256    1.406   .     A
C253   N270    1.371   .     A
C254   H268    1.078   .     S
C255   H258    1.078   .     S
C256   H259    1.078   .     S
N269   Zn280   2.024   .     S
N270   Zn279   2.024   .     S
O271   Zn279   2.002   .     S
O272   Zn280   2.002   .     S
O273   Zn279   2.002   .     S
O274   Zn280   2.002   .     S
O275   Zn279   1.949   .     S
O276   Zn280   1.949   .     S
O277   Zn279   1.949   .     S
O278   Zn280   1.949   .     S
Br281  C306    1.912   .     S
Br282  C307    1.913   .     S
Br283  C308    1.912   .     S
Br284  C309    1.913   .     S
C285   O327    1.293   .     A
C285   O330    1.294   .     A
C285   C302    1.439   .     S
C286   C290    1.411   .     A
C286   H316    1.078   .     S
C286   C309    1.406   .     A
C287   O334    1.282   .     A
C287   O331    1.282   .     A
C287   C291    1.366   .     S
C288   O332    1.282   .     A
C288   C292    1.366   .     S
C288   O333    1.282   .     A
C289   C310    1.410   .     A
C289   C312    1.410   .     A
C289   C402    1.527   1_545 S
C290   C311    1.411   .     A
C290   C401    1.527   .     S
C292   C515    1.165   .     S
C293   H313    1.083   .     S
C293   C298    1.381   .     A
C293   C304    1.399   .     A
C294   H317    1.083   .     S
C294   C305    1.399   .     A
C294   C299    1.380   .     A
C295   H318    1.083   .     S
C295   C300    1.381   .     A
C295   C305    1.399   .     A
C296   O328    1.294   .     A
C296   C303    1.439   .     S
C296   O329    1.293   .     A
C297   C304    1.399   .     A
C297   H319    1.083   .     S
C297   C301    1.380   .     A
C298   C302    1.400   .     A
C298   H320    1.084   .     S
C299   C303    1.399   .     A
C299   H321    1.082   .     S
C300   H322    1.084   .     S
C300   C303    1.400   .     A
C301   C302    1.399   .     A
C301   H323    1.082   .     S
C305   C248    1.445   1_655 S
C306   C310    1.406   .     A
C306   N325    1.372   .     A
C307   N326    1.371   .     A
C307   C311    1.406   .     A
C308   N325    1.372   .     A
C308   C312    1.406   .     A
C309   N326    1.371   .     A
C310   H324    1.078   .     S
C311   H314    1.078   .     S
C312   H315    1.078   .     S
N325   Zn336   2.024   .     S
N326   Zn335   2.024   .     S
O327   Zn335   2.002   .     S
O328   Zn336   2.002   .     S
O329   Zn335   2.002   .     S
O330   Zn336   2.002   .     S
O331   Zn335   1.949   .     S
O332   Zn336   1.949   .     S
O333   Zn335   1.949   .     S
O334   Zn336   1.949   .     S
Br337  C362    1.912   .     S
Br338  C363    1.913   .     S
Br339  C364    1.912   .     S
Br340  C365    1.913   .     S
C341   O383    1.293   .     A
C341   O386    1.294   .     A
C341   C358    1.439   .     S
C342   C346    1.411   .     A
C342   H372    1.078   .     S
C342   C365    1.406   .     A
C343   O390    1.282   .     A
C343   O387    1.282   .     A
C343   C347    1.366   .     S
C344   O388    1.282   .     A
C344   C348    1.366   .     S
C344   O389    1.282   .     A
C345   C366    1.410   .     A
C345   C368    1.410   .     A
C346   C367    1.411   .     A
C346   C233    1.527   1_565 S
C348   C571    1.165   .     S
C349   H369    1.083   .     S
C349   C354    1.381   .     A
C349   C360    1.399   .     A
C350   H373    1.083   .     S
C350   C361    1.399   .     A
C350   C355    1.380   .     A
C351   H374    1.083   .     S
C351   C356    1.381   .     A
C351   C361    1.399   .     A
C352   O384    1.294   .     A
C352   C359    1.439   .     S
C352   O385    1.293   .     A
C353   C360    1.399   .     A
C353   H375    1.083   .     S
C353   C357    1.380   .     A
C354   C358    1.400   .     A
C354   H376    1.084   .     S
C355   C359    1.399   .     A
C355   H377    1.082   .     S
C356   H378    1.084   .     S
C356   C359    1.400   .     A
C357   C358    1.399   .     A
C357   H379    1.082   .     S
C360   C417    1.445   1_455 S
C361   C416    1.445   .     S
C362   C366    1.406   .     A
C362   N381    1.372   .     A
C363   N382    1.371   .     A
C363   C367    1.406   .     A
C364   N381    1.372   .     A
C364   C368    1.406   .     A
C365   N382    1.371   .     A
C366   H380    1.078   .     S
C367   H370    1.078   .     S
C368   H371    1.078   .     S
N381   Zn392   2.024   .     S
N382   Zn391   2.024   .     S
O383   Zn391   2.002   .     S
O384   Zn392   2.002   .     S
O385   Zn391   2.002   .     S
O386   Zn392   2.002   .     S
O387   Zn391   1.949   .     S
O388   Zn392   1.949   .     S
O389   Zn391   1.949   .     S
O390   Zn392   1.949   .     S
Br393  C418    1.912   .     S
Br394  C419    1.913   .     S
Br395  C420    1.912   .     S
Br396  C421    1.913   .     S
C397   O439    1.293   .     A
C397   O442    1.294   .     A
C397   C414    1.439   .     S
C398   C402    1.411   .     A
C398   H428    1.078   .     S
C398   C421    1.406   .     A
C399   O446    1.282   .     A
C399   O443    1.282   .     A
C399   C403    1.366   .     S
C400   O444    1.282   .     A
C400   C404    1.366   .     S
C400   O445    1.282   .     A
C401   C422    1.410   .     A
C401   C424    1.410   .     A
C402   C423    1.411   .     A
C402   C289    1.527   1_565 S
C404   C627    1.165   .     S
C405   H425    1.083   .     S
C405   C410    1.381   .     A
C405   C416    1.399   .     A
C406   H429    1.083   .     S
C406   C417    1.399   .     A
C406   C411    1.380   .     A
C407   H430    1.083   .     S
C407   C412    1.381   .     A
C407   C417    1.399   .     A
C408   O440    1.294   .     A
C408   C415    1.439   .     S
C408   O441    1.293   .     A
C409   C416    1.399   .     A
C409   H431    1.083   .     S
C409   C413    1.380   .     A
C410   C414    1.400   .     A
C410   H432    1.084   .     S
C411   C415    1.399   .     A
C411   H433    1.082   .     S
C412   H434    1.084   .     S
C412   C415    1.400   .     A
C413   C414    1.399   .     A
C413   H435    1.082   .     S
C417   C360    1.445   1_655 S
C418   C422    1.406   .     A
C418   N437    1.372   .     A
C419   N438    1.371   .     A
C419   C423    1.406   .     A
C420   N437    1.372   .     A
C420   C424    1.406   .     A
C421   N438    1.371   .     A
C422   H436    1.078   .     S
C423   H426    1.078   .     S
C424   H427    1.078   .     S
N437   Zn448   2.024   .     S
N438   Zn447   2.024   .     S
O439   Zn447   2.002   .     S
O440   Zn448   2.002   .     S
O441   Zn447   2.002   .     S
O442   Zn448   2.002   .     S
O443   Zn447   1.949   .     S
O444   Zn448   1.949   .     S
O445   Zn447   1.949   .     S
O446   Zn448   1.949   .     S
Br449  C474    1.912   .     S
Br450  C475    1.913   .     S
Br451  C476    1.912   .     S
Br452  C477    1.913   .     S
C453   O495    1.293   .     A
C453   O498    1.294   .     A
C453   C470    1.439   .     S
C454   C458    1.411   .     A
C454   H484    1.078   .     S
C454   C477    1.406   .     A
C455   O502    1.282   .     A
C455   O499    1.282   .     A
C455   C459    1.366   .     S
C456   O500    1.282   .     A
C456   C460    1.366   .     S
C456   O501    1.282   .     A
C457   C478    1.410   .     A
C457   C480    1.410   .     A
C457   C570    1.527   1_545 S
C458   C479    1.411   .     A
C458   C569    1.527   .     S
C460   C11     1.165   1_556 S
C461   H481    1.083   .     S
C461   C466    1.381   .     A
C461   C472    1.399   .     A
C462   H485    1.083   .     S
C462   C473    1.399   .     A
C462   C467    1.380   .     A
C463   H486    1.083   .     S
C463   C468    1.381   .     A
C463   C473    1.399   .     A
C464   O496    1.294   .     A
C464   C471    1.439   .     S
C464   O497    1.293   .     A
C465   C472    1.399   .     A
C465   H487    1.083   .     S
C465   C469    1.380   .     A
C466   C470    1.400   .     A
C466   H488    1.084   .     S
C467   C471    1.399   .     A
C467   H489    1.082   .     S
C468   H490    1.084   .     S
C468   C471    1.400   .     A
C469   C470    1.399   .     A
C469   H491    1.082   .     S
C472   C529    1.445   1_455 S
C473   C528    1.445   .     S
C474   C478    1.406   .     A
C474   N493    1.372   .     A
C475   N494    1.371   .     A
C475   C479    1.406   .     A
C476   N493    1.372   .     A
C476   C480    1.406   .     A
C477   N494    1.371   .     A
C478   H492    1.078   .     S
C479   H482    1.078   .     S
C480   H483    1.078   .     S
N493   Zn504   2.024   .     S
N494   Zn503   2.024   .     S
O495   Zn503   2.002   .     S
O496   Zn504   2.002   .     S
O497   Zn503   2.002   .     S
O498   Zn504   2.002   .     S
O499   Zn503   1.949   .     S
O500   Zn504   1.949   .     S
O501   Zn503   1.949   .     S
O502   Zn504   1.949   .     S
Br505  C530    1.912   .     S
Br506  C531    1.913   .     S
Br507  C532    1.912   .     S
Br508  C533    1.913   .     S
C509   O551    1.293   .     A
C509   O554    1.294   .     A
C509   C526    1.439   .     S
C510   C514    1.411   .     A
C510   H540    1.078   .     S
C510   C533    1.406   .     A
C511   O558    1.282   .     A
C511   O555    1.282   .     A
C511   C515    1.366   .     S
C512   O556    1.282   .     A
C512   C516    1.366   .     S
C512   O557    1.282   .     A
C513   C534    1.410   .     A
C513   C536    1.410   .     A
C513   C626    1.527   1_545 S
C514   C535    1.411   .     A
C514   C625    1.527   .     S
C516   C67     1.165   1_556 S
C517   H537    1.083   .     S
C517   C522    1.381   .     A
C517   C528    1.399   .     A
C518   H541    1.083   .     S
C518   C529    1.399   .     A
C518   C523    1.380   .     A
C519   H542    1.083   .     S
C519   C524    1.381   .     A
C519   C529    1.399   .     A
C520   O552    1.294   .     A
C520   C527    1.439   .     S
C520   O553    1.293   .     A
C521   C528    1.399   .     A
C521   H543    1.083   .     S
C521   C525    1.380   .     A
C522   C526    1.400   .     A
C522   H544    1.084   .     S
C523   C527    1.399   .     A
C523   H545    1.082   .     S
C524   H546    1.084   .     S
C524   C527    1.400   .     A
C525   C526    1.399   .     A
C525   H547    1.082   .     S
C529   C472    1.445   1_655 S
C530   C534    1.406   .     A
C530   N549    1.372   .     A
C531   N550    1.371   .     A
C531   C535    1.406   .     A
C532   N549    1.372   .     A
C532   C536    1.406   .     A
C533   N550    1.371   .     A
C534   H548    1.078   .     S
C535   H538    1.078   .     S
C536   H539    1.078   .     S
N549   Zn560   2.024   .     S
N550   Zn559   2.024   .     S
O551   Zn559   2.002   .     S
O552   Zn560   2.002   .     S
O553   Zn559   2.002   .     S
O554   Zn560   2.002   .     S
O555   Zn559   1.949   .     S
O556   Zn560   1.949   .     S
O557   Zn559   1.949   .     S
O558   Zn560   1.949   .     S
Br561  C586    1.912   .     S
Br562  C587    1.913   .     S
Br563  C588    1.912   .     S
Br564  C589    1.913   .     S
C565   O607    1.293   .     A
C565   O610    1.294   .     A
C565   C582    1.439   .     S
C566   C570    1.411   .     A
C566   H596    1.078   .     S
C566   C589    1.406   .     A
C567   O614    1.282   .     A
C567   O611    1.282   .     A
C567   C571    1.366   .     S
C568   O612    1.282   .     A
C568   C572    1.366   .     S
C568   O613    1.282   .     A
C569   C590    1.410   .     A
C569   C592    1.410   .     A
C570   C591    1.411   .     A
C570   C457    1.527   1_565 S
C572   C123    1.165   1_556 S
C573   H593    1.083   .     S
C573   C578    1.381   .     A
C573   C584    1.399   .     A
C574   H597    1.083   .     S
C574   C585    1.399   .     A
C574   C579    1.380   .     A
C575   H598    1.083   .     S
C575   C580    1.381   .     A
C575   C585    1.399   .     A
C576   O608    1.294   .     A
C576   C583    1.439   .     S
C576   O609    1.293   .     A
C577   C584    1.399   .     A
C577   H599    1.083   .     S
C577   C581    1.380   .     A
C578   C582    1.400   .     A
C578   H600    1.084   .     S
C579   C583    1.399   .     A
C579   H601    1.082   .     S
C580   H602    1.084   .     S
C580   C583    1.400   .     A
C581   C582    1.399   .     A
C581   H603    1.082   .     S
C584   C641    1.445   1_455 S
C585   C640    1.445   .     S
C586   C590    1.406   .     A
C586   N605    1.372   .     A
C587   N606    1.371   .     A
C587   C591    1.406   .     A
C588   N605    1.372   .     A
C588   C592    1.406   .     A
C589   N606    1.371   .     A
C590   H604    1.078   .     S
C591   H594    1.078   .     S
C592   H595    1.078   .     S
N605   Zn616   2.024   .     S
N606   Zn615   2.024   .     S
O607   Zn615   2.002   .     S
O608   Zn616   2.002   .     S
O609   Zn615   2.002   .     S
O610   Zn616   2.002   .     S
O611   Zn615   1.949   .     S
O612   Zn616   1.949   .     S
O613   Zn615   1.949   .     S
O614   Zn616   1.949   .     S
Br617  C642    1.912   .     S
Br618  C643    1.913   .     S
Br619  C644    1.912   .     S
Br620  C645    1.913   .     S
C621   O663    1.293   .     A
C621   O666    1.294   .     A
C621   C638    1.439   .     S
C622   C626    1.411   .     A
C622   H652    1.078   .     S
C622   C645    1.406   .     A
C623   O670    1.282   .     A
C623   O667    1.282   .     A
C623   C627    1.366   .     S
C624   O668    1.282   .     A
C624   C628    1.366   .     S
C624   O669    1.282   .     A
C625   C646    1.410   .     A
C625   C648    1.410   .     A
C626   C647    1.411   .     A
C626   C513    1.527   1_565 S
C628   C179    1.165   1_556 S
C629   H649    1.083   .     S
C629   C634    1.381   .     A
C629   C640    1.399   .     A
C630   H653    1.083   .     S
C630   C641    1.399   .     A
C630   C635    1.380   .     A
C631   H654    1.083   .     S
C631   C636    1.381   .     A
C631   C641    1.399   .     A
C632   O664    1.294   .     A
C632   C639    1.439   .     S
C632   O665    1.293   .     A
C633   C640    1.399   .     A
C633   H655    1.083   .     S
C633   C637    1.380   .     A
C634   C638    1.400   .     A
C634   H656    1.084   .     S
C635   C639    1.399   .     A
C635   H657    1.082   .     S
C636   H658    1.084   .     S
C636   C639    1.400   .     A
C637   C638    1.399   .     A
C637   H659    1.082   .     S
C641   C584    1.445   1_655 S
C642   C646    1.406   .     A
C642   N661    1.372   .     A
C643   N662    1.371   .     A
C643   C647    1.406   .     A
C644   N661    1.372   .     A
C644   C648    1.406   .     A
C645   N662    1.371   .     A
C646   H660    1.078   .     S
C647   H650    1.078   .     S
C648   H651    1.078   .     S
N661   Zn672   2.024   .     S
N662   Zn671   2.024   .     S
O663   Zn671   2.002   .     S
O664   Zn672   2.002   .     S
O665   Zn671   2.002   .     S
O666   Zn672   2.002   .     S
O667   Zn671   1.949   .     S
O668   Zn672   1.949   .     S
O669   Zn671   1.949   .     S
O670   Zn672   1.949   .     S
