data_str_m2_o1_o17_pcu_sym.58
_audit_creation_date              2020-01-03
_audit_creation_method            'Materials Studio'
_symmetry_space_group_name_H-M    'P1'
_symmetry_Int_Tables_number       1
_symmetry_cell_setting            triclinic
loop_
_symmetry_equiv_pos_as_xyz
  x,y,z
_cell_length_a                    32.4779
_cell_length_b                    28.4703
_cell_length_c                    30.2300
_cell_angle_alpha                 90.7594
_cell_angle_beta                  90.5074
_cell_angle_gamma                 90.0387
loop_
_atom_site_label
_atom_site_type_symbol
_atom_site_fract_x
_atom_site_fract_y
_atom_site_fract_z
_atom_site_U_iso_or_equiv
_atom_site_adp_type
_atom_site_occupancy
C1     C     0.08733   0.16666   0.24999   0.00000  Uiso   1.00
C2     C     0.04273   0.16665   0.24998   0.00000  Uiso   1.00
C3     C     0.13805   0.02448   0.22593   0.00000  Uiso   1.00
C4     C     0.19528   0.30885   0.27406   0.00000  Uiso   1.00
C5     C     0.19528   0.02519   0.27406   0.00000  Uiso   1.00
C6     C     0.13805   0.30814   0.22594   0.00000  Uiso   1.00
C7     C     0.16788   0.16626   0.16434   0.00000  Uiso   1.00
C8     C     0.16545   0.16707   0.33566   0.00000  Uiso   1.00
C9     C     0.18080   0.12979   0.40635   0.00000  Uiso   1.00
C10    C     0.15254   0.20354   0.09365   0.00000  Uiso   1.00
C11    C     0.16394   0.16804   0.38407   0.00000  Uiso   1.00
C12    C     0.24600   0.16668   0.25001   0.00000  Uiso   1.00
C13    C     0.16939   0.16529   0.11593   0.00000  Uiso   1.00
C14    C     0.14705   0.20657   0.40807   0.00000  Uiso   1.00
C15    C     0.18628   0.12677   0.09193   0.00000  Uiso   1.00
C16    C     0.14810   0.20603   0.45481   0.00000  Uiso   1.00
C17    C     0.18523   0.12730   0.04519   0.00000  Uiso   1.00
C18    C     0.16591   0.16717   0.47671   0.00000  Uiso   1.00
C19    C     0.16742   0.16616   0.02328   0.00000  Uiso   1.00
C20    C     0.18213   0.12917   0.45220   0.00000  Uiso   1.00
C21    C     0.15121   0.20416   0.04780   0.00000  Uiso   1.00
C22    C     0.13153   0.24313   0.48033   0.00000  Uiso   1.00
C23    C     0.13336   0.24227   0.02622   0.00000  Uiso   1.00
C24    C     0.20181   0.09020   0.01967   0.00000  Uiso   1.00
C25    C     0.12772   0.24661   0.38456   0.00000  Uiso   1.00
C26    C     0.14769   0.29038   0.38348   0.00000  Uiso   1.00
C27    C     0.12972   0.32784   0.36093   0.00000  Uiso   1.00
C28    C     0.09203   0.32170   0.33893   0.00000  Uiso   1.00
C29    C     0.07205   0.27822   0.33979   0.00000  Uiso   1.00
C30    C     0.08976   0.24073   0.36256   0.00000  Uiso   1.00
C31    C     0.20561   0.08673   0.11544   0.00000  Uiso   1.00
C32    C     0.24357   0.09260   0.13744   0.00000  Uiso   1.00
C33    C     0.26128   0.05512   0.16021   0.00000  Uiso   1.00
C34    C     0.19997   0.09106   0.47378   0.00000  Uiso   1.00
C35    C     0.24131   0.01163   0.16107   0.00000  Uiso   1.00
C36    C     0.20361   0.00550   0.13907   0.00000  Uiso   1.00
C37    C     0.18564   0.04295   0.11652   0.00000  Uiso   1.00
C38    C     0.02130   0.12434   0.25482   0.00000  Uiso   1.00
C39    C     0.31203   0.20899   0.24518   0.00000  Uiso   1.00
C40    C     0.31205   0.12437   0.25489   0.00000  Uiso   1.00
C41    C     0.02128   0.20897   0.24511   0.00000  Uiso   1.00
C42    C     0.29060   0.16668   0.25002   0.00000  Uiso   1.00
Cu43   Cu    0.16667   0.21355   0.25000   0.00000  Uiso   1.00
Cu44   Cu    0.16667   0.11978   0.25000   0.00000  Uiso   1.00
H45    H     0.19389   0.10061   0.38781   0.00000  Uiso   1.00
H46    H     0.03732   0.24199   0.24108   0.00000  Uiso   1.00
H47    H     0.11530   0.04296   0.20649   0.00000  Uiso   1.00
H48    H     0.21804   0.29037   0.29351   0.00000  Uiso   1.00
H49    H     0.21807   0.04424   0.29348   0.00000  Uiso   1.00
H50    H     0.11526   0.28909   0.20652   0.00000  Uiso   1.00
H51    H     0.17710   0.29538   0.40006   0.00000  Uiso   1.00
H52    H     0.14514   0.02820   0.36025   0.00000  Uiso   1.00
H53    H     0.07833   0.01731   0.32121   0.00000  Uiso   1.00
H54    H     0.04282   0.27357   0.32284   0.00000  Uiso   1.00
H55    H     0.07410   0.20714   0.36286   0.00000  Uiso   1.00
H56    H     0.13945   0.23272   0.11219   0.00000  Uiso   1.00
H57    H     0.25923   0.12620   0.13714   0.00000  Uiso   1.00
H58    H     0.29051   0.05977   0.17716   0.00000  Uiso   1.00
H59    H     0.25501   0.31603   0.17879   0.00000  Uiso   1.00
H60    H     0.18819   0.30514   0.13975   0.00000  Uiso   1.00
H61    H     0.15623   0.03795   0.09994   0.00000  Uiso   1.00
H62    H     0.11694   0.27315   0.46525   0.00000  Uiso   1.00
H63    H     0.21639   0.06019   0.03475   0.00000  Uiso   1.00
H64    H     0.12058   0.27149   0.04491   0.00000  Uiso   1.00
H65    H     0.21275   0.06185   0.45509   0.00000  Uiso   1.00
H66    H     0.03736   0.09129   0.25874   0.00000  Uiso   1.00
H67    H     0.29598   0.24205   0.24126   0.00000  Uiso   1.00
H68    H     0.29601   0.09135   0.25892   0.00000  Uiso   1.00
N69    N     0.16667   0.28402   0.25000   0.00000  Uiso   1.00
N70    N     0.16667   0.04931   0.25000   0.00000  Uiso   1.00
O71    O     0.10655   0.20625   0.24999   0.00000  Uiso   1.00
O72    O     0.22679   0.12709   0.25000   0.00000  Uiso   1.00
O73    O     0.22679   0.20625   0.25000   0.00000  Uiso   1.00
O74    O     0.10655   0.12709   0.24999   0.00000  Uiso   1.00
O75    O     0.16666   0.20627   0.18513   0.00000  Uiso   1.00
O76    O     0.16668   0.12707   0.31487   0.00000  Uiso   1.00
O77    O     0.16668   0.20627   0.31487   0.00000  Uiso   1.00
O78    O     0.16666   0.12707   0.18513   0.00000  Uiso   1.00
C79    C     0.42066   0.16666   0.24999   0.00000  Uiso   1.00
C80    C     0.37607   0.16665   0.24998   0.00000  Uiso   1.00
C81    C     0.47139   0.02448   0.22593   0.00000  Uiso   1.00
C82    C     0.52861   0.30885   0.27406   0.00000  Uiso   1.00
C83    C     0.52862   0.02519   0.27406   0.00000  Uiso   1.00
C84    C     0.47138   0.30814   0.22594   0.00000  Uiso   1.00
C85    C     0.50122   0.16626   0.16434   0.00000  Uiso   1.00
C86    C     0.49878   0.16707   0.33566   0.00000  Uiso   1.00
C87    C     0.51413   0.12979   0.40635   0.00000  Uiso   1.00
C88    C     0.48587   0.20354   0.09365   0.00000  Uiso   1.00
C89    C     0.49727   0.16804   0.38407   0.00000  Uiso   1.00
C90    C     0.57934   0.16668   0.25001   0.00000  Uiso   1.00
C91    C     0.50273   0.16529   0.11593   0.00000  Uiso   1.00
C92    C     0.48039   0.20657   0.40807   0.00000  Uiso   1.00
C93    C     0.51961   0.12677   0.09193   0.00000  Uiso   1.00
C94    C     0.48144   0.20603   0.45481   0.00000  Uiso   1.00
C95    C     0.51856   0.12730   0.04519   0.00000  Uiso   1.00
C96    C     0.49924   0.16717   0.47671   0.00000  Uiso   1.00
C97    C     0.50076   0.16616   0.02328   0.00000  Uiso   1.00
C98    C     0.51546   0.12917   0.45220   0.00000  Uiso   1.00
C99    C     0.48454   0.20416   0.04780   0.00000  Uiso   1.00
C100   C     0.46486   0.24313   0.48033   0.00000  Uiso   1.00
C101   C     0.46669   0.24227   0.02622   0.00000  Uiso   1.00
C102   C     0.53514   0.09020   0.01967   0.00000  Uiso   1.00
C103   C     0.46106   0.24661   0.38456   0.00000  Uiso   1.00
C104   C     0.48103   0.29038   0.38348   0.00000  Uiso   1.00
C105   C     0.46305   0.32784   0.36093   0.00000  Uiso   1.00
C106   C     0.42536   0.32170   0.33893   0.00000  Uiso   1.00
C107   C     0.40538   0.27822   0.33979   0.00000  Uiso   1.00
C108   C     0.42309   0.24073   0.36256   0.00000  Uiso   1.00
C109   C     0.53894   0.08673   0.11544   0.00000  Uiso   1.00
C110   C     0.57691   0.09260   0.13744   0.00000  Uiso   1.00
C111   C     0.59461   0.05512   0.16021   0.00000  Uiso   1.00
C112   C     0.53331   0.09106   0.47378   0.00000  Uiso   1.00
C113   C     0.57464   0.01163   0.16107   0.00000  Uiso   1.00
C114   C     0.53695   0.00550   0.13907   0.00000  Uiso   1.00
C115   C     0.51897   0.04295   0.11652   0.00000  Uiso   1.00
C116   C     0.35464   0.12434   0.25482   0.00000  Uiso   1.00
C117   C     0.64536   0.20899   0.24518   0.00000  Uiso   1.00
C118   C     0.64538   0.12437   0.25489   0.00000  Uiso   1.00
C119   C     0.35462   0.20897   0.24511   0.00000  Uiso   1.00
C120   C     0.62393   0.16668   0.25002   0.00000  Uiso   1.00
Cu121  Cu    0.50000   0.21355   0.25000   0.00000  Uiso   1.00
Cu122  Cu    0.50000   0.11978   0.25000   0.00000  Uiso   1.00
H123   H     0.52722   0.10061   0.38781   0.00000  Uiso   1.00
H124   H     0.37066   0.24199   0.24108   0.00000  Uiso   1.00
H125   H     0.44863   0.04296   0.20649   0.00000  Uiso   1.00
H126   H     0.55137   0.29037   0.29351   0.00000  Uiso   1.00
H127   H     0.55140   0.04424   0.29348   0.00000  Uiso   1.00
H128   H     0.44860   0.28909   0.20652   0.00000  Uiso   1.00
H129   H     0.51043   0.29538   0.40006   0.00000  Uiso   1.00
H130   H     0.47848   0.02820   0.36025   0.00000  Uiso   1.00
H131   H     0.41166   0.01731   0.32121   0.00000  Uiso   1.00
H132   H     0.37616   0.27357   0.32284   0.00000  Uiso   1.00
H133   H     0.40743   0.20714   0.36286   0.00000  Uiso   1.00
H134   H     0.47278   0.23272   0.11219   0.00000  Uiso   1.00
H135   H     0.59256   0.12620   0.13714   0.00000  Uiso   1.00
H136   H     0.62384   0.05977   0.17716   0.00000  Uiso   1.00
H137   H     0.58834   0.31603   0.17879   0.00000  Uiso   1.00
H138   H     0.52152   0.30514   0.13975   0.00000  Uiso   1.00
H139   H     0.48957   0.03795   0.09994   0.00000  Uiso   1.00
H140   H     0.45028   0.27315   0.46525   0.00000  Uiso   1.00
H141   H     0.54972   0.06019   0.03475   0.00000  Uiso   1.00
H142   H     0.45392   0.27149   0.04491   0.00000  Uiso   1.00
H143   H     0.54608   0.06185   0.45509   0.00000  Uiso   1.00
H144   H     0.37069   0.09129   0.25874   0.00000  Uiso   1.00
H145   H     0.62931   0.24205   0.24126   0.00000  Uiso   1.00
H146   H     0.62934   0.09135   0.25892   0.00000  Uiso   1.00
N147   N     0.50000   0.28402   0.25000   0.00000  Uiso   1.00
N148   N     0.50000   0.04931   0.25000   0.00000  Uiso   1.00
O149   O     0.43988   0.20625   0.24999   0.00000  Uiso   1.00
O150   O     0.56012   0.12709   0.25000   0.00000  Uiso   1.00
O151   O     0.56012   0.20625   0.25000   0.00000  Uiso   1.00
O152   O     0.43988   0.12709   0.24999   0.00000  Uiso   1.00
O153   O     0.49999   0.20627   0.18513   0.00000  Uiso   1.00
O154   O     0.50001   0.12707   0.31487   0.00000  Uiso   1.00
O155   O     0.50001   0.20627   0.31487   0.00000  Uiso   1.00
O156   O     0.49999   0.12707   0.18513   0.00000  Uiso   1.00
C157   C     0.75400   0.16666   0.24999   0.00000  Uiso   1.00
C158   C     0.70940   0.16665   0.24998   0.00000  Uiso   1.00
C159   C     0.80472   0.02448   0.22593   0.00000  Uiso   1.00
C160   C     0.86195   0.30885   0.27406   0.00000  Uiso   1.00
C161   C     0.86195   0.02519   0.27406   0.00000  Uiso   1.00
C162   C     0.80472   0.30814   0.22594   0.00000  Uiso   1.00
C163   C     0.83455   0.16626   0.16434   0.00000  Uiso   1.00
C164   C     0.83212   0.16707   0.33566   0.00000  Uiso   1.00
C165   C     0.84746   0.12979   0.40635   0.00000  Uiso   1.00
C166   C     0.81920   0.20354   0.09365   0.00000  Uiso   1.00
C167   C     0.83061   0.16804   0.38407   0.00000  Uiso   1.00
C168   C     0.91267   0.16668   0.25001   0.00000  Uiso   1.00
C169   C     0.83606   0.16529   0.11593   0.00000  Uiso   1.00
C170   C     0.81372   0.20657   0.40807   0.00000  Uiso   1.00
C171   C     0.85295   0.12677   0.09193   0.00000  Uiso   1.00
C172   C     0.81477   0.20603   0.45481   0.00000  Uiso   1.00
C173   C     0.85190   0.12730   0.04519   0.00000  Uiso   1.00
C174   C     0.83258   0.16717   0.47671   0.00000  Uiso   1.00
C175   C     0.83409   0.16616   0.02328   0.00000  Uiso   1.00
C176   C     0.84880   0.12917   0.45220   0.00000  Uiso   1.00
C177   C     0.81787   0.20416   0.04780   0.00000  Uiso   1.00
C178   C     0.79819   0.24313   0.48033   0.00000  Uiso   1.00
C179   C     0.80003   0.24227   0.02622   0.00000  Uiso   1.00
C180   C     0.86847   0.09020   0.01967   0.00000  Uiso   1.00
C181   C     0.79439   0.24661   0.38456   0.00000  Uiso   1.00
C182   C     0.81436   0.29038   0.38348   0.00000  Uiso   1.00
C183   C     0.79639   0.32784   0.36093   0.00000  Uiso   1.00
C184   C     0.75869   0.32170   0.33893   0.00000  Uiso   1.00
C185   C     0.73872   0.27822   0.33979   0.00000  Uiso   1.00
C186   C     0.75642   0.24073   0.36256   0.00000  Uiso   1.00
C187   C     0.87228   0.08673   0.11544   0.00000  Uiso   1.00
C188   C     0.91024   0.09260   0.13744   0.00000  Uiso   1.00
C189   C     0.92795   0.05512   0.16021   0.00000  Uiso   1.00
C190   C     0.86664   0.09106   0.47378   0.00000  Uiso   1.00
C191   C     0.90797   0.01163   0.16107   0.00000  Uiso   1.00
C192   C     0.87028   0.00550   0.13907   0.00000  Uiso   1.00
C193   C     0.85231   0.04295   0.11652   0.00000  Uiso   1.00
C194   C     0.68797   0.12434   0.25482   0.00000  Uiso   1.00
C195   C     0.97870   0.20899   0.24518   0.00000  Uiso   1.00
C196   C     0.97872   0.12437   0.25489   0.00000  Uiso   1.00
C197   C     0.68795   0.20897   0.24511   0.00000  Uiso   1.00
C198   C     0.95727   0.16668   0.25002   0.00000  Uiso   1.00
Cu199  Cu    0.83333   0.21355   0.25000   0.00000  Uiso   1.00
Cu200  Cu    0.83333   0.11978   0.25000   0.00000  Uiso   1.00
H201   H     0.86055   0.10061   0.38781   0.00000  Uiso   1.00
H202   H     0.70399   0.24199   0.24108   0.00000  Uiso   1.00
H203   H     0.78196   0.04296   0.20649   0.00000  Uiso   1.00
H204   H     0.88470   0.29037   0.29351   0.00000  Uiso   1.00
H205   H     0.88474   0.04424   0.29348   0.00000  Uiso   1.00
H206   H     0.78193   0.28909   0.20652   0.00000  Uiso   1.00
H207   H     0.84377   0.29538   0.40006   0.00000  Uiso   1.00
H208   H     0.81181   0.02820   0.36025   0.00000  Uiso   1.00
H209   H     0.74499   0.01731   0.32121   0.00000  Uiso   1.00
H210   H     0.70949   0.27357   0.32284   0.00000  Uiso   1.00
H211   H     0.74077   0.20714   0.36286   0.00000  Uiso   1.00
H212   H     0.80611   0.23272   0.11219   0.00000  Uiso   1.00
H213   H     0.92590   0.12620   0.13714   0.00000  Uiso   1.00
H214   H     0.95718   0.05977   0.17716   0.00000  Uiso   1.00
H215   H     0.92167   0.31603   0.17879   0.00000  Uiso   1.00
H216   H     0.85486   0.30514   0.13975   0.00000  Uiso   1.00
H217   H     0.82290   0.03795   0.09994   0.00000  Uiso   1.00
H218   H     0.78361   0.27315   0.46525   0.00000  Uiso   1.00
H219   H     0.88306   0.06019   0.03475   0.00000  Uiso   1.00
H220   H     0.78725   0.27149   0.04491   0.00000  Uiso   1.00
H221   H     0.87942   0.06185   0.45509   0.00000  Uiso   1.00
H222   H     0.70402   0.09129   0.25874   0.00000  Uiso   1.00
H223   H     0.96264   0.24205   0.24126   0.00000  Uiso   1.00
H224   H     0.96268   0.09135   0.25892   0.00000  Uiso   1.00
N225   N     0.83333   0.28402   0.25000   0.00000  Uiso   1.00
N226   N     0.83333   0.04931   0.25000   0.00000  Uiso   1.00
O227   O     0.77321   0.20625   0.24999   0.00000  Uiso   1.00
O228   O     0.89345   0.12709   0.25000   0.00000  Uiso   1.00
O229   O     0.89345   0.20625   0.25000   0.00000  Uiso   1.00
O230   O     0.77321   0.12709   0.24999   0.00000  Uiso   1.00
O231   O     0.83332   0.20627   0.18513   0.00000  Uiso   1.00
O232   O     0.83334   0.12707   0.31487   0.00000  Uiso   1.00
O233   O     0.83334   0.20627   0.31487   0.00000  Uiso   1.00
O234   O     0.83332   0.12707   0.18513   0.00000  Uiso   1.00
C235   C     0.08733   0.49999   0.24999   0.00000  Uiso   1.00
C236   C     0.04273   0.49998   0.24998   0.00000  Uiso   1.00
C237   C     0.13805   0.35781   0.22593   0.00000  Uiso   1.00
C238   C     0.19528   0.64219   0.27406   0.00000  Uiso   1.00
C239   C     0.19528   0.35853   0.27406   0.00000  Uiso   1.00
C240   C     0.13805   0.64147   0.22594   0.00000  Uiso   1.00
C241   C     0.16788   0.49959   0.16434   0.00000  Uiso   1.00
C242   C     0.16545   0.50041   0.33566   0.00000  Uiso   1.00
C243   C     0.18080   0.46313   0.40635   0.00000  Uiso   1.00
C244   C     0.15254   0.53687   0.09365   0.00000  Uiso   1.00
C245   C     0.16394   0.50138   0.38407   0.00000  Uiso   1.00
C246   C     0.24600   0.50001   0.25001   0.00000  Uiso   1.00
C247   C     0.16939   0.49862   0.11593   0.00000  Uiso   1.00
C248   C     0.14705   0.53990   0.40807   0.00000  Uiso   1.00
C249   C     0.18628   0.46010   0.09193   0.00000  Uiso   1.00
C250   C     0.14810   0.53936   0.45481   0.00000  Uiso   1.00
C251   C     0.18523   0.46064   0.04519   0.00000  Uiso   1.00
C252   C     0.16591   0.50050   0.47671   0.00000  Uiso   1.00
C253   C     0.16742   0.49950   0.02328   0.00000  Uiso   1.00
C254   C     0.18213   0.46251   0.45220   0.00000  Uiso   1.00
C255   C     0.15121   0.53749   0.04780   0.00000  Uiso   1.00
C256   C     0.13153   0.57646   0.48033   0.00000  Uiso   1.00
C257   C     0.13336   0.57560   0.02622   0.00000  Uiso   1.00
C258   C     0.20181   0.42354   0.01967   0.00000  Uiso   1.00
C259   C     0.12772   0.57994   0.38456   0.00000  Uiso   1.00
C260   C     0.14769   0.62372   0.38348   0.00000  Uiso   1.00
C261   C     0.12972   0.66117   0.36093   0.00000  Uiso   1.00
C262   C     0.09203   0.65504   0.33893   0.00000  Uiso   1.00
C263   C     0.07205   0.61155   0.33979   0.00000  Uiso   1.00
C264   C     0.08976   0.57407   0.36256   0.00000  Uiso   1.00
C265   C     0.20561   0.42006   0.11544   0.00000  Uiso   1.00
C266   C     0.24357   0.42593   0.13744   0.00000  Uiso   1.00
C267   C     0.26128   0.38845   0.16021   0.00000  Uiso   1.00
C268   C     0.19997   0.42440   0.47378   0.00000  Uiso   1.00
C269   C     0.24131   0.34496   0.16107   0.00000  Uiso   1.00
C270   C     0.20361   0.33883   0.13907   0.00000  Uiso   1.00
C271   C     0.18564   0.37628   0.11652   0.00000  Uiso   1.00
C272   C     0.02130   0.45767   0.25482   0.00000  Uiso   1.00
C273   C     0.31203   0.54233   0.24518   0.00000  Uiso   1.00
C274   C     0.31205   0.45770   0.25489   0.00000  Uiso   1.00
C275   C     0.02128   0.54230   0.24511   0.00000  Uiso   1.00
C276   C     0.29060   0.50002   0.25002   0.00000  Uiso   1.00
Cu277  Cu    0.16667   0.54689   0.25000   0.00000  Uiso   1.00
Cu278  Cu    0.16667   0.45311   0.25000   0.00000  Uiso   1.00
H279   H     0.19389   0.43394   0.38781   0.00000  Uiso   1.00
H280   H     0.03732   0.57532   0.24108   0.00000  Uiso   1.00
H281   H     0.11530   0.37629   0.20649   0.00000  Uiso   1.00
H282   H     0.21804   0.62371   0.29351   0.00000  Uiso   1.00
H283   H     0.21807   0.37758   0.29348   0.00000  Uiso   1.00
H284   H     0.11526   0.62242   0.20652   0.00000  Uiso   1.00
H285   H     0.17710   0.62872   0.40006   0.00000  Uiso   1.00
H286   H     0.14514   0.36153   0.36025   0.00000  Uiso   1.00
H287   H     0.07833   0.35064   0.32121   0.00000  Uiso   1.00
H288   H     0.04282   0.60690   0.32284   0.00000  Uiso   1.00
H289   H     0.07410   0.54047   0.36286   0.00000  Uiso   1.00
H290   H     0.13945   0.56606   0.11219   0.00000  Uiso   1.00
H291   H     0.25923   0.45953   0.13714   0.00000  Uiso   1.00
H292   H     0.29051   0.39310   0.17716   0.00000  Uiso   1.00
H293   H     0.25501   0.64936   0.17879   0.00000  Uiso   1.00
H294   H     0.18819   0.63847   0.13975   0.00000  Uiso   1.00
H295   H     0.15623   0.37128   0.09994   0.00000  Uiso   1.00
H296   H     0.11694   0.60648   0.46525   0.00000  Uiso   1.00
H297   H     0.21639   0.39352   0.03475   0.00000  Uiso   1.00
H298   H     0.12058   0.60482   0.04491   0.00000  Uiso   1.00
H299   H     0.21275   0.39518   0.45509   0.00000  Uiso   1.00
H300   H     0.03736   0.42462   0.25874   0.00000  Uiso   1.00
H301   H     0.29598   0.57538   0.24126   0.00000  Uiso   1.00
H302   H     0.29601   0.42468   0.25892   0.00000  Uiso   1.00
N303   N     0.16667   0.61736   0.25000   0.00000  Uiso   1.00
N304   N     0.16667   0.38264   0.25000   0.00000  Uiso   1.00
O305   O     0.10655   0.53958   0.24999   0.00000  Uiso   1.00
O306   O     0.22679   0.46042   0.25000   0.00000  Uiso   1.00
O307   O     0.22679   0.53958   0.25000   0.00000  Uiso   1.00
O308   O     0.10655   0.46042   0.24999   0.00000  Uiso   1.00
O309   O     0.16666   0.53960   0.18513   0.00000  Uiso   1.00
O310   O     0.16668   0.46040   0.31487   0.00000  Uiso   1.00
O311   O     0.16668   0.53960   0.31487   0.00000  Uiso   1.00
O312   O     0.16666   0.46040   0.18513   0.00000  Uiso   1.00
C313   C     0.42066   0.49999   0.24999   0.00000  Uiso   1.00
C314   C     0.37607   0.49998   0.24998   0.00000  Uiso   1.00
C315   C     0.47139   0.35781   0.22593   0.00000  Uiso   1.00
C316   C     0.52861   0.64219   0.27406   0.00000  Uiso   1.00
C317   C     0.52862   0.35853   0.27406   0.00000  Uiso   1.00
C318   C     0.47138   0.64147   0.22594   0.00000  Uiso   1.00
C319   C     0.50122   0.49959   0.16434   0.00000  Uiso   1.00
C320   C     0.49878   0.50041   0.33566   0.00000  Uiso   1.00
C321   C     0.51413   0.46313   0.40635   0.00000  Uiso   1.00
C322   C     0.48587   0.53687   0.09365   0.00000  Uiso   1.00
C323   C     0.49727   0.50138   0.38407   0.00000  Uiso   1.00
C324   C     0.57934   0.50001   0.25001   0.00000  Uiso   1.00
C325   C     0.50273   0.49862   0.11593   0.00000  Uiso   1.00
C326   C     0.48039   0.53990   0.40807   0.00000  Uiso   1.00
C327   C     0.51961   0.46010   0.09193   0.00000  Uiso   1.00
C328   C     0.48144   0.53936   0.45481   0.00000  Uiso   1.00
C329   C     0.51856   0.46064   0.04519   0.00000  Uiso   1.00
C330   C     0.49924   0.50050   0.47671   0.00000  Uiso   1.00
C331   C     0.50076   0.49950   0.02328   0.00000  Uiso   1.00
C332   C     0.51546   0.46251   0.45220   0.00000  Uiso   1.00
C333   C     0.48454   0.53749   0.04780   0.00000  Uiso   1.00
C334   C     0.46486   0.57646   0.48033   0.00000  Uiso   1.00
C335   C     0.46669   0.57560   0.02622   0.00000  Uiso   1.00
C336   C     0.53514   0.42354   0.01967   0.00000  Uiso   1.00
C337   C     0.46106   0.57994   0.38456   0.00000  Uiso   1.00
C338   C     0.48103   0.62372   0.38348   0.00000  Uiso   1.00
C339   C     0.46305   0.66117   0.36093   0.00000  Uiso   1.00
C340   C     0.42536   0.65504   0.33893   0.00000  Uiso   1.00
C341   C     0.40538   0.61155   0.33979   0.00000  Uiso   1.00
C342   C     0.42309   0.57407   0.36256   0.00000  Uiso   1.00
C343   C     0.53894   0.42006   0.11544   0.00000  Uiso   1.00
C344   C     0.57691   0.42593   0.13744   0.00000  Uiso   1.00
C345   C     0.59461   0.38845   0.16021   0.00000  Uiso   1.00
C346   C     0.53331   0.42440   0.47378   0.00000  Uiso   1.00
C347   C     0.57464   0.34496   0.16107   0.00000  Uiso   1.00
C348   C     0.53695   0.33883   0.13907   0.00000  Uiso   1.00
C349   C     0.51897   0.37628   0.11652   0.00000  Uiso   1.00
C350   C     0.35464   0.45767   0.25482   0.00000  Uiso   1.00
C351   C     0.64536   0.54233   0.24518   0.00000  Uiso   1.00
C352   C     0.64538   0.45770   0.25489   0.00000  Uiso   1.00
C353   C     0.35462   0.54230   0.24511   0.00000  Uiso   1.00
C354   C     0.62393   0.50002   0.25002   0.00000  Uiso   1.00
Cu355  Cu    0.50000   0.54689   0.25000   0.00000  Uiso   1.00
Cu356  Cu    0.50000   0.45311   0.25000   0.00000  Uiso   1.00
H357   H     0.52722   0.43394   0.38781   0.00000  Uiso   1.00
H358   H     0.37066   0.57532   0.24108   0.00000  Uiso   1.00
H359   H     0.44863   0.37629   0.20649   0.00000  Uiso   1.00
H360   H     0.55137   0.62371   0.29351   0.00000  Uiso   1.00
H361   H     0.55140   0.37758   0.29348   0.00000  Uiso   1.00
H362   H     0.44860   0.62242   0.20652   0.00000  Uiso   1.00
H363   H     0.51043   0.62872   0.40006   0.00000  Uiso   1.00
H364   H     0.47848   0.36153   0.36025   0.00000  Uiso   1.00
H365   H     0.41166   0.35064   0.32121   0.00000  Uiso   1.00
H366   H     0.37616   0.60690   0.32284   0.00000  Uiso   1.00
H367   H     0.40743   0.54047   0.36286   0.00000  Uiso   1.00
H368   H     0.47278   0.56606   0.11219   0.00000  Uiso   1.00
H369   H     0.59256   0.45953   0.13714   0.00000  Uiso   1.00
H370   H     0.62384   0.39310   0.17716   0.00000  Uiso   1.00
H371   H     0.58834   0.64936   0.17879   0.00000  Uiso   1.00
H372   H     0.52152   0.63847   0.13975   0.00000  Uiso   1.00
H373   H     0.48957   0.37128   0.09994   0.00000  Uiso   1.00
H374   H     0.45028   0.60648   0.46525   0.00000  Uiso   1.00
H375   H     0.54972   0.39352   0.03475   0.00000  Uiso   1.00
H376   H     0.45392   0.60482   0.04491   0.00000  Uiso   1.00
H377   H     0.54608   0.39518   0.45509   0.00000  Uiso   1.00
H378   H     0.37069   0.42462   0.25874   0.00000  Uiso   1.00
H379   H     0.62931   0.57538   0.24126   0.00000  Uiso   1.00
H380   H     0.62934   0.42468   0.25892   0.00000  Uiso   1.00
N381   N     0.50000   0.61736   0.25000   0.00000  Uiso   1.00
N382   N     0.50000   0.38264   0.25000   0.00000  Uiso   1.00
O383   O     0.43988   0.53958   0.24999   0.00000  Uiso   1.00
O384   O     0.56012   0.46042   0.25000   0.00000  Uiso   1.00
O385   O     0.56012   0.53958   0.25000   0.00000  Uiso   1.00
O386   O     0.43988   0.46042   0.24999   0.00000  Uiso   1.00
O387   O     0.49999   0.53960   0.18513   0.00000  Uiso   1.00
O388   O     0.50001   0.46040   0.31487   0.00000  Uiso   1.00
O389   O     0.50001   0.53960   0.31487   0.00000  Uiso   1.00
O390   O     0.49999   0.46040   0.18513   0.00000  Uiso   1.00
C391   C     0.75400   0.49999   0.24999   0.00000  Uiso   1.00
C392   C     0.70940   0.49998   0.24998   0.00000  Uiso   1.00
C393   C     0.80472   0.35781   0.22593   0.00000  Uiso   1.00
C394   C     0.86195   0.64219   0.27406   0.00000  Uiso   1.00
C395   C     0.86195   0.35853   0.27406   0.00000  Uiso   1.00
C396   C     0.80472   0.64147   0.22594   0.00000  Uiso   1.00
C397   C     0.83455   0.49959   0.16434   0.00000  Uiso   1.00
C398   C     0.83212   0.50041   0.33566   0.00000  Uiso   1.00
C399   C     0.84746   0.46313   0.40635   0.00000  Uiso   1.00
C400   C     0.81920   0.53687   0.09365   0.00000  Uiso   1.00
C401   C     0.83061   0.50138   0.38407   0.00000  Uiso   1.00
C402   C     0.91267   0.50001   0.25001   0.00000  Uiso   1.00
C403   C     0.83606   0.49862   0.11593   0.00000  Uiso   1.00
C404   C     0.81372   0.53990   0.40807   0.00000  Uiso   1.00
C405   C     0.85295   0.46010   0.09193   0.00000  Uiso   1.00
C406   C     0.81477   0.53936   0.45481   0.00000  Uiso   1.00
C407   C     0.85190   0.46064   0.04519   0.00000  Uiso   1.00
C408   C     0.83258   0.50050   0.47671   0.00000  Uiso   1.00
C409   C     0.83409   0.49950   0.02328   0.00000  Uiso   1.00
C410   C     0.84880   0.46251   0.45220   0.00000  Uiso   1.00
C411   C     0.81787   0.53749   0.04780   0.00000  Uiso   1.00
C412   C     0.79819   0.57646   0.48033   0.00000  Uiso   1.00
C413   C     0.80003   0.57560   0.02622   0.00000  Uiso   1.00
C414   C     0.86847   0.42354   0.01967   0.00000  Uiso   1.00
C415   C     0.79439   0.57994   0.38456   0.00000  Uiso   1.00
C416   C     0.81436   0.62372   0.38348   0.00000  Uiso   1.00
C417   C     0.79639   0.66117   0.36093   0.00000  Uiso   1.00
C418   C     0.75869   0.65504   0.33893   0.00000  Uiso   1.00
C419   C     0.73872   0.61155   0.33979   0.00000  Uiso   1.00
C420   C     0.75642   0.57407   0.36256   0.00000  Uiso   1.00
C421   C     0.87228   0.42006   0.11544   0.00000  Uiso   1.00
C422   C     0.91024   0.42593   0.13744   0.00000  Uiso   1.00
C423   C     0.92795   0.38845   0.16021   0.00000  Uiso   1.00
C424   C     0.86664   0.42440   0.47378   0.00000  Uiso   1.00
C425   C     0.90797   0.34496   0.16107   0.00000  Uiso   1.00
C426   C     0.87028   0.33883   0.13907   0.00000  Uiso   1.00
C427   C     0.85231   0.37628   0.11652   0.00000  Uiso   1.00
C428   C     0.68797   0.45767   0.25482   0.00000  Uiso   1.00
C429   C     0.97870   0.54233   0.24518   0.00000  Uiso   1.00
C430   C     0.97872   0.45770   0.25489   0.00000  Uiso   1.00
C431   C     0.68795   0.54230   0.24511   0.00000  Uiso   1.00
C432   C     0.95727   0.50002   0.25002   0.00000  Uiso   1.00
Cu433  Cu    0.83333   0.54689   0.25000   0.00000  Uiso   1.00
Cu434  Cu    0.83333   0.45311   0.25000   0.00000  Uiso   1.00
H435   H     0.86055   0.43394   0.38781   0.00000  Uiso   1.00
H436   H     0.70399   0.57532   0.24108   0.00000  Uiso   1.00
H437   H     0.78196   0.37629   0.20649   0.00000  Uiso   1.00
H438   H     0.88470   0.62371   0.29351   0.00000  Uiso   1.00
H439   H     0.88474   0.37758   0.29348   0.00000  Uiso   1.00
H440   H     0.78193   0.62242   0.20652   0.00000  Uiso   1.00
H441   H     0.84377   0.62872   0.40006   0.00000  Uiso   1.00
H442   H     0.81181   0.36153   0.36025   0.00000  Uiso   1.00
H443   H     0.74499   0.35064   0.32121   0.00000  Uiso   1.00
H444   H     0.70949   0.60690   0.32284   0.00000  Uiso   1.00
H445   H     0.74077   0.54047   0.36286   0.00000  Uiso   1.00
H446   H     0.80611   0.56606   0.11219   0.00000  Uiso   1.00
H447   H     0.92590   0.45953   0.13714   0.00000  Uiso   1.00
H448   H     0.95718   0.39310   0.17716   0.00000  Uiso   1.00
H449   H     0.92167   0.64936   0.17879   0.00000  Uiso   1.00
H450   H     0.85486   0.63847   0.13975   0.00000  Uiso   1.00
H451   H     0.82290   0.37128   0.09994   0.00000  Uiso   1.00
H452   H     0.78361   0.60648   0.46525   0.00000  Uiso   1.00
H453   H     0.88306   0.39352   0.03475   0.00000  Uiso   1.00
H454   H     0.78725   0.60482   0.04491   0.00000  Uiso   1.00
H455   H     0.87942   0.39518   0.45509   0.00000  Uiso   1.00
H456   H     0.70402   0.42462   0.25874   0.00000  Uiso   1.00
H457   H     0.96264   0.57538   0.24126   0.00000  Uiso   1.00
H458   H     0.96268   0.42468   0.25892   0.00000  Uiso   1.00
N459   N     0.83333   0.61736   0.25000   0.00000  Uiso   1.00
N460   N     0.83333   0.38264   0.25000   0.00000  Uiso   1.00
O461   O     0.77321   0.53958   0.24999   0.00000  Uiso   1.00
O462   O     0.89345   0.46042   0.25000   0.00000  Uiso   1.00
O463   O     0.89345   0.53958   0.25000   0.00000  Uiso   1.00
O464   O     0.77321   0.46042   0.24999   0.00000  Uiso   1.00
O465   O     0.83332   0.53960   0.18513   0.00000  Uiso   1.00
O466   O     0.83334   0.46040   0.31487   0.00000  Uiso   1.00
O467   O     0.83334   0.53960   0.31487   0.00000  Uiso   1.00
O468   O     0.83332   0.46040   0.18513   0.00000  Uiso   1.00
C469   C     0.08733   0.83332   0.24999   0.00000  Uiso   1.00
C470   C     0.04273   0.83332   0.24998   0.00000  Uiso   1.00
C471   C     0.13805   0.69115   0.22593   0.00000  Uiso   1.00
C472   C     0.19528   0.97552   0.27406   0.00000  Uiso   1.00
C473   C     0.19528   0.69186   0.27406   0.00000  Uiso   1.00
C474   C     0.13805   0.97481   0.22594   0.00000  Uiso   1.00
C475   C     0.16788   0.83293   0.16434   0.00000  Uiso   1.00
C476   C     0.16545   0.83374   0.33566   0.00000  Uiso   1.00
C477   C     0.18080   0.79646   0.40635   0.00000  Uiso   1.00
C478   C     0.15254   0.87021   0.09365   0.00000  Uiso   1.00
C479   C     0.16394   0.83471   0.38407   0.00000  Uiso   1.00
C480   C     0.24600   0.83334   0.25001   0.00000  Uiso   1.00
C481   C     0.16939   0.83196   0.11593   0.00000  Uiso   1.00
C482   C     0.14705   0.87323   0.40807   0.00000  Uiso   1.00
C483   C     0.18628   0.79343   0.09193   0.00000  Uiso   1.00
C484   C     0.14810   0.87270   0.45481   0.00000  Uiso   1.00
C485   C     0.18523   0.79397   0.04519   0.00000  Uiso   1.00
C486   C     0.16591   0.83384   0.47671   0.00000  Uiso   1.00
C487   C     0.16742   0.83283   0.02328   0.00000  Uiso   1.00
C488   C     0.18213   0.79584   0.45220   0.00000  Uiso   1.00
C489   C     0.15121   0.87083   0.04780   0.00000  Uiso   1.00
C490   C     0.13153   0.90980   0.48033   0.00000  Uiso   1.00
C491   C     0.13336   0.90894   0.02622   0.00000  Uiso   1.00
C492   C     0.20181   0.75687   0.01967   0.00000  Uiso   1.00
C493   C     0.12772   0.91327   0.38456   0.00000  Uiso   1.00
C494   C     0.14769   0.95705   0.38348   0.00000  Uiso   1.00
C495   C     0.12972   0.99450   0.36093   0.00000  Uiso   1.00
C496   C     0.09203   0.98837   0.33893   0.00000  Uiso   1.00
C497   C     0.07205   0.94488   0.33979   0.00000  Uiso   1.00
C498   C     0.08976   0.90740   0.36256   0.00000  Uiso   1.00
C499   C     0.20561   0.75339   0.11544   0.00000  Uiso   1.00
C500   C     0.24357   0.75927   0.13744   0.00000  Uiso   1.00
C501   C     0.26128   0.72179   0.16021   0.00000  Uiso   1.00
C502   C     0.19997   0.75773   0.47378   0.00000  Uiso   1.00
C503   C     0.24131   0.67830   0.16107   0.00000  Uiso   1.00
C504   C     0.20361   0.67216   0.13907   0.00000  Uiso   1.00
C505   C     0.18564   0.70962   0.11652   0.00000  Uiso   1.00
C506   C     0.02130   0.79101   0.25482   0.00000  Uiso   1.00
C507   C     0.31203   0.87566   0.24518   0.00000  Uiso   1.00
C508   C     0.31205   0.79103   0.25489   0.00000  Uiso   1.00
C509   C     0.02128   0.87563   0.24511   0.00000  Uiso   1.00
C510   C     0.29060   0.83335   0.25002   0.00000  Uiso   1.00
Cu511  Cu    0.16667   0.88022   0.25000   0.00000  Uiso   1.00
Cu512  Cu    0.16667   0.78645   0.25000   0.00000  Uiso   1.00
H513   H     0.19389   0.76728   0.38781   0.00000  Uiso   1.00
H514   H     0.03732   0.90865   0.24108   0.00000  Uiso   1.00
H515   H     0.11530   0.70963   0.20649   0.00000  Uiso   1.00
H516   H     0.21804   0.95704   0.29351   0.00000  Uiso   1.00
H517   H     0.21807   0.71091   0.29348   0.00000  Uiso   1.00
H518   H     0.11526   0.95576   0.20652   0.00000  Uiso   1.00
H519   H     0.17710   0.96205   0.40006   0.00000  Uiso   1.00
H520   H     0.14514   0.69486   0.36025   0.00000  Uiso   1.00
H521   H     0.07833   0.68397   0.32121   0.00000  Uiso   1.00
H522   H     0.04282   0.94023   0.32284   0.00000  Uiso   1.00
H523   H     0.07410   0.87380   0.36286   0.00000  Uiso   1.00
H524   H     0.13945   0.89939   0.11219   0.00000  Uiso   1.00
H525   H     0.25923   0.79286   0.13714   0.00000  Uiso   1.00
H526   H     0.29051   0.72643   0.17716   0.00000  Uiso   1.00
H527   H     0.25501   0.98269   0.17879   0.00000  Uiso   1.00
H528   H     0.18819   0.97180   0.13975   0.00000  Uiso   1.00
H529   H     0.15623   0.70461   0.09994   0.00000  Uiso   1.00
H530   H     0.11694   0.93981   0.46525   0.00000  Uiso   1.00
H531   H     0.21639   0.72685   0.03475   0.00000  Uiso   1.00
H532   H     0.12058   0.93815   0.04491   0.00000  Uiso   1.00
H533   H     0.21275   0.72851   0.45509   0.00000  Uiso   1.00
H534   H     0.03736   0.75795   0.25874   0.00000  Uiso   1.00
H535   H     0.29598   0.90871   0.24126   0.00000  Uiso   1.00
H536   H     0.29601   0.75801   0.25892   0.00000  Uiso   1.00
N537   N     0.16667   0.95069   0.25000   0.00000  Uiso   1.00
N538   N     0.16667   0.71598   0.25000   0.00000  Uiso   1.00
O539   O     0.10655   0.87291   0.24999   0.00000  Uiso   1.00
O540   O     0.22679   0.79375   0.25000   0.00000  Uiso   1.00
O541   O     0.22679   0.87291   0.25000   0.00000  Uiso   1.00
O542   O     0.10655   0.79375   0.24999   0.00000  Uiso   1.00
O543   O     0.16666   0.87293   0.18513   0.00000  Uiso   1.00
O544   O     0.16668   0.79373   0.31487   0.00000  Uiso   1.00
O545   O     0.16668   0.87293   0.31487   0.00000  Uiso   1.00
O546   O     0.16666   0.79373   0.18513   0.00000  Uiso   1.00
C547   C     0.42066   0.83332   0.24999   0.00000  Uiso   1.00
C548   C     0.37607   0.83332   0.24998   0.00000  Uiso   1.00
C549   C     0.47139   0.69115   0.22593   0.00000  Uiso   1.00
C550   C     0.52861   0.97552   0.27406   0.00000  Uiso   1.00
C551   C     0.52862   0.69186   0.27406   0.00000  Uiso   1.00
C552   C     0.47138   0.97481   0.22594   0.00000  Uiso   1.00
C553   C     0.50122   0.83293   0.16434   0.00000  Uiso   1.00
C554   C     0.49878   0.83374   0.33566   0.00000  Uiso   1.00
C555   C     0.51413   0.79646   0.40635   0.00000  Uiso   1.00
C556   C     0.48587   0.87021   0.09365   0.00000  Uiso   1.00
C557   C     0.49727   0.83471   0.38407   0.00000  Uiso   1.00
C558   C     0.57934   0.83334   0.25001   0.00000  Uiso   1.00
C559   C     0.50273   0.83196   0.11593   0.00000  Uiso   1.00
C560   C     0.48039   0.87323   0.40807   0.00000  Uiso   1.00
C561   C     0.51961   0.79343   0.09193   0.00000  Uiso   1.00
C562   C     0.48144   0.87270   0.45481   0.00000  Uiso   1.00
C563   C     0.51856   0.79397   0.04519   0.00000  Uiso   1.00
C564   C     0.49924   0.83384   0.47671   0.00000  Uiso   1.00
C565   C     0.50076   0.83283   0.02328   0.00000  Uiso   1.00
C566   C     0.51546   0.79584   0.45220   0.00000  Uiso   1.00
C567   C     0.48454   0.87083   0.04780   0.00000  Uiso   1.00
C568   C     0.46486   0.90980   0.48033   0.00000  Uiso   1.00
C569   C     0.46669   0.90894   0.02622   0.00000  Uiso   1.00
C570   C     0.53514   0.75687   0.01967   0.00000  Uiso   1.00
C571   C     0.46106   0.91327   0.38456   0.00000  Uiso   1.00
C572   C     0.48103   0.95705   0.38348   0.00000  Uiso   1.00
C573   C     0.46305   0.99450   0.36093   0.00000  Uiso   1.00
C574   C     0.42536   0.98837   0.33893   0.00000  Uiso   1.00
C575   C     0.40538   0.94488   0.33979   0.00000  Uiso   1.00
C576   C     0.42309   0.90740   0.36256   0.00000  Uiso   1.00
C577   C     0.53894   0.75339   0.11544   0.00000  Uiso   1.00
C578   C     0.57691   0.75927   0.13744   0.00000  Uiso   1.00
C579   C     0.59461   0.72179   0.16021   0.00000  Uiso   1.00
C580   C     0.53331   0.75773   0.47378   0.00000  Uiso   1.00
C581   C     0.57464   0.67830   0.16107   0.00000  Uiso   1.00
C582   C     0.53695   0.67216   0.13907   0.00000  Uiso   1.00
C583   C     0.51897   0.70962   0.11652   0.00000  Uiso   1.00
C584   C     0.35464   0.79101   0.25482   0.00000  Uiso   1.00
C585   C     0.64536   0.87566   0.24518   0.00000  Uiso   1.00
C586   C     0.64538   0.79103   0.25489   0.00000  Uiso   1.00
C587   C     0.35462   0.87563   0.24511   0.00000  Uiso   1.00
C588   C     0.62393   0.83335   0.25002   0.00000  Uiso   1.00
Cu589  Cu    0.50000   0.88022   0.25000   0.00000  Uiso   1.00
Cu590  Cu    0.50000   0.78645   0.25000   0.00000  Uiso   1.00
H591   H     0.52722   0.76728   0.38781   0.00000  Uiso   1.00
H592   H     0.37066   0.90865   0.24108   0.00000  Uiso   1.00
H593   H     0.44863   0.70963   0.20649   0.00000  Uiso   1.00
H594   H     0.55137   0.95704   0.29351   0.00000  Uiso   1.00
H595   H     0.55140   0.71091   0.29348   0.00000  Uiso   1.00
H596   H     0.44860   0.95576   0.20652   0.00000  Uiso   1.00
H597   H     0.51043   0.96205   0.40006   0.00000  Uiso   1.00
H598   H     0.47848   0.69486   0.36025   0.00000  Uiso   1.00
H599   H     0.41166   0.68397   0.32121   0.00000  Uiso   1.00
H600   H     0.37616   0.94023   0.32284   0.00000  Uiso   1.00
H601   H     0.40743   0.87380   0.36286   0.00000  Uiso   1.00
H602   H     0.47278   0.89939   0.11219   0.00000  Uiso   1.00
H603   H     0.59256   0.79286   0.13714   0.00000  Uiso   1.00
H604   H     0.62384   0.72643   0.17716   0.00000  Uiso   1.00
H605   H     0.58834   0.98269   0.17879   0.00000  Uiso   1.00
H606   H     0.52152   0.97180   0.13975   0.00000  Uiso   1.00
H607   H     0.48957   0.70461   0.09994   0.00000  Uiso   1.00
H608   H     0.45028   0.93981   0.46525   0.00000  Uiso   1.00
H609   H     0.54972   0.72685   0.03475   0.00000  Uiso   1.00
H610   H     0.45392   0.93815   0.04491   0.00000  Uiso   1.00
H611   H     0.54608   0.72851   0.45509   0.00000  Uiso   1.00
H612   H     0.37069   0.75795   0.25874   0.00000  Uiso   1.00
H613   H     0.62931   0.90871   0.24126   0.00000  Uiso   1.00
H614   H     0.62934   0.75801   0.25892   0.00000  Uiso   1.00
N615   N     0.50000   0.95069   0.25000   0.00000  Uiso   1.00
N616   N     0.50000   0.71598   0.25000   0.00000  Uiso   1.00
O617   O     0.43988   0.87291   0.24999   0.00000  Uiso   1.00
O618   O     0.56012   0.79375   0.25000   0.00000  Uiso   1.00
O619   O     0.56012   0.87291   0.25000   0.00000  Uiso   1.00
O620   O     0.43988   0.79375   0.24999   0.00000  Uiso   1.00
O621   O     0.49999   0.87293   0.18513   0.00000  Uiso   1.00
O622   O     0.50001   0.79373   0.31487   0.00000  Uiso   1.00
O623   O     0.50001   0.87293   0.31487   0.00000  Uiso   1.00
O624   O     0.49999   0.79373   0.18513   0.00000  Uiso   1.00
C625   C     0.75400   0.83332   0.24999   0.00000  Uiso   1.00
C626   C     0.70940   0.83332   0.24998   0.00000  Uiso   1.00
C627   C     0.80472   0.69115   0.22593   0.00000  Uiso   1.00
C628   C     0.86195   0.97552   0.27406   0.00000  Uiso   1.00
C629   C     0.86195   0.69186   0.27406   0.00000  Uiso   1.00
C630   C     0.80472   0.97481   0.22594   0.00000  Uiso   1.00
C631   C     0.83455   0.83293   0.16434   0.00000  Uiso   1.00
C632   C     0.83212   0.83374   0.33566   0.00000  Uiso   1.00
C633   C     0.84746   0.79646   0.40635   0.00000  Uiso   1.00
C634   C     0.81920   0.87021   0.09365   0.00000  Uiso   1.00
C635   C     0.83061   0.83471   0.38407   0.00000  Uiso   1.00
C636   C     0.91267   0.83334   0.25001   0.00000  Uiso   1.00
C637   C     0.83606   0.83196   0.11593   0.00000  Uiso   1.00
C638   C     0.81372   0.87323   0.40807   0.00000  Uiso   1.00
C639   C     0.85295   0.79343   0.09193   0.00000  Uiso   1.00
C640   C     0.81477   0.87270   0.45481   0.00000  Uiso   1.00
C641   C     0.85190   0.79397   0.04519   0.00000  Uiso   1.00
C642   C     0.83258   0.83384   0.47671   0.00000  Uiso   1.00
C643   C     0.83409   0.83283   0.02328   0.00000  Uiso   1.00
C644   C     0.84880   0.79584   0.45220   0.00000  Uiso   1.00
C645   C     0.81787   0.87083   0.04780   0.00000  Uiso   1.00
C646   C     0.79819   0.90980   0.48033   0.00000  Uiso   1.00
C647   C     0.80003   0.90894   0.02622   0.00000  Uiso   1.00
C648   C     0.86847   0.75687   0.01967   0.00000  Uiso   1.00
C649   C     0.79439   0.91327   0.38456   0.00000  Uiso   1.00
C650   C     0.81436   0.95705   0.38348   0.00000  Uiso   1.00
C651   C     0.79639   0.99450   0.36093   0.00000  Uiso   1.00
C652   C     0.75869   0.98837   0.33893   0.00000  Uiso   1.00
C653   C     0.73872   0.94488   0.33979   0.00000  Uiso   1.00
C654   C     0.75642   0.90740   0.36256   0.00000  Uiso   1.00
C655   C     0.87228   0.75339   0.11544   0.00000  Uiso   1.00
C656   C     0.91024   0.75927   0.13744   0.00000  Uiso   1.00
C657   C     0.92795   0.72179   0.16021   0.00000  Uiso   1.00
C658   C     0.86664   0.75773   0.47378   0.00000  Uiso   1.00
C659   C     0.90797   0.67830   0.16107   0.00000  Uiso   1.00
C660   C     0.87028   0.67216   0.13907   0.00000  Uiso   1.00
C661   C     0.85231   0.70962   0.11652   0.00000  Uiso   1.00
C662   C     0.68797   0.79101   0.25482   0.00000  Uiso   1.00
C663   C     0.97870   0.87566   0.24518   0.00000  Uiso   1.00
C664   C     0.97872   0.79103   0.25489   0.00000  Uiso   1.00
C665   C     0.68795   0.87563   0.24511   0.00000  Uiso   1.00
C666   C     0.95727   0.83335   0.25002   0.00000  Uiso   1.00
Cu667  Cu    0.83333   0.88022   0.25000   0.00000  Uiso   1.00
Cu668  Cu    0.83333   0.78645   0.25000   0.00000  Uiso   1.00
H669   H     0.86055   0.76728   0.38781   0.00000  Uiso   1.00
H670   H     0.70399   0.90865   0.24108   0.00000  Uiso   1.00
H671   H     0.78196   0.70963   0.20649   0.00000  Uiso   1.00
H672   H     0.88470   0.95704   0.29351   0.00000  Uiso   1.00
H673   H     0.88474   0.71091   0.29348   0.00000  Uiso   1.00
H674   H     0.78193   0.95576   0.20652   0.00000  Uiso   1.00
H675   H     0.84377   0.96205   0.40006   0.00000  Uiso   1.00
H676   H     0.81181   0.69486   0.36025   0.00000  Uiso   1.00
H677   H     0.74499   0.68397   0.32121   0.00000  Uiso   1.00
H678   H     0.70949   0.94023   0.32284   0.00000  Uiso   1.00
H679   H     0.74077   0.87380   0.36286   0.00000  Uiso   1.00
H680   H     0.80611   0.89939   0.11219   0.00000  Uiso   1.00
H681   H     0.92590   0.79286   0.13714   0.00000  Uiso   1.00
H682   H     0.95718   0.72643   0.17716   0.00000  Uiso   1.00
H683   H     0.92167   0.98269   0.17879   0.00000  Uiso   1.00
H684   H     0.85486   0.97180   0.13975   0.00000  Uiso   1.00
H685   H     0.82290   0.70461   0.09994   0.00000  Uiso   1.00
H686   H     0.78361   0.93981   0.46525   0.00000  Uiso   1.00
H687   H     0.88306   0.72685   0.03475   0.00000  Uiso   1.00
H688   H     0.78725   0.93815   0.04491   0.00000  Uiso   1.00
H689   H     0.87942   0.72851   0.45509   0.00000  Uiso   1.00
H690   H     0.70402   0.75795   0.25874   0.00000  Uiso   1.00
H691   H     0.96264   0.90871   0.24126   0.00000  Uiso   1.00
H692   H     0.96268   0.75801   0.25892   0.00000  Uiso   1.00
N693   N     0.83333   0.95069   0.25000   0.00000  Uiso   1.00
N694   N     0.83333   0.71598   0.25000   0.00000  Uiso   1.00
O695   O     0.77321   0.87291   0.24999   0.00000  Uiso   1.00
O696   O     0.89345   0.79375   0.25000   0.00000  Uiso   1.00
O697   O     0.89345   0.87291   0.25000   0.00000  Uiso   1.00
O698   O     0.77321   0.79375   0.24999   0.00000  Uiso   1.00
O699   O     0.83332   0.87293   0.18513   0.00000  Uiso   1.00
O700   O     0.83334   0.79373   0.31487   0.00000  Uiso   1.00
O701   O     0.83334   0.87293   0.31487   0.00000  Uiso   1.00
O702   O     0.83332   0.79373   0.18513   0.00000  Uiso   1.00
C703   C     0.08733   0.16666   0.74999   0.00000  Uiso   1.00
C704   C     0.04273   0.16665   0.74998   0.00000  Uiso   1.00
C705   C     0.13805   0.02448   0.72593   0.00000  Uiso   1.00
C706   C     0.19528   0.30885   0.77406   0.00000  Uiso   1.00
C707   C     0.19528   0.02519   0.77406   0.00000  Uiso   1.00
C708   C     0.13805   0.30814   0.72594   0.00000  Uiso   1.00
C709   C     0.16788   0.16626   0.66434   0.00000  Uiso   1.00
C710   C     0.16545   0.16707   0.83566   0.00000  Uiso   1.00
C711   C     0.18080   0.12979   0.90635   0.00000  Uiso   1.00
C712   C     0.15254   0.20354   0.59365   0.00000  Uiso   1.00
C713   C     0.16394   0.16804   0.88407   0.00000  Uiso   1.00
C714   C     0.24600   0.16668   0.75001   0.00000  Uiso   1.00
C715   C     0.16939   0.16529   0.61593   0.00000  Uiso   1.00
C716   C     0.14705   0.20657   0.90807   0.00000  Uiso   1.00
C717   C     0.18628   0.12677   0.59193   0.00000  Uiso   1.00
C718   C     0.14810   0.20603   0.95481   0.00000  Uiso   1.00
C719   C     0.18523   0.12730   0.54519   0.00000  Uiso   1.00
C720   C     0.16591   0.16717   0.97671   0.00000  Uiso   1.00
C721   C     0.16742   0.16616   0.52328   0.00000  Uiso   1.00
C722   C     0.18213   0.12917   0.95220   0.00000  Uiso   1.00
C723   C     0.15121   0.20416   0.54780   0.00000  Uiso   1.00
C724   C     0.13153   0.24313   0.98033   0.00000  Uiso   1.00
C725   C     0.13336   0.24227   0.52622   0.00000  Uiso   1.00
C726   C     0.20181   0.09020   0.51967   0.00000  Uiso   1.00
C727   C     0.12772   0.24661   0.88456   0.00000  Uiso   1.00
C728   C     0.14769   0.29038   0.88348   0.00000  Uiso   1.00
C729   C     0.12972   0.32784   0.86093   0.00000  Uiso   1.00
C730   C     0.09203   0.32170   0.83893   0.00000  Uiso   1.00
C731   C     0.07205   0.27822   0.83979   0.00000  Uiso   1.00
C732   C     0.08976   0.24073   0.86256   0.00000  Uiso   1.00
C733   C     0.20561   0.08673   0.61544   0.00000  Uiso   1.00
C734   C     0.24357   0.09260   0.63744   0.00000  Uiso   1.00
C735   C     0.26128   0.05512   0.66021   0.00000  Uiso   1.00
C736   C     0.19997   0.09106   0.97378   0.00000  Uiso   1.00
C737   C     0.24131   0.01163   0.66107   0.00000  Uiso   1.00
C738   C     0.20361   0.00550   0.63907   0.00000  Uiso   1.00
C739   C     0.18564   0.04295   0.61652   0.00000  Uiso   1.00
C740   C     0.02130   0.12434   0.75482   0.00000  Uiso   1.00
C741   C     0.31203   0.20899   0.74518   0.00000  Uiso   1.00
C742   C     0.31205   0.12437   0.75489   0.00000  Uiso   1.00
C743   C     0.02128   0.20897   0.74511   0.00000  Uiso   1.00
C744   C     0.29060   0.16668   0.75002   0.00000  Uiso   1.00
Cu745  Cu    0.16667   0.21355   0.75000   0.00000  Uiso   1.00
Cu746  Cu    0.16667   0.11978   0.75000   0.00000  Uiso   1.00
H747   H     0.19389   0.10061   0.88781   0.00000  Uiso   1.00
H748   H     0.03732   0.24199   0.74108   0.00000  Uiso   1.00
H749   H     0.11530   0.04296   0.70649   0.00000  Uiso   1.00
H750   H     0.21804   0.29037   0.79351   0.00000  Uiso   1.00
H751   H     0.21807   0.04424   0.79348   0.00000  Uiso   1.00
H752   H     0.11526   0.28909   0.70652   0.00000  Uiso   1.00
H753   H     0.17710   0.29538   0.90006   0.00000  Uiso   1.00
H754   H     0.14514   0.02820   0.86025   0.00000  Uiso   1.00
H755   H     0.07833   0.01731   0.82121   0.00000  Uiso   1.00
H756   H     0.04282   0.27357   0.82284   0.00000  Uiso   1.00
H757   H     0.07410   0.20714   0.86286   0.00000  Uiso   1.00
H758   H     0.13945   0.23272   0.61219   0.00000  Uiso   1.00
H759   H     0.25923   0.12620   0.63714   0.00000  Uiso   1.00
H760   H     0.29051   0.05977   0.67716   0.00000  Uiso   1.00
H761   H     0.25501   0.31603   0.67879   0.00000  Uiso   1.00
H762   H     0.18819   0.30514   0.63975   0.00000  Uiso   1.00
H763   H     0.15623   0.03795   0.59994   0.00000  Uiso   1.00
H764   H     0.11694   0.27315   0.96525   0.00000  Uiso   1.00
H765   H     0.21639   0.06019   0.53475   0.00000  Uiso   1.00
H766   H     0.12058   0.27149   0.54491   0.00000  Uiso   1.00
H767   H     0.21275   0.06185   0.95509   0.00000  Uiso   1.00
H768   H     0.03736   0.09129   0.75874   0.00000  Uiso   1.00
H769   H     0.29598   0.24205   0.74126   0.00000  Uiso   1.00
H770   H     0.29601   0.09135   0.75892   0.00000  Uiso   1.00
N771   N     0.16667   0.28402   0.75000   0.00000  Uiso   1.00
N772   N     0.16667   0.04931   0.75000   0.00000  Uiso   1.00
O773   O     0.10655   0.20625   0.74999   0.00000  Uiso   1.00
O774   O     0.22679   0.12709   0.75000   0.00000  Uiso   1.00
O775   O     0.22679   0.20625   0.75000   0.00000  Uiso   1.00
O776   O     0.10655   0.12709   0.74999   0.00000  Uiso   1.00
O777   O     0.16666   0.20627   0.68513   0.00000  Uiso   1.00
O778   O     0.16668   0.12707   0.81487   0.00000  Uiso   1.00
O779   O     0.16668   0.20627   0.81487   0.00000  Uiso   1.00
O780   O     0.16666   0.12707   0.68513   0.00000  Uiso   1.00
C781   C     0.42066   0.16666   0.74999   0.00000  Uiso   1.00
C782   C     0.37607   0.16665   0.74998   0.00000  Uiso   1.00
C783   C     0.47139   0.02448   0.72593   0.00000  Uiso   1.00
C784   C     0.52861   0.30885   0.77406   0.00000  Uiso   1.00
C785   C     0.52862   0.02519   0.77406   0.00000  Uiso   1.00
C786   C     0.47138   0.30814   0.72594   0.00000  Uiso   1.00
C787   C     0.50122   0.16626   0.66434   0.00000  Uiso   1.00
C788   C     0.49878   0.16707   0.83566   0.00000  Uiso   1.00
C789   C     0.51413   0.12979   0.90635   0.00000  Uiso   1.00
C790   C     0.48587   0.20354   0.59365   0.00000  Uiso   1.00
C791   C     0.49727   0.16804   0.88407   0.00000  Uiso   1.00
C792   C     0.57934   0.16668   0.75001   0.00000  Uiso   1.00
C793   C     0.50273   0.16529   0.61593   0.00000  Uiso   1.00
C794   C     0.48039   0.20657   0.90807   0.00000  Uiso   1.00
C795   C     0.51961   0.12677   0.59193   0.00000  Uiso   1.00
C796   C     0.48144   0.20603   0.95481   0.00000  Uiso   1.00
C797   C     0.51856   0.12730   0.54519   0.00000  Uiso   1.00
C798   C     0.49924   0.16717   0.97671   0.00000  Uiso   1.00
C799   C     0.50076   0.16616   0.52328   0.00000  Uiso   1.00
C800   C     0.51546   0.12917   0.95220   0.00000  Uiso   1.00
C801   C     0.48454   0.20416   0.54780   0.00000  Uiso   1.00
C802   C     0.46486   0.24313   0.98033   0.00000  Uiso   1.00
C803   C     0.46669   0.24227   0.52622   0.00000  Uiso   1.00
C804   C     0.53514   0.09020   0.51967   0.00000  Uiso   1.00
C805   C     0.46106   0.24661   0.88456   0.00000  Uiso   1.00
C806   C     0.48103   0.29038   0.88348   0.00000  Uiso   1.00
C807   C     0.46305   0.32784   0.86093   0.00000  Uiso   1.00
C808   C     0.42536   0.32170   0.83893   0.00000  Uiso   1.00
C809   C     0.40538   0.27822   0.83979   0.00000  Uiso   1.00
C810   C     0.42309   0.24073   0.86256   0.00000  Uiso   1.00
C811   C     0.53894   0.08673   0.61544   0.00000  Uiso   1.00
C812   C     0.57691   0.09260   0.63744   0.00000  Uiso   1.00
C813   C     0.59461   0.05512   0.66021   0.00000  Uiso   1.00
C814   C     0.53331   0.09106   0.97378   0.00000  Uiso   1.00
C815   C     0.57464   0.01163   0.66107   0.00000  Uiso   1.00
C816   C     0.53695   0.00550   0.63907   0.00000  Uiso   1.00
C817   C     0.51897   0.04295   0.61652   0.00000  Uiso   1.00
C818   C     0.35464   0.12434   0.75482   0.00000  Uiso   1.00
C819   C     0.64536   0.20899   0.74518   0.00000  Uiso   1.00
C820   C     0.64538   0.12437   0.75489   0.00000  Uiso   1.00
C821   C     0.35462   0.20897   0.74511   0.00000  Uiso   1.00
C822   C     0.62393   0.16668   0.75002   0.00000  Uiso   1.00
Cu823  Cu    0.50000   0.21355   0.75000   0.00000  Uiso   1.00
Cu824  Cu    0.50000   0.11978   0.75000   0.00000  Uiso   1.00
H825   H     0.52722   0.10061   0.88781   0.00000  Uiso   1.00
H826   H     0.37066   0.24199   0.74108   0.00000  Uiso   1.00
H827   H     0.44863   0.04296   0.70649   0.00000  Uiso   1.00
H828   H     0.55137   0.29037   0.79351   0.00000  Uiso   1.00
H829   H     0.55140   0.04424   0.79348   0.00000  Uiso   1.00
H830   H     0.44860   0.28909   0.70652   0.00000  Uiso   1.00
H831   H     0.51043   0.29538   0.90006   0.00000  Uiso   1.00
H832   H     0.47848   0.02820   0.86025   0.00000  Uiso   1.00
H833   H     0.41166   0.01731   0.82121   0.00000  Uiso   1.00
H834   H     0.37616   0.27357   0.82284   0.00000  Uiso   1.00
H835   H     0.40743   0.20714   0.86286   0.00000  Uiso   1.00
H836   H     0.47278   0.23272   0.61219   0.00000  Uiso   1.00
H837   H     0.59256   0.12620   0.63714   0.00000  Uiso   1.00
H838   H     0.62384   0.05977   0.67716   0.00000  Uiso   1.00
H839   H     0.58834   0.31603   0.67879   0.00000  Uiso   1.00
H840   H     0.52152   0.30514   0.63975   0.00000  Uiso   1.00
H841   H     0.48957   0.03795   0.59994   0.00000  Uiso   1.00
H842   H     0.45028   0.27315   0.96525   0.00000  Uiso   1.00
H843   H     0.54972   0.06019   0.53475   0.00000  Uiso   1.00
H844   H     0.45392   0.27149   0.54491   0.00000  Uiso   1.00
H845   H     0.54608   0.06185   0.95509   0.00000  Uiso   1.00
H846   H     0.37069   0.09129   0.75874   0.00000  Uiso   1.00
H847   H     0.62931   0.24205   0.74126   0.00000  Uiso   1.00
H848   H     0.62934   0.09135   0.75892   0.00000  Uiso   1.00
N849   N     0.50000   0.28402   0.75000   0.00000  Uiso   1.00
N850   N     0.50000   0.04931   0.75000   0.00000  Uiso   1.00
O851   O     0.43988   0.20625   0.74999   0.00000  Uiso   1.00
O852   O     0.56012   0.12709   0.75000   0.00000  Uiso   1.00
O853   O     0.56012   0.20625   0.75000   0.00000  Uiso   1.00
O854   O     0.43988   0.12709   0.74999   0.00000  Uiso   1.00
O855   O     0.49999   0.20627   0.68513   0.00000  Uiso   1.00
O856   O     0.50001   0.12707   0.81487   0.00000  Uiso   1.00
O857   O     0.50001   0.20627   0.81487   0.00000  Uiso   1.00
O858   O     0.49999   0.12707   0.68513   0.00000  Uiso   1.00
C859   C     0.75400   0.16666   0.74999   0.00000  Uiso   1.00
C860   C     0.70940   0.16665   0.74998   0.00000  Uiso   1.00
C861   C     0.80472   0.02448   0.72593   0.00000  Uiso   1.00
C862   C     0.86195   0.30885   0.77406   0.00000  Uiso   1.00
C863   C     0.86195   0.02519   0.77406   0.00000  Uiso   1.00
C864   C     0.80472   0.30814   0.72594   0.00000  Uiso   1.00
C865   C     0.83455   0.16626   0.66434   0.00000  Uiso   1.00
C866   C     0.83212   0.16707   0.83566   0.00000  Uiso   1.00
C867   C     0.84746   0.12979   0.90635   0.00000  Uiso   1.00
C868   C     0.81920   0.20354   0.59365   0.00000  Uiso   1.00
C869   C     0.83061   0.16804   0.88407   0.00000  Uiso   1.00
C870   C     0.91267   0.16668   0.75001   0.00000  Uiso   1.00
C871   C     0.83606   0.16529   0.61593   0.00000  Uiso   1.00
C872   C     0.81372   0.20657   0.90807   0.00000  Uiso   1.00
C873   C     0.85295   0.12677   0.59193   0.00000  Uiso   1.00
C874   C     0.81477   0.20603   0.95481   0.00000  Uiso   1.00
C875   C     0.85190   0.12730   0.54519   0.00000  Uiso   1.00
C876   C     0.83258   0.16717   0.97671   0.00000  Uiso   1.00
C877   C     0.83409   0.16616   0.52328   0.00000  Uiso   1.00
C878   C     0.84880   0.12917   0.95220   0.00000  Uiso   1.00
C879   C     0.81787   0.20416   0.54780   0.00000  Uiso   1.00
C880   C     0.79819   0.24313   0.98033   0.00000  Uiso   1.00
C881   C     0.80003   0.24227   0.52622   0.00000  Uiso   1.00
C882   C     0.86847   0.09020   0.51967   0.00000  Uiso   1.00
C883   C     0.79439   0.24661   0.88456   0.00000  Uiso   1.00
C884   C     0.81436   0.29038   0.88348   0.00000  Uiso   1.00
C885   C     0.79639   0.32784   0.86093   0.00000  Uiso   1.00
C886   C     0.75869   0.32170   0.83893   0.00000  Uiso   1.00
C887   C     0.73872   0.27822   0.83979   0.00000  Uiso   1.00
C888   C     0.75642   0.24073   0.86256   0.00000  Uiso   1.00
C889   C     0.87228   0.08673   0.61544   0.00000  Uiso   1.00
C890   C     0.91024   0.09260   0.63744   0.00000  Uiso   1.00
C891   C     0.92795   0.05512   0.66021   0.00000  Uiso   1.00
C892   C     0.86664   0.09106   0.97378   0.00000  Uiso   1.00
C893   C     0.90797   0.01163   0.66107   0.00000  Uiso   1.00
C894   C     0.87028   0.00550   0.63907   0.00000  Uiso   1.00
C895   C     0.85231   0.04295   0.61652   0.00000  Uiso   1.00
C896   C     0.68797   0.12434   0.75482   0.00000  Uiso   1.00
C897   C     0.97870   0.20899   0.74518   0.00000  Uiso   1.00
C898   C     0.97872   0.12437   0.75489   0.00000  Uiso   1.00
C899   C     0.68795   0.20897   0.74511   0.00000  Uiso   1.00
C900   C     0.95727   0.16668   0.75002   0.00000  Uiso   1.00
Cu901  Cu    0.83333   0.21355   0.75000   0.00000  Uiso   1.00
Cu902  Cu    0.83333   0.11978   0.75000   0.00000  Uiso   1.00
H903   H     0.86055   0.10061   0.88781   0.00000  Uiso   1.00
H904   H     0.70399   0.24199   0.74108   0.00000  Uiso   1.00
H905   H     0.78196   0.04296   0.70649   0.00000  Uiso   1.00
H906   H     0.88470   0.29037   0.79351   0.00000  Uiso   1.00
H907   H     0.88474   0.04424   0.79348   0.00000  Uiso   1.00
H908   H     0.78193   0.28909   0.70652   0.00000  Uiso   1.00
H909   H     0.84377   0.29538   0.90006   0.00000  Uiso   1.00
H910   H     0.81181   0.02820   0.86025   0.00000  Uiso   1.00
H911   H     0.74499   0.01731   0.82121   0.00000  Uiso   1.00
H912   H     0.70949   0.27357   0.82284   0.00000  Uiso   1.00
H913   H     0.74077   0.20714   0.86286   0.00000  Uiso   1.00
H914   H     0.80611   0.23272   0.61219   0.00000  Uiso   1.00
H915   H     0.92590   0.12620   0.63714   0.00000  Uiso   1.00
H916   H     0.95718   0.05977   0.67716   0.00000  Uiso   1.00
H917   H     0.92167   0.31603   0.67879   0.00000  Uiso   1.00
H918   H     0.85486   0.30514   0.63975   0.00000  Uiso   1.00
H919   H     0.82290   0.03795   0.59994   0.00000  Uiso   1.00
H920   H     0.78361   0.27315   0.96525   0.00000  Uiso   1.00
H921   H     0.88306   0.06019   0.53475   0.00000  Uiso   1.00
H922   H     0.78725   0.27149   0.54491   0.00000  Uiso   1.00
H923   H     0.87942   0.06185   0.95509   0.00000  Uiso   1.00
H924   H     0.70402   0.09129   0.75874   0.00000  Uiso   1.00
H925   H     0.96264   0.24205   0.74126   0.00000  Uiso   1.00
H926   H     0.96268   0.09135   0.75892   0.00000  Uiso   1.00
N927   N     0.83333   0.28402   0.75000   0.00000  Uiso   1.00
N928   N     0.83333   0.04931   0.75000   0.00000  Uiso   1.00
O929   O     0.77321   0.20625   0.74999   0.00000  Uiso   1.00
O930   O     0.89345   0.12709   0.75000   0.00000  Uiso   1.00
O931   O     0.89345   0.20625   0.75000   0.00000  Uiso   1.00
O932   O     0.77321   0.12709   0.74999   0.00000  Uiso   1.00
O933   O     0.83332   0.20627   0.68513   0.00000  Uiso   1.00
O934   O     0.83334   0.12707   0.81487   0.00000  Uiso   1.00
O935   O     0.83334   0.20627   0.81487   0.00000  Uiso   1.00
O936   O     0.83332   0.12707   0.68513   0.00000  Uiso   1.00
C937   C     0.08733   0.49999   0.74999   0.00000  Uiso   1.00
C938   C     0.04273   0.49998   0.74998   0.00000  Uiso   1.00
C939   C     0.13805   0.35781   0.72593   0.00000  Uiso   1.00
C940   C     0.19528   0.64219   0.77406   0.00000  Uiso   1.00
C941   C     0.19528   0.35853   0.77406   0.00000  Uiso   1.00
C942   C     0.13805   0.64147   0.72594   0.00000  Uiso   1.00
C943   C     0.16788   0.49959   0.66434   0.00000  Uiso   1.00
C944   C     0.16545   0.50041   0.83566   0.00000  Uiso   1.00
C945   C     0.18080   0.46313   0.90635   0.00000  Uiso   1.00
C946   C     0.15254   0.53687   0.59365   0.00000  Uiso   1.00
C947   C     0.16394   0.50138   0.88407   0.00000  Uiso   1.00
C948   C     0.24600   0.50001   0.75001   0.00000  Uiso   1.00
C949   C     0.16939   0.49862   0.61593   0.00000  Uiso   1.00
C950   C     0.14705   0.53990   0.90807   0.00000  Uiso   1.00
C951   C     0.18628   0.46010   0.59193   0.00000  Uiso   1.00
C952   C     0.14810   0.53936   0.95481   0.00000  Uiso   1.00
C953   C     0.18523   0.46064   0.54519   0.00000  Uiso   1.00
C954   C     0.16591   0.50050   0.97671   0.00000  Uiso   1.00
C955   C     0.16742   0.49950   0.52328   0.00000  Uiso   1.00
C956   C     0.18213   0.46251   0.95220   0.00000  Uiso   1.00
C957   C     0.15121   0.53749   0.54780   0.00000  Uiso   1.00
C958   C     0.13153   0.57646   0.98033   0.00000  Uiso   1.00
C959   C     0.13336   0.57560   0.52622   0.00000  Uiso   1.00
C960   C     0.20181   0.42354   0.51967   0.00000  Uiso   1.00
C961   C     0.12772   0.57994   0.88456   0.00000  Uiso   1.00
C962   C     0.14769   0.62372   0.88348   0.00000  Uiso   1.00
C963   C     0.12972   0.66117   0.86093   0.00000  Uiso   1.00
C964   C     0.09203   0.65504   0.83893   0.00000  Uiso   1.00
C965   C     0.07205   0.61155   0.83979   0.00000  Uiso   1.00
C966   C     0.08976   0.57407   0.86256   0.00000  Uiso   1.00
C967   C     0.20561   0.42006   0.61544   0.00000  Uiso   1.00
C968   C     0.24357   0.42593   0.63744   0.00000  Uiso   1.00
C969   C     0.26128   0.38845   0.66021   0.00000  Uiso   1.00
C970   C     0.19997   0.42440   0.97378   0.00000  Uiso   1.00
C971   C     0.24131   0.34496   0.66107   0.00000  Uiso   1.00
C972   C     0.20361   0.33883   0.63907   0.00000  Uiso   1.00
C973   C     0.18564   0.37628   0.61652   0.00000  Uiso   1.00
C974   C     0.02130   0.45767   0.75482   0.00000  Uiso   1.00
C975   C     0.31203   0.54233   0.74518   0.00000  Uiso   1.00
C976   C     0.31205   0.45770   0.75489   0.00000  Uiso   1.00
C977   C     0.02128   0.54230   0.74511   0.00000  Uiso   1.00
C978   C     0.29060   0.50002   0.75002   0.00000  Uiso   1.00
Cu979  Cu    0.16667   0.54689   0.75000   0.00000  Uiso   1.00
Cu980  Cu    0.16667   0.45311   0.75000   0.00000  Uiso   1.00
H981   H     0.19389   0.43394   0.88781   0.00000  Uiso   1.00
H982   H     0.03732   0.57532   0.74108   0.00000  Uiso   1.00
H983   H     0.11530   0.37629   0.70649   0.00000  Uiso   1.00
H984   H     0.21804   0.62371   0.79351   0.00000  Uiso   1.00
H985   H     0.21807   0.37758   0.79348   0.00000  Uiso   1.00
H986   H     0.11526   0.62242   0.70652   0.00000  Uiso   1.00
H987   H     0.17710   0.62872   0.90006   0.00000  Uiso   1.00
H988   H     0.14514   0.36153   0.86025   0.00000  Uiso   1.00
H989   H     0.07833   0.35064   0.82121   0.00000  Uiso   1.00
H990   H     0.04282   0.60690   0.82284   0.00000  Uiso   1.00
H991   H     0.07410   0.54047   0.86286   0.00000  Uiso   1.00
H992   H     0.13945   0.56606   0.61219   0.00000  Uiso   1.00
H993   H     0.25923   0.45953   0.63714   0.00000  Uiso   1.00
H994   H     0.29051   0.39310   0.67716   0.00000  Uiso   1.00
H995   H     0.25501   0.64936   0.67879   0.00000  Uiso   1.00
H996   H     0.18819   0.63847   0.63975   0.00000  Uiso   1.00
H997   H     0.15623   0.37128   0.59994   0.00000  Uiso   1.00
H998   H     0.11694   0.60648   0.96525   0.00000  Uiso   1.00
H999   H     0.21639   0.39352   0.53475   0.00000  Uiso   1.00
H1000  H     0.12058   0.60482   0.54491   0.00000  Uiso   1.00
H1001  H     0.21275   0.39518   0.95509   0.00000  Uiso   1.00
H1002  H     0.03736   0.42462   0.75874   0.00000  Uiso   1.00
H1003  H     0.29598   0.57538   0.74126   0.00000  Uiso   1.00
H1004  H     0.29601   0.42468   0.75892   0.00000  Uiso   1.00
N1005  N     0.16667   0.61736   0.75000   0.00000  Uiso   1.00
N1006  N     0.16667   0.38264   0.75000   0.00000  Uiso   1.00
O1007  O     0.10655   0.53958   0.74999   0.00000  Uiso   1.00
O1008  O     0.22679   0.46042   0.75000   0.00000  Uiso   1.00
O1009  O     0.22679   0.53958   0.75000   0.00000  Uiso   1.00
O1010  O     0.10655   0.46042   0.74999   0.00000  Uiso   1.00
O1011  O     0.16666   0.53960   0.68513   0.00000  Uiso   1.00
O1012  O     0.16668   0.46040   0.81487   0.00000  Uiso   1.00
O1013  O     0.16668   0.53960   0.81487   0.00000  Uiso   1.00
O1014  O     0.16666   0.46040   0.68513   0.00000  Uiso   1.00
C1015  C     0.42066   0.49999   0.74999   0.00000  Uiso   1.00
C1016  C     0.37607   0.49998   0.74998   0.00000  Uiso   1.00
C1017  C     0.47139   0.35781   0.72593   0.00000  Uiso   1.00
C1018  C     0.52861   0.64219   0.77406   0.00000  Uiso   1.00
C1019  C     0.52862   0.35853   0.77406   0.00000  Uiso   1.00
C1020  C     0.47138   0.64147   0.72594   0.00000  Uiso   1.00
C1021  C     0.50122   0.49959   0.66434   0.00000  Uiso   1.00
C1022  C     0.49878   0.50041   0.83566   0.00000  Uiso   1.00
C1023  C     0.51413   0.46313   0.90635   0.00000  Uiso   1.00
C1024  C     0.48587   0.53687   0.59365   0.00000  Uiso   1.00
C1025  C     0.49727   0.50138   0.88407   0.00000  Uiso   1.00
C1026  C     0.57934   0.50001   0.75001   0.00000  Uiso   1.00
C1027  C     0.50273   0.49862   0.61593   0.00000  Uiso   1.00
C1028  C     0.48039   0.53990   0.90807   0.00000  Uiso   1.00
C1029  C     0.51961   0.46010   0.59193   0.00000  Uiso   1.00
C1030  C     0.48144   0.53936   0.95481   0.00000  Uiso   1.00
C1031  C     0.51856   0.46064   0.54519   0.00000  Uiso   1.00
C1032  C     0.49924   0.50050   0.97671   0.00000  Uiso   1.00
C1033  C     0.50076   0.49950   0.52328   0.00000  Uiso   1.00
C1034  C     0.51546   0.46251   0.95220   0.00000  Uiso   1.00
C1035  C     0.48454   0.53749   0.54780   0.00000  Uiso   1.00
C1036  C     0.46486   0.57646   0.98033   0.00000  Uiso   1.00
C1037  C     0.46669   0.57560   0.52622   0.00000  Uiso   1.00
C1038  C     0.53514   0.42354   0.51967   0.00000  Uiso   1.00
C1039  C     0.46106   0.57994   0.88456   0.00000  Uiso   1.00
C1040  C     0.48103   0.62372   0.88348   0.00000  Uiso   1.00
C1041  C     0.46305   0.66117   0.86093   0.00000  Uiso   1.00
C1042  C     0.42536   0.65504   0.83893   0.00000  Uiso   1.00
C1043  C     0.40538   0.61155   0.83979   0.00000  Uiso   1.00
C1044  C     0.42309   0.57407   0.86256   0.00000  Uiso   1.00
C1045  C     0.53894   0.42006   0.61544   0.00000  Uiso   1.00
C1046  C     0.57691   0.42593   0.63744   0.00000  Uiso   1.00
C1047  C     0.59461   0.38845   0.66021   0.00000  Uiso   1.00
C1048  C     0.53331   0.42440   0.97378   0.00000  Uiso   1.00
C1049  C     0.57464   0.34496   0.66107   0.00000  Uiso   1.00
C1050  C     0.53695   0.33883   0.63907   0.00000  Uiso   1.00
C1051  C     0.51897   0.37628   0.61652   0.00000  Uiso   1.00
C1052  C     0.35464   0.45767   0.75482   0.00000  Uiso   1.00
C1053  C     0.64536   0.54233   0.74518   0.00000  Uiso   1.00
C1054  C     0.64538   0.45770   0.75489   0.00000  Uiso   1.00
C1055  C     0.35462   0.54230   0.74511   0.00000  Uiso   1.00
C1056  C     0.62393   0.50002   0.75002   0.00000  Uiso   1.00
Cu1057 Cu    0.50000   0.54689   0.75000   0.00000  Uiso   1.00
Cu1058 Cu    0.50000   0.45311   0.75000   0.00000  Uiso   1.00
H1059  H     0.52722   0.43394   0.88781   0.00000  Uiso   1.00
H1060  H     0.37066   0.57532   0.74108   0.00000  Uiso   1.00
H1061  H     0.44863   0.37629   0.70649   0.00000  Uiso   1.00
H1062  H     0.55137   0.62371   0.79351   0.00000  Uiso   1.00
H1063  H     0.55140   0.37758   0.79348   0.00000  Uiso   1.00
H1064  H     0.44860   0.62242   0.70652   0.00000  Uiso   1.00
H1065  H     0.51043   0.62872   0.90006   0.00000  Uiso   1.00
H1066  H     0.47848   0.36153   0.86025   0.00000  Uiso   1.00
H1067  H     0.41166   0.35064   0.82121   0.00000  Uiso   1.00
H1068  H     0.37616   0.60690   0.82284   0.00000  Uiso   1.00
H1069  H     0.40743   0.54047   0.86286   0.00000  Uiso   1.00
H1070  H     0.47278   0.56606   0.61219   0.00000  Uiso   1.00
H1071  H     0.59256   0.45953   0.63714   0.00000  Uiso   1.00
H1072  H     0.62384   0.39310   0.67716   0.00000  Uiso   1.00
H1073  H     0.58834   0.64936   0.67879   0.00000  Uiso   1.00
H1074  H     0.52152   0.63847   0.63975   0.00000  Uiso   1.00
H1075  H     0.48957   0.37128   0.59994   0.00000  Uiso   1.00
H1076  H     0.45028   0.60648   0.96525   0.00000  Uiso   1.00
H1077  H     0.54972   0.39352   0.53475   0.00000  Uiso   1.00
H1078  H     0.45392   0.60482   0.54491   0.00000  Uiso   1.00
H1079  H     0.54608   0.39518   0.95509   0.00000  Uiso   1.00
H1080  H     0.37069   0.42462   0.75874   0.00000  Uiso   1.00
H1081  H     0.62931   0.57538   0.74126   0.00000  Uiso   1.00
H1082  H     0.62934   0.42468   0.75892   0.00000  Uiso   1.00
N1083  N     0.50000   0.61736   0.75000   0.00000  Uiso   1.00
N1084  N     0.50000   0.38264   0.75000   0.00000  Uiso   1.00
O1085  O     0.43988   0.53958   0.74999   0.00000  Uiso   1.00
O1086  O     0.56012   0.46042   0.75000   0.00000  Uiso   1.00
O1087  O     0.56012   0.53958   0.75000   0.00000  Uiso   1.00
O1088  O     0.43988   0.46042   0.74999   0.00000  Uiso   1.00
O1089  O     0.49999   0.53960   0.68513   0.00000  Uiso   1.00
O1090  O     0.50001   0.46040   0.81487   0.00000  Uiso   1.00
O1091  O     0.50001   0.53960   0.81487   0.00000  Uiso   1.00
O1092  O     0.49999   0.46040   0.68513   0.00000  Uiso   1.00
C1093  C     0.75400   0.49999   0.74999   0.00000  Uiso   1.00
C1094  C     0.70940   0.49998   0.74998   0.00000  Uiso   1.00
C1095  C     0.80472   0.35781   0.72593   0.00000  Uiso   1.00
C1096  C     0.86195   0.64219   0.77406   0.00000  Uiso   1.00
C1097  C     0.86195   0.35853   0.77406   0.00000  Uiso   1.00
C1098  C     0.80472   0.64147   0.72594   0.00000  Uiso   1.00
C1099  C     0.83455   0.49959   0.66434   0.00000  Uiso   1.00
C1100  C     0.83212   0.50041   0.83566   0.00000  Uiso   1.00
C1101  C     0.84746   0.46313   0.90635   0.00000  Uiso   1.00
C1102  C     0.81920   0.53687   0.59365   0.00000  Uiso   1.00
C1103  C     0.83061   0.50138   0.88407   0.00000  Uiso   1.00
C1104  C     0.91267   0.50001   0.75001   0.00000  Uiso   1.00
C1105  C     0.83606   0.49862   0.61593   0.00000  Uiso   1.00
C1106  C     0.81372   0.53990   0.90807   0.00000  Uiso   1.00
C1107  C     0.85295   0.46010   0.59193   0.00000  Uiso   1.00
C1108  C     0.81477   0.53936   0.95481   0.00000  Uiso   1.00
C1109  C     0.85190   0.46064   0.54519   0.00000  Uiso   1.00
C1110  C     0.83258   0.50050   0.97671   0.00000  Uiso   1.00
C1111  C     0.83409   0.49950   0.52328   0.00000  Uiso   1.00
C1112  C     0.84880   0.46251   0.95220   0.00000  Uiso   1.00
C1113  C     0.81787   0.53749   0.54780   0.00000  Uiso   1.00
C1114  C     0.79819   0.57646   0.98033   0.00000  Uiso   1.00
C1115  C     0.80003   0.57560   0.52622   0.00000  Uiso   1.00
C1116  C     0.86847   0.42354   0.51967   0.00000  Uiso   1.00
C1117  C     0.79439   0.57994   0.88456   0.00000  Uiso   1.00
C1118  C     0.81436   0.62372   0.88348   0.00000  Uiso   1.00
C1119  C     0.79639   0.66117   0.86093   0.00000  Uiso   1.00
C1120  C     0.75869   0.65504   0.83893   0.00000  Uiso   1.00
C1121  C     0.73872   0.61155   0.83979   0.00000  Uiso   1.00
C1122  C     0.75642   0.57407   0.86256   0.00000  Uiso   1.00
C1123  C     0.87228   0.42006   0.61544   0.00000  Uiso   1.00
C1124  C     0.91024   0.42593   0.63744   0.00000  Uiso   1.00
C1125  C     0.92795   0.38845   0.66021   0.00000  Uiso   1.00
C1126  C     0.86664   0.42440   0.97378   0.00000  Uiso   1.00
C1127  C     0.90797   0.34496   0.66107   0.00000  Uiso   1.00
C1128  C     0.87028   0.33883   0.63907   0.00000  Uiso   1.00
C1129  C     0.85231   0.37628   0.61652   0.00000  Uiso   1.00
C1130  C     0.68797   0.45767   0.75482   0.00000  Uiso   1.00
C1131  C     0.97870   0.54233   0.74518   0.00000  Uiso   1.00
C1132  C     0.97872   0.45770   0.75489   0.00000  Uiso   1.00
C1133  C     0.68795   0.54230   0.74511   0.00000  Uiso   1.00
C1134  C     0.95727   0.50002   0.75002   0.00000  Uiso   1.00
Cu1135 Cu    0.83333   0.54689   0.75000   0.00000  Uiso   1.00
Cu1136 Cu    0.83333   0.45311   0.75000   0.00000  Uiso   1.00
H1137  H     0.86055   0.43394   0.88781   0.00000  Uiso   1.00
H1138  H     0.70399   0.57532   0.74108   0.00000  Uiso   1.00
H1139  H     0.78196   0.37629   0.70649   0.00000  Uiso   1.00
H1140  H     0.88470   0.62371   0.79351   0.00000  Uiso   1.00
H1141  H     0.88474   0.37758   0.79348   0.00000  Uiso   1.00
H1142  H     0.78193   0.62242   0.70652   0.00000  Uiso   1.00
H1143  H     0.84377   0.62872   0.90006   0.00000  Uiso   1.00
H1144  H     0.81181   0.36153   0.86025   0.00000  Uiso   1.00
H1145  H     0.74499   0.35064   0.82121   0.00000  Uiso   1.00
H1146  H     0.70949   0.60690   0.82284   0.00000  Uiso   1.00
H1147  H     0.74077   0.54047   0.86286   0.00000  Uiso   1.00
H1148  H     0.80611   0.56606   0.61219   0.00000  Uiso   1.00
H1149  H     0.92590   0.45953   0.63714   0.00000  Uiso   1.00
H1150  H     0.95718   0.39310   0.67716   0.00000  Uiso   1.00
H1151  H     0.92167   0.64936   0.67879   0.00000  Uiso   1.00
H1152  H     0.85486   0.63847   0.63975   0.00000  Uiso   1.00
H1153  H     0.82290   0.37128   0.59994   0.00000  Uiso   1.00
H1154  H     0.78361   0.60648   0.96525   0.00000  Uiso   1.00
H1155  H     0.88306   0.39352   0.53475   0.00000  Uiso   1.00
H1156  H     0.78725   0.60482   0.54491   0.00000  Uiso   1.00
H1157  H     0.87942   0.39518   0.95509   0.00000  Uiso   1.00
H1158  H     0.70402   0.42462   0.75874   0.00000  Uiso   1.00
H1159  H     0.96264   0.57538   0.74126   0.00000  Uiso   1.00
H1160  H     0.96268   0.42468   0.75892   0.00000  Uiso   1.00
N1161  N     0.83333   0.61736   0.75000   0.00000  Uiso   1.00
N1162  N     0.83333   0.38264   0.75000   0.00000  Uiso   1.00
O1163  O     0.77321   0.53958   0.74999   0.00000  Uiso   1.00
O1164  O     0.89345   0.46042   0.75000   0.00000  Uiso   1.00
O1165  O     0.89345   0.53958   0.75000   0.00000  Uiso   1.00
O1166  O     0.77321   0.46042   0.74999   0.00000  Uiso   1.00
O1167  O     0.83332   0.53960   0.68513   0.00000  Uiso   1.00
O1168  O     0.83334   0.46040   0.81487   0.00000  Uiso   1.00
O1169  O     0.83334   0.53960   0.81487   0.00000  Uiso   1.00
O1170  O     0.83332   0.46040   0.68513   0.00000  Uiso   1.00
C1171  C     0.08733   0.83332   0.74999   0.00000  Uiso   1.00
C1172  C     0.04273   0.83332   0.74998   0.00000  Uiso   1.00
C1173  C     0.13805   0.69115   0.72593   0.00000  Uiso   1.00
C1174  C     0.19528   0.97552   0.77406   0.00000  Uiso   1.00
C1175  C     0.19528   0.69186   0.77406   0.00000  Uiso   1.00
C1176  C     0.13805   0.97481   0.72594   0.00000  Uiso   1.00
C1177  C     0.16788   0.83293   0.66434   0.00000  Uiso   1.00
C1178  C     0.16545   0.83374   0.83566   0.00000  Uiso   1.00
C1179  C     0.18080   0.79646   0.90635   0.00000  Uiso   1.00
C1180  C     0.15254   0.87021   0.59365   0.00000  Uiso   1.00
C1181  C     0.16394   0.83471   0.88407   0.00000  Uiso   1.00
C1182  C     0.24600   0.83334   0.75001   0.00000  Uiso   1.00
C1183  C     0.16939   0.83196   0.61593   0.00000  Uiso   1.00
C1184  C     0.14705   0.87323   0.90807   0.00000  Uiso   1.00
C1185  C     0.18628   0.79343   0.59193   0.00000  Uiso   1.00
C1186  C     0.14810   0.87270   0.95481   0.00000  Uiso   1.00
C1187  C     0.18523   0.79397   0.54519   0.00000  Uiso   1.00
C1188  C     0.16591   0.83384   0.97671   0.00000  Uiso   1.00
C1189  C     0.16742   0.83283   0.52328   0.00000  Uiso   1.00
C1190  C     0.18213   0.79584   0.95220   0.00000  Uiso   1.00
C1191  C     0.15121   0.87083   0.54780   0.00000  Uiso   1.00
C1192  C     0.13153   0.90980   0.98033   0.00000  Uiso   1.00
C1193  C     0.13336   0.90894   0.52622   0.00000  Uiso   1.00
C1194  C     0.20181   0.75687   0.51967   0.00000  Uiso   1.00
C1195  C     0.12772   0.91327   0.88456   0.00000  Uiso   1.00
C1196  C     0.14769   0.95705   0.88348   0.00000  Uiso   1.00
C1197  C     0.12972   0.99450   0.86093   0.00000  Uiso   1.00
C1198  C     0.09203   0.98837   0.83893   0.00000  Uiso   1.00
C1199  C     0.07205   0.94488   0.83979   0.00000  Uiso   1.00
C1200  C     0.08976   0.90740   0.86256   0.00000  Uiso   1.00
C1201  C     0.20561   0.75339   0.61544   0.00000  Uiso   1.00
C1202  C     0.24357   0.75927   0.63744   0.00000  Uiso   1.00
C1203  C     0.26128   0.72179   0.66021   0.00000  Uiso   1.00
C1204  C     0.19997   0.75773   0.97378   0.00000  Uiso   1.00
C1205  C     0.24131   0.67830   0.66107   0.00000  Uiso   1.00
C1206  C     0.20361   0.67216   0.63907   0.00000  Uiso   1.00
C1207  C     0.18564   0.70962   0.61652   0.00000  Uiso   1.00
C1208  C     0.02130   0.79101   0.75482   0.00000  Uiso   1.00
C1209  C     0.31203   0.87566   0.74518   0.00000  Uiso   1.00
C1210  C     0.31205   0.79103   0.75489   0.00000  Uiso   1.00
C1211  C     0.02128   0.87563   0.74511   0.00000  Uiso   1.00
C1212  C     0.29060   0.83335   0.75002   0.00000  Uiso   1.00
Cu1213 Cu    0.16667   0.88022   0.75000   0.00000  Uiso   1.00
Cu1214 Cu    0.16667   0.78645   0.75000   0.00000  Uiso   1.00
H1215  H     0.19389   0.76728   0.88781   0.00000  Uiso   1.00
H1216  H     0.03732   0.90865   0.74108   0.00000  Uiso   1.00
H1217  H     0.11530   0.70963   0.70649   0.00000  Uiso   1.00
H1218  H     0.21804   0.95704   0.79351   0.00000  Uiso   1.00
H1219  H     0.21807   0.71091   0.79348   0.00000  Uiso   1.00
H1220  H     0.11526   0.95576   0.70652   0.00000  Uiso   1.00
H1221  H     0.17710   0.96205   0.90006   0.00000  Uiso   1.00
H1222  H     0.14514   0.69486   0.86025   0.00000  Uiso   1.00
H1223  H     0.07833   0.68397   0.82121   0.00000  Uiso   1.00
H1224  H     0.04282   0.94023   0.82284   0.00000  Uiso   1.00
H1225  H     0.07410   0.87380   0.86286   0.00000  Uiso   1.00
H1226  H     0.13945   0.89939   0.61219   0.00000  Uiso   1.00
H1227  H     0.25923   0.79286   0.63714   0.00000  Uiso   1.00
H1228  H     0.29051   0.72643   0.67716   0.00000  Uiso   1.00
H1229  H     0.25501   0.98269   0.67879   0.00000  Uiso   1.00
H1230  H     0.18819   0.97180   0.63975   0.00000  Uiso   1.00
H1231  H     0.15623   0.70461   0.59994   0.00000  Uiso   1.00
H1232  H     0.11694   0.93981   0.96525   0.00000  Uiso   1.00
H1233  H     0.21639   0.72685   0.53475   0.00000  Uiso   1.00
H1234  H     0.12058   0.93815   0.54491   0.00000  Uiso   1.00
H1235  H     0.21275   0.72851   0.95509   0.00000  Uiso   1.00
H1236  H     0.03736   0.75795   0.75874   0.00000  Uiso   1.00
H1237  H     0.29598   0.90871   0.74126   0.00000  Uiso   1.00
H1238  H     0.29601   0.75801   0.75892   0.00000  Uiso   1.00
N1239  N     0.16667   0.95069   0.75000   0.00000  Uiso   1.00
N1240  N     0.16667   0.71598   0.75000   0.00000  Uiso   1.00
O1241  O     0.10655   0.87291   0.74999   0.00000  Uiso   1.00
O1242  O     0.22679   0.79375   0.75000   0.00000  Uiso   1.00
O1243  O     0.22679   0.87291   0.75000   0.00000  Uiso   1.00
O1244  O     0.10655   0.79375   0.74999   0.00000  Uiso   1.00
O1245  O     0.16666   0.87293   0.68513   0.00000  Uiso   1.00
O1246  O     0.16668   0.79373   0.81487   0.00000  Uiso   1.00
O1247  O     0.16668   0.87293   0.81487   0.00000  Uiso   1.00
O1248  O     0.16666   0.79373   0.68513   0.00000  Uiso   1.00
C1249  C     0.42066   0.83332   0.74999   0.00000  Uiso   1.00
C1250  C     0.37607   0.83332   0.74998   0.00000  Uiso   1.00
C1251  C     0.47139   0.69115   0.72593   0.00000  Uiso   1.00
C1252  C     0.52861   0.97552   0.77406   0.00000  Uiso   1.00
C1253  C     0.52862   0.69186   0.77406   0.00000  Uiso   1.00
C1254  C     0.47138   0.97481   0.72594   0.00000  Uiso   1.00
C1255  C     0.50122   0.83293   0.66434   0.00000  Uiso   1.00
C1256  C     0.49878   0.83374   0.83566   0.00000  Uiso   1.00
C1257  C     0.51413   0.79646   0.90635   0.00000  Uiso   1.00
C1258  C     0.48587   0.87021   0.59365   0.00000  Uiso   1.00
C1259  C     0.49727   0.83471   0.88407   0.00000  Uiso   1.00
C1260  C     0.57934   0.83334   0.75001   0.00000  Uiso   1.00
C1261  C     0.50273   0.83196   0.61593   0.00000  Uiso   1.00
C1262  C     0.48039   0.87323   0.90807   0.00000  Uiso   1.00
C1263  C     0.51961   0.79343   0.59193   0.00000  Uiso   1.00
C1264  C     0.48144   0.87270   0.95481   0.00000  Uiso   1.00
C1265  C     0.51856   0.79397   0.54519   0.00000  Uiso   1.00
C1266  C     0.49924   0.83384   0.97671   0.00000  Uiso   1.00
C1267  C     0.50076   0.83283   0.52328   0.00000  Uiso   1.00
C1268  C     0.51546   0.79584   0.95220   0.00000  Uiso   1.00
C1269  C     0.48454   0.87083   0.54780   0.00000  Uiso   1.00
C1270  C     0.46486   0.90980   0.98033   0.00000  Uiso   1.00
C1271  C     0.46669   0.90894   0.52622   0.00000  Uiso   1.00
C1272  C     0.53514   0.75687   0.51967   0.00000  Uiso   1.00
C1273  C     0.46106   0.91327   0.88456   0.00000  Uiso   1.00
C1274  C     0.48103   0.95705   0.88348   0.00000  Uiso   1.00
C1275  C     0.46305   0.99450   0.86093   0.00000  Uiso   1.00
C1276  C     0.42536   0.98837   0.83893   0.00000  Uiso   1.00
C1277  C     0.40538   0.94488   0.83979   0.00000  Uiso   1.00
C1278  C     0.42309   0.90740   0.86256   0.00000  Uiso   1.00
C1279  C     0.53894   0.75339   0.61544   0.00000  Uiso   1.00
C1280  C     0.57691   0.75927   0.63744   0.00000  Uiso   1.00
C1281  C     0.59461   0.72179   0.66021   0.00000  Uiso   1.00
C1282  C     0.53331   0.75773   0.97378   0.00000  Uiso   1.00
C1283  C     0.57464   0.67830   0.66107   0.00000  Uiso   1.00
C1284  C     0.53695   0.67216   0.63907   0.00000  Uiso   1.00
C1285  C     0.51897   0.70962   0.61652   0.00000  Uiso   1.00
C1286  C     0.35464   0.79101   0.75482   0.00000  Uiso   1.00
C1287  C     0.64536   0.87566   0.74518   0.00000  Uiso   1.00
C1288  C     0.64538   0.79103   0.75489   0.00000  Uiso   1.00
C1289  C     0.35462   0.87563   0.74511   0.00000  Uiso   1.00
C1290  C     0.62393   0.83335   0.75002   0.00000  Uiso   1.00
Cu1291 Cu    0.50000   0.88022   0.75000   0.00000  Uiso   1.00
Cu1292 Cu    0.50000   0.78645   0.75000   0.00000  Uiso   1.00
H1293  H     0.52722   0.76728   0.88781   0.00000  Uiso   1.00
H1294  H     0.37066   0.90865   0.74108   0.00000  Uiso   1.00
H1295  H     0.44863   0.70963   0.70649   0.00000  Uiso   1.00
H1296  H     0.55137   0.95704   0.79351   0.00000  Uiso   1.00
H1297  H     0.55140   0.71091   0.79348   0.00000  Uiso   1.00
H1298  H     0.44860   0.95576   0.70652   0.00000  Uiso   1.00
H1299  H     0.51043   0.96205   0.90006   0.00000  Uiso   1.00
H1300  H     0.47848   0.69486   0.86025   0.00000  Uiso   1.00
H1301  H     0.41166   0.68397   0.82121   0.00000  Uiso   1.00
H1302  H     0.37616   0.94023   0.82284   0.00000  Uiso   1.00
H1303  H     0.40743   0.87380   0.86286   0.00000  Uiso   1.00
H1304  H     0.47278   0.89939   0.61219   0.00000  Uiso   1.00
H1305  H     0.59256   0.79286   0.63714   0.00000  Uiso   1.00
H1306  H     0.62384   0.72643   0.67716   0.00000  Uiso   1.00
H1307  H     0.58834   0.98269   0.67879   0.00000  Uiso   1.00
H1308  H     0.52152   0.97180   0.63975   0.00000  Uiso   1.00
H1309  H     0.48957   0.70461   0.59994   0.00000  Uiso   1.00
H1310  H     0.45028   0.93981   0.96525   0.00000  Uiso   1.00
H1311  H     0.54972   0.72685   0.53475   0.00000  Uiso   1.00
H1312  H     0.45392   0.93815   0.54491   0.00000  Uiso   1.00
H1313  H     0.54608   0.72851   0.95509   0.00000  Uiso   1.00
H1314  H     0.37069   0.75795   0.75874   0.00000  Uiso   1.00
H1315  H     0.62931   0.90871   0.74126   0.00000  Uiso   1.00
H1316  H     0.62934   0.75801   0.75892   0.00000  Uiso   1.00
N1317  N     0.50000   0.95069   0.75000   0.00000  Uiso   1.00
N1318  N     0.50000   0.71598   0.75000   0.00000  Uiso   1.00
O1319  O     0.43988   0.87291   0.74999   0.00000  Uiso   1.00
O1320  O     0.56012   0.79375   0.75000   0.00000  Uiso   1.00
O1321  O     0.56012   0.87291   0.75000   0.00000  Uiso   1.00
O1322  O     0.43988   0.79375   0.74999   0.00000  Uiso   1.00
O1323  O     0.49999   0.87293   0.68513   0.00000  Uiso   1.00
O1324  O     0.50001   0.79373   0.81487   0.00000  Uiso   1.00
O1325  O     0.50001   0.87293   0.81487   0.00000  Uiso   1.00
O1326  O     0.49999   0.79373   0.68513   0.00000  Uiso   1.00
C1327  C     0.75400   0.83332   0.74999   0.00000  Uiso   1.00
C1328  C     0.70940   0.83332   0.74998   0.00000  Uiso   1.00
C1329  C     0.80472   0.69115   0.72593   0.00000  Uiso   1.00
C1330  C     0.86195   0.97552   0.77406   0.00000  Uiso   1.00
C1331  C     0.86195   0.69186   0.77406   0.00000  Uiso   1.00
C1332  C     0.80472   0.97481   0.72594   0.00000  Uiso   1.00
C1333  C     0.83455   0.83293   0.66434   0.00000  Uiso   1.00
C1334  C     0.83212   0.83374   0.83566   0.00000  Uiso   1.00
C1335  C     0.84746   0.79646   0.90635   0.00000  Uiso   1.00
C1336  C     0.81920   0.87021   0.59365   0.00000  Uiso   1.00
C1337  C     0.83061   0.83471   0.88407   0.00000  Uiso   1.00
C1338  C     0.91267   0.83334   0.75001   0.00000  Uiso   1.00
C1339  C     0.83606   0.83196   0.61593   0.00000  Uiso   1.00
C1340  C     0.81372   0.87323   0.90807   0.00000  Uiso   1.00
C1341  C     0.85295   0.79343   0.59193   0.00000  Uiso   1.00
C1342  C     0.81477   0.87270   0.95481   0.00000  Uiso   1.00
C1343  C     0.85190   0.79397   0.54519   0.00000  Uiso   1.00
C1344  C     0.83258   0.83384   0.97671   0.00000  Uiso   1.00
C1345  C     0.83409   0.83283   0.52328   0.00000  Uiso   1.00
C1346  C     0.84880   0.79584   0.95220   0.00000  Uiso   1.00
C1347  C     0.81787   0.87083   0.54780   0.00000  Uiso   1.00
C1348  C     0.79819   0.90980   0.98033   0.00000  Uiso   1.00
C1349  C     0.80003   0.90894   0.52622   0.00000  Uiso   1.00
C1350  C     0.86847   0.75687   0.51967   0.00000  Uiso   1.00
C1351  C     0.79439   0.91327   0.88456   0.00000  Uiso   1.00
C1352  C     0.81436   0.95705   0.88348   0.00000  Uiso   1.00
C1353  C     0.79639   0.99450   0.86093   0.00000  Uiso   1.00
C1354  C     0.75869   0.98837   0.83893   0.00000  Uiso   1.00
C1355  C     0.73872   0.94488   0.83979   0.00000  Uiso   1.00
C1356  C     0.75642   0.90740   0.86256   0.00000  Uiso   1.00
C1357  C     0.87228   0.75339   0.61544   0.00000  Uiso   1.00
C1358  C     0.91024   0.75927   0.63744   0.00000  Uiso   1.00
C1359  C     0.92795   0.72179   0.66021   0.00000  Uiso   1.00
C1360  C     0.86664   0.75773   0.97378   0.00000  Uiso   1.00
C1361  C     0.90797   0.67830   0.66107   0.00000  Uiso   1.00
C1362  C     0.87028   0.67216   0.63907   0.00000  Uiso   1.00
C1363  C     0.85231   0.70962   0.61652   0.00000  Uiso   1.00
C1364  C     0.68797   0.79101   0.75482   0.00000  Uiso   1.00
C1365  C     0.97870   0.87566   0.74518   0.00000  Uiso   1.00
C1366  C     0.97872   0.79103   0.75489   0.00000  Uiso   1.00
C1367  C     0.68795   0.87563   0.74511   0.00000  Uiso   1.00
C1368  C     0.95727   0.83335   0.75002   0.00000  Uiso   1.00
Cu1369 Cu    0.83333   0.88022   0.75000   0.00000  Uiso   1.00
Cu1370 Cu    0.83333   0.78645   0.75000   0.00000  Uiso   1.00
H1371  H     0.86055   0.76728   0.88781   0.00000  Uiso   1.00
H1372  H     0.70399   0.90865   0.74108   0.00000  Uiso   1.00
H1373  H     0.78196   0.70963   0.70649   0.00000  Uiso   1.00
H1374  H     0.88470   0.95704   0.79351   0.00000  Uiso   1.00
H1375  H     0.88474   0.71091   0.79348   0.00000  Uiso   1.00
H1376  H     0.78193   0.95576   0.70652   0.00000  Uiso   1.00
H1377  H     0.84377   0.96205   0.90006   0.00000  Uiso   1.00
H1378  H     0.81181   0.69486   0.86025   0.00000  Uiso   1.00
H1379  H     0.74499   0.68397   0.82121   0.00000  Uiso   1.00
H1380  H     0.70949   0.94023   0.82284   0.00000  Uiso   1.00
H1381  H     0.74077   0.87380   0.86286   0.00000  Uiso   1.00
H1382  H     0.80611   0.89939   0.61219   0.00000  Uiso   1.00
H1383  H     0.92590   0.79286   0.63714   0.00000  Uiso   1.00
H1384  H     0.95718   0.72643   0.67716   0.00000  Uiso   1.00
H1385  H     0.92167   0.98269   0.67879   0.00000  Uiso   1.00
H1386  H     0.85486   0.97180   0.63975   0.00000  Uiso   1.00
H1387  H     0.82290   0.70461   0.59994   0.00000  Uiso   1.00
H1388  H     0.78361   0.93981   0.96525   0.00000  Uiso   1.00
H1389  H     0.88306   0.72685   0.53475   0.00000  Uiso   1.00
H1390  H     0.78725   0.93815   0.54491   0.00000  Uiso   1.00
H1391  H     0.87942   0.72851   0.95509   0.00000  Uiso   1.00
H1392  H     0.70402   0.75795   0.75874   0.00000  Uiso   1.00
H1393  H     0.96264   0.90871   0.74126   0.00000  Uiso   1.00
H1394  H     0.96268   0.75801   0.75892   0.00000  Uiso   1.00
N1395  N     0.83333   0.95069   0.75000   0.00000  Uiso   1.00
N1396  N     0.83333   0.71598   0.75000   0.00000  Uiso   1.00
O1397  O     0.77321   0.87291   0.74999   0.00000  Uiso   1.00
O1398  O     0.89345   0.79375   0.75000   0.00000  Uiso   1.00
O1399  O     0.89345   0.87291   0.75000   0.00000  Uiso   1.00
O1400  O     0.77321   0.79375   0.74999   0.00000  Uiso   1.00
O1401  O     0.83332   0.87293   0.68513   0.00000  Uiso   1.00
O1402  O     0.83334   0.79373   0.81487   0.00000  Uiso   1.00
O1403  O     0.83334   0.87293   0.81487   0.00000  Uiso   1.00
O1404  O     0.83332   0.79373   0.68513   0.00000  Uiso   1.00
loop_
_geom_bond_atom_site_label_1
_geom_bond_atom_site_label_2
_geom_bond_distance
_geom_bond_site_symmetry_2
_ccdc_geom_bond_type
C1     O71     1.288   .     A
C1     O74     1.288   .     A
C1     C2      1.448   .     S
C2     C41     1.401   .     A
C2     C38     1.401   .     A
C3     N70     1.366   .     A
C3     H47     1.082   .     S
C3     C474    1.414   1_545 S
C4     N69     1.366   .     A
C4     H48     1.082   .     S
C4     C239    1.414   .     S
C5     N70     1.366   .     A
C5     H49     1.082   .     S
C5     C472    1.414   1_545 S
C6     N69     1.366   .     A
C6     H50     1.082   .     S
C6     C237    1.414   .     S
C7     O75     1.294   .     A
C7     O78     1.289   .     A
C7     C13     1.464   .     S
C8     O76     1.294   .     A
C8     O77     1.289   .     A
C8     C11     1.464   .     S
C9     H45     1.085   .     S
C9     C20     1.387   .     A
C9     C11     1.398   .     A
C10    H56     1.085   .     S
C10    C21     1.387   .     A
C10    C13     1.398   .     A
C11    C14     1.420   .     A
C12    C42     1.448   .     S
C12    O72     1.288   .     A
C12    O73     1.288   .     A
C13    C15     1.420   .     A
C14    C16     1.413   .     A
C14    C25     1.488   .     S
C15    C17     1.413   .     A
C15    C31     1.488   .     S
C16    C18     1.418   .     A
C16    C22     1.410   .     A
C17    C19     1.418   .     A
C17    C24     1.410   .     A
C18    C20     1.408   .     A
C18    C721    1.409   .     S
C19    C21     1.408   .     A
C19    C720    1.409   1_554 S
C20    C34     1.397   .     A
C21    C23     1.397   .     A
C22    H62     1.081   .     S
C22    C725    1.389   .     S
C23    H64     1.084   .     S
C23    C724    1.389   1_554 S
C24    H63     1.081   .     S
C24    C736    1.389   1_554 S
C25    C26     1.406   .     A
C25    C30     1.405   .     A
C26    C27     1.398   .     A
C26    H51     1.083   .     S
C27    C28     1.398   .     A
C27    H286    1.082   .     S
C28    C29     1.398   .     A
C28    H287    1.083   .     S
C29    H54     1.082   .     S
C29    C30     1.399   .     A
C30    H55     1.083   .     S
C31    C37     1.406   .     A
C31    C32     1.405   .     A
C32    H57     1.083   .     S
C32    C33     1.399   .     A
C33    H58     1.082   .     S
C33    C35     1.398   .     A
C34    H65     1.084   .     S
C34    C726    1.389   .     S
C35    C36     1.398   .     A
C35    H527    1.083   1_545 S
C36    C37     1.398   .     A
C36    H528    1.082   1_545 S
C37    H61     1.083   .     S
C38    H66     1.083   .     S
C38    C196    1.383   1_455 S
C39    C42     1.401   .     A
C39    H67     1.083   .     S
C39    C119    1.383   .     S
C40    C42     1.401   .     A
C40    H68     1.083   .     S
C40    C116    1.383   .     S
C41    H46     1.083   .     S
C41    C195    1.383   1_455 S
Cu43   O73     1.964   .     S
Cu43   O71     1.963   .     S
Cu43   O75     1.969   .     S
Cu43   Cu44    2.670   .     S
Cu43   O77     1.975   .     S
Cu43   N69     2.006   .     S
Cu44   O76     1.969   .     S
Cu44   N70     2.006   .     S
Cu44   O74     1.964   .     S
Cu44   O78     1.975   .     S
Cu44   O72     1.963   .     S
H52    C495    1.082   1_545 S
H53    C496    1.083   1_545 S
H59    C269    1.083   .     S
H60    C270    1.082   .     S
C79    O149    1.288   .     A
C79    O152    1.288   .     A
C79    C80     1.448   .     S
C80    C119    1.401   .     A
C80    C116    1.401   .     A
C81    N148    1.366   .     A
C81    H125    1.082   .     S
C81    C552    1.414   1_545 S
C82    N147    1.366   .     A
C82    H126    1.082   .     S
C82    C317    1.414   .     S
C83    N148    1.366   .     A
C83    H127    1.082   .     S
C83    C550    1.414   1_545 S
C84    N147    1.366   .     A
C84    H128    1.082   .     S
C84    C315    1.414   .     S
C85    O153    1.294   .     A
C85    O156    1.289   .     A
C85    C91     1.464   .     S
C86    O154    1.294   .     A
C86    O155    1.289   .     A
C86    C89     1.464   .     S
C87    H123    1.085   .     S
C87    C98     1.387   .     A
C87    C89     1.398   .     A
C88    H134    1.085   .     S
C88    C99     1.387   .     A
C88    C91     1.398   .     A
C89    C92     1.420   .     A
C90    C120    1.448   .     S
C90    O150    1.288   .     A
C90    O151    1.288   .     A
C91    C93     1.420   .     A
C92    C94     1.413   .     A
C92    C103    1.488   .     S
C93    C95     1.413   .     A
C93    C109    1.488   .     S
C94    C96     1.418   .     A
C94    C100    1.410   .     A
C95    C97     1.418   .     A
C95    C102    1.410   .     A
C96    C98     1.408   .     A
C96    C799    1.409   .     S
C97    C99     1.408   .     A
C97    C798    1.409   1_554 S
C98    C112    1.397   .     A
C99    C101    1.397   .     A
C100   H140    1.081   .     S
C100   C803    1.389   .     S
C101   H142    1.084   .     S
C101   C802    1.389   1_554 S
C102   H141    1.081   .     S
C102   C814    1.389   1_554 S
C103   C104    1.406   .     A
C103   C108    1.405   .     A
C104   C105    1.398   .     A
C104   H129    1.083   .     S
C105   C106    1.398   .     A
C105   H364    1.082   .     S
C106   C107    1.398   .     A
C106   H365    1.083   .     S
C107   H132    1.082   .     S
C107   C108    1.399   .     A
C108   H133    1.083   .     S
C109   C115    1.406   .     A
C109   C110    1.405   .     A
C110   H135    1.083   .     S
C110   C111    1.399   .     A
C111   H136    1.082   .     S
C111   C113    1.398   .     A
C112   H143    1.084   .     S
C112   C804    1.389   .     S
C113   C114    1.398   .     A
C113   H605    1.083   1_545 S
C114   C115    1.398   .     A
C114   H606    1.082   1_545 S
C115   H139    1.083   .     S
C116   H144    1.083   .     S
C117   C120    1.401   .     A
C117   H145    1.083   .     S
C117   C197    1.383   .     S
C118   C120    1.401   .     A
C118   H146    1.083   .     S
C118   C194    1.383   .     S
C119   H124    1.083   .     S
Cu121  O151    1.964   .     S
Cu121  O149    1.963   .     S
Cu121  O153    1.969   .     S
Cu121  Cu122   2.670   .     S
Cu121  O155    1.975   .     S
Cu121  N147    2.006   .     S
Cu122  O154    1.969   .     S
Cu122  N148    2.006   .     S
Cu122  O152    1.964   .     S
Cu122  O156    1.975   .     S
Cu122  O150    1.963   .     S
H130   C573    1.082   1_545 S
H131   C574    1.083   1_545 S
H137   C347    1.083   .     S
H138   C348    1.082   .     S
C157   O227    1.288   .     A
C157   O230    1.288   .     A
C157   C158    1.448   .     S
C158   C197    1.401   .     A
C158   C194    1.401   .     A
C159   N226    1.366   .     A
C159   H203    1.082   .     S
C159   C630    1.414   1_545 S
C160   N225    1.366   .     A
C160   H204    1.082   .     S
C160   C395    1.414   .     S
C161   N226    1.366   .     A
C161   H205    1.082   .     S
C161   C628    1.414   1_545 S
C162   N225    1.366   .     A
C162   H206    1.082   .     S
C162   C393    1.414   .     S
C163   O231    1.294   .     A
C163   O234    1.289   .     A
C163   C169    1.464   .     S
C164   O232    1.294   .     A
C164   O233    1.289   .     A
C164   C167    1.464   .     S
C165   H201    1.085   .     S
C165   C176    1.387   .     A
C165   C167    1.398   .     A
C166   H212    1.085   .     S
C166   C177    1.387   .     A
C166   C169    1.398   .     A
C167   C170    1.420   .     A
C168   C198    1.448   .     S
C168   O228    1.288   .     A
C168   O229    1.288   .     A
C169   C171    1.420   .     A
C170   C172    1.413   .     A
C170   C181    1.488   .     S
C171   C173    1.413   .     A
C171   C187    1.488   .     S
C172   C174    1.418   .     A
C172   C178    1.410   .     A
C173   C175    1.418   .     A
C173   C180    1.410   .     A
C174   C176    1.408   .     A
C174   C877    1.409   .     S
C175   C177    1.408   .     A
C175   C876    1.409   1_554 S
C176   C190    1.397   .     A
C177   C179    1.397   .     A
C178   H218    1.081   .     S
C178   C881    1.389   .     S
C179   H220    1.084   .     S
C179   C880    1.389   1_554 S
C180   H219    1.081   .     S
C180   C892    1.389   1_554 S
C181   C182    1.406   .     A
C181   C186    1.405   .     A
C182   C183    1.398   .     A
C182   H207    1.083   .     S
C183   C184    1.398   .     A
C183   H442    1.082   .     S
C184   C185    1.398   .     A
C184   H443    1.083   .     S
C185   H210    1.082   .     S
C185   C186    1.399   .     A
C186   H211    1.083   .     S
C187   C193    1.406   .     A
C187   C188    1.405   .     A
C188   H213    1.083   .     S
C188   C189    1.399   .     A
C189   H214    1.082   .     S
C189   C191    1.398   .     A
C190   H221    1.084   .     S
C190   C882    1.389   .     S
C191   C192    1.398   .     A
C191   H683    1.083   1_545 S
C192   C193    1.398   .     A
C192   H684    1.082   1_545 S
C193   H217    1.083   .     S
C194   H222    1.083   .     S
C195   C198    1.401   .     A
C195   H223    1.083   .     S
C195   C41     1.383   1_655 S
C196   C198    1.401   .     A
C196   H224    1.083   .     S
C196   C38     1.383   1_655 S
C197   H202    1.083   .     S
Cu199  O229    1.964   .     S
Cu199  O227    1.963   .     S
Cu199  O231    1.969   .     S
Cu199  Cu200   2.670   .     S
Cu199  O233    1.975   .     S
Cu199  N225    2.006   .     S
Cu200  O232    1.969   .     S
Cu200  N226    2.006   .     S
Cu200  O230    1.964   .     S
Cu200  O234    1.975   .     S
Cu200  O228    1.963   .     S
H208   C651    1.082   1_545 S
H209   C652    1.083   1_545 S
H215   C425    1.083   .     S
H216   C426    1.082   .     S
C235   O305    1.288   .     A
C235   O308    1.288   .     A
C235   C236    1.448   .     S
C236   C275    1.401   .     A
C236   C272    1.401   .     A
C237   N304    1.366   .     A
C237   H281    1.082   .     S
C238   N303    1.366   .     A
C238   H282    1.082   .     S
C238   C473    1.414   .     S
C239   N304    1.366   .     A
C239   H283    1.082   .     S
C240   N303    1.366   .     A
C240   H284    1.082   .     S
C240   C471    1.414   .     S
C241   O309    1.294   .     A
C241   O312    1.289   .     A
C241   C247    1.464   .     S
C242   O310    1.294   .     A
C242   O311    1.289   .     A
C242   C245    1.464   .     S
C243   H279    1.085   .     S
C243   C254    1.387   .     A
C243   C245    1.398   .     A
C244   H290    1.085   .     S
C244   C255    1.387   .     A
C244   C247    1.398   .     A
C245   C248    1.420   .     A
C246   C276    1.448   .     S
C246   O306    1.288   .     A
C246   O307    1.288   .     A
C247   C249    1.420   .     A
C248   C250    1.413   .     A
C248   C259    1.488   .     S
C249   C251    1.413   .     A
C249   C265    1.488   .     S
C250   C252    1.418   .     A
C250   C256    1.410   .     A
C251   C253    1.418   .     A
C251   C258    1.410   .     A
C252   C254    1.408   .     A
C252   C955    1.409   .     S
C253   C255    1.408   .     A
C253   C954    1.409   1_554 S
C254   C268    1.397   .     A
C255   C257    1.397   .     A
C256   H296    1.081   .     S
C256   C959    1.389   .     S
C257   H298    1.084   .     S
C257   C958    1.389   1_554 S
C258   H297    1.081   .     S
C258   C970    1.389   1_554 S
C259   C260    1.406   .     A
C259   C264    1.405   .     A
C260   C261    1.398   .     A
C260   H285    1.083   .     S
C261   C262    1.398   .     A
C261   H520    1.082   .     S
C262   C263    1.398   .     A
C262   H521    1.083   .     S
C263   H288    1.082   .     S
C263   C264    1.399   .     A
C264   H289    1.083   .     S
C265   C271    1.406   .     A
C265   C266    1.405   .     A
C266   H291    1.083   .     S
C266   C267    1.399   .     A
C267   H292    1.082   .     S
C267   C269    1.398   .     A
C268   H299    1.084   .     S
C268   C960    1.389   .     S
C269   C270    1.398   .     A
C270   C271    1.398   .     A
C271   H295    1.083   .     S
C272   H300    1.083   .     S
C272   C430    1.383   1_455 S
C273   C276    1.401   .     A
C273   H301    1.083   .     S
C273   C353    1.383   .     S
C274   C276    1.401   .     A
C274   H302    1.083   .     S
C274   C350    1.383   .     S
C275   H280    1.083   .     S
C275   C429    1.383   1_455 S
Cu277  O307    1.964   .     S
Cu277  O305    1.963   .     S
Cu277  O309    1.969   .     S
Cu277  Cu278   2.670   .     S
Cu277  O311    1.975   .     S
Cu277  N303    2.006   .     S
Cu278  O310    1.969   .     S
Cu278  N304    2.006   .     S
Cu278  O308    1.964   .     S
Cu278  O312    1.975   .     S
Cu278  O306    1.963   .     S
H293   C503    1.083   .     S
H294   C504    1.082   .     S
C313   O383    1.288   .     A
C313   O386    1.288   .     A
C313   C314    1.448   .     S
C314   C353    1.401   .     A
C314   C350    1.401   .     A
C315   N382    1.366   .     A
C315   H359    1.082   .     S
C316   N381    1.366   .     A
C316   H360    1.082   .     S
C316   C551    1.414   .     S
C317   N382    1.366   .     A
C317   H361    1.082   .     S
C318   N381    1.366   .     A
C318   H362    1.082   .     S
C318   C549    1.414   .     S
C319   O387    1.294   .     A
C319   O390    1.289   .     A
C319   C325    1.464   .     S
C320   O388    1.294   .     A
C320   O389    1.289   .     A
C320   C323    1.464   .     S
C321   H357    1.085   .     S
C321   C332    1.387   .     A
C321   C323    1.398   .     A
C322   H368    1.085   .     S
C322   C333    1.387   .     A
C322   C325    1.398   .     A
C323   C326    1.420   .     A
C324   C354    1.448   .     S
C324   O384    1.288   .     A
C324   O385    1.288   .     A
C325   C327    1.420   .     A
C326   C328    1.413   .     A
C326   C337    1.488   .     S
C327   C329    1.413   .     A
C327   C343    1.488   .     S
C328   C330    1.418   .     A
C328   C334    1.410   .     A
C329   C331    1.418   .     A
C329   C336    1.410   .     A
C330   C332    1.408   .     A
C330   C1033   1.409   .     S
C331   C333    1.408   .     A
C331   C1032   1.409   1_554 S
C332   C346    1.397   .     A
C333   C335    1.397   .     A
C334   H374    1.081   .     S
C334   C1037   1.389   .     S
C335   H376    1.084   .     S
C335   C1036   1.389   1_554 S
C336   H375    1.081   .     S
C336   C1048   1.389   1_554 S
C337   C338    1.406   .     A
C337   C342    1.405   .     A
C338   C339    1.398   .     A
C338   H363    1.083   .     S
C339   C340    1.398   .     A
C339   H598    1.082   .     S
C340   C341    1.398   .     A
C340   H599    1.083   .     S
C341   H366    1.082   .     S
C341   C342    1.399   .     A
C342   H367    1.083   .     S
C343   C349    1.406   .     A
C343   C344    1.405   .     A
C344   H369    1.083   .     S
C344   C345    1.399   .     A
C345   H370    1.082   .     S
C345   C347    1.398   .     A
C346   H377    1.084   .     S
C346   C1038   1.389   .     S
C347   C348    1.398   .     A
C348   C349    1.398   .     A
C349   H373    1.083   .     S
C350   H378    1.083   .     S
C351   C354    1.401   .     A
C351   H379    1.083   .     S
C351   C431    1.383   .     S
C352   C354    1.401   .     A
C352   H380    1.083   .     S
C352   C428    1.383   .     S
C353   H358    1.083   .     S
Cu355  O385    1.964   .     S
Cu355  O383    1.963   .     S
Cu355  O387    1.969   .     S
Cu355  Cu356   2.670   .     S
Cu355  O389    1.975   .     S
Cu355  N381    2.006   .     S
Cu356  O388    1.969   .     S
Cu356  N382    2.006   .     S
Cu356  O386    1.964   .     S
Cu356  O390    1.975   .     S
Cu356  O384    1.963   .     S
H371   C581    1.083   .     S
H372   C582    1.082   .     S
C391   O461    1.288   .     A
C391   O464    1.288   .     A
C391   C392    1.448   .     S
C392   C431    1.401   .     A
C392   C428    1.401   .     A
C393   N460    1.366   .     A
C393   H437    1.082   .     S
C394   N459    1.366   .     A
C394   H438    1.082   .     S
C394   C629    1.414   .     S
C395   N460    1.366   .     A
C395   H439    1.082   .     S
C396   N459    1.366   .     A
C396   H440    1.082   .     S
C396   C627    1.414   .     S
C397   O465    1.294   .     A
C397   O468    1.289   .     A
C397   C403    1.464   .     S
C398   O466    1.294   .     A
C398   O467    1.289   .     A
C398   C401    1.464   .     S
C399   H435    1.085   .     S
C399   C410    1.387   .     A
C399   C401    1.398   .     A
C400   H446    1.085   .     S
C400   C411    1.387   .     A
C400   C403    1.398   .     A
C401   C404    1.420   .     A
C402   C432    1.448   .     S
C402   O462    1.288   .     A
C402   O463    1.288   .     A
C403   C405    1.420   .     A
C404   C406    1.413   .     A
C404   C415    1.488   .     S
C405   C407    1.413   .     A
C405   C421    1.488   .     S
C406   C408    1.418   .     A
C406   C412    1.410   .     A
C407   C409    1.418   .     A
C407   C414    1.410   .     A
C408   C410    1.408   .     A
C408   C1111   1.409   .     S
C409   C411    1.408   .     A
C409   C1110   1.409   1_554 S
C410   C424    1.397   .     A
C411   C413    1.397   .     A
C412   H452    1.081   .     S
C412   C1115   1.389   .     S
C413   H454    1.084   .     S
C413   C1114   1.389   1_554 S
C414   H453    1.081   .     S
C414   C1126   1.389   1_554 S
C415   C416    1.406   .     A
C415   C420    1.405   .     A
C416   C417    1.398   .     A
C416   H441    1.083   .     S
C417   C418    1.398   .     A
C417   H676    1.082   .     S
C418   C419    1.398   .     A
C418   H677    1.083   .     S
C419   H444    1.082   .     S
C419   C420    1.399   .     A
C420   H445    1.083   .     S
C421   C427    1.406   .     A
C421   C422    1.405   .     A
C422   H447    1.083   .     S
C422   C423    1.399   .     A
C423   H448    1.082   .     S
C423   C425    1.398   .     A
C424   H455    1.084   .     S
C424   C1116   1.389   .     S
C425   C426    1.398   .     A
C426   C427    1.398   .     A
C427   H451    1.083   .     S
C428   H456    1.083   .     S
C429   C432    1.401   .     A
C429   H457    1.083   .     S
C429   C275    1.383   1_655 S
C430   C432    1.401   .     A
C430   H458    1.083   .     S
C430   C272    1.383   1_655 S
C431   H436    1.083   .     S
Cu433  O463    1.964   .     S
Cu433  O461    1.963   .     S
Cu433  O465    1.969   .     S
Cu433  Cu434   2.670   .     S
Cu433  O467    1.975   .     S
Cu433  N459    2.006   .     S
Cu434  O466    1.969   .     S
Cu434  N460    2.006   .     S
Cu434  O464    1.964   .     S
Cu434  O468    1.975   .     S
Cu434  O462    1.963   .     S
H449   C659    1.083   .     S
H450   C660    1.082   .     S
C469   O539    1.288   .     A
C469   O542    1.288   .     A
C469   C470    1.448   .     S
C470   C509    1.401   .     A
C470   C506    1.401   .     A
C471   N538    1.366   .     A
C471   H515    1.082   .     S
C472   N537    1.366   .     A
C472   H516    1.082   .     S
C472   C5      1.414   1_565 S
C473   N538    1.366   .     A
C473   H517    1.082   .     S
C474   N537    1.366   .     A
C474   H518    1.082   .     S
C474   C3      1.414   1_565 S
C475   O543    1.294   .     A
C475   O546    1.289   .     A
C475   C481    1.464   .     S
C476   O544    1.294   .     A
C476   O545    1.289   .     A
C476   C479    1.464   .     S
C477   H513    1.085   .     S
C477   C488    1.387   .     A
C477   C479    1.398   .     A
C478   H524    1.085   .     S
C478   C489    1.387   .     A
C478   C481    1.398   .     A
C479   C482    1.420   .     A
C480   C510    1.448   .     S
C480   O540    1.288   .     A
C480   O541    1.288   .     A
C481   C483    1.420   .     A
C482   C484    1.413   .     A
C482   C493    1.488   .     S
C483   C485    1.413   .     A
C483   C499    1.488   .     S
C484   C486    1.418   .     A
C484   C490    1.410   .     A
C485   C487    1.418   .     A
C485   C492    1.410   .     A
C486   C488    1.408   .     A
C486   C1189   1.409   .     S
C487   C489    1.408   .     A
C487   C1188   1.409   1_554 S
C488   C502    1.397   .     A
C489   C491    1.397   .     A
C490   H530    1.081   .     S
C490   C1193   1.389   .     S
C491   H532    1.084   .     S
C491   C1192   1.389   1_554 S
C492   H531    1.081   .     S
C492   C1204   1.389   1_554 S
C493   C494    1.406   .     A
C493   C498    1.405   .     A
C494   C495    1.398   .     A
C494   H519    1.083   .     S
C495   C496    1.398   .     A
C495   H52     1.082   1_565 S
C496   C497    1.398   .     A
C496   H53     1.083   1_565 S
C497   H522    1.082   .     S
C497   C498    1.399   .     A
C498   H523    1.083   .     S
C499   C505    1.406   .     A
C499   C500    1.405   .     A
C500   H525    1.083   .     S
C500   C501    1.399   .     A
C501   H526    1.082   .     S
C501   C503    1.398   .     A
C502   H533    1.084   .     S
C502   C1194   1.389   .     S
C503   C504    1.398   .     A
C504   C505    1.398   .     A
C505   H529    1.083   .     S
C506   H534    1.083   .     S
C506   C664    1.383   1_455 S
C507   C510    1.401   .     A
C507   H535    1.083   .     S
C507   C587    1.383   .     S
C508   C510    1.401   .     A
C508   H536    1.083   .     S
C508   C584    1.383   .     S
C509   H514    1.083   .     S
C509   C663    1.383   1_455 S
Cu511  O541    1.964   .     S
Cu511  O539    1.963   .     S
Cu511  O543    1.969   .     S
Cu511  Cu512   2.670   .     S
Cu511  O545    1.975   .     S
Cu511  N537    2.006   .     S
Cu512  O544    1.969   .     S
Cu512  N538    2.006   .     S
Cu512  O542    1.964   .     S
Cu512  O546    1.975   .     S
Cu512  O540    1.963   .     S
H527   C35     1.083   1_565 S
H528   C36     1.082   1_565 S
C547   O617    1.288   .     A
C547   O620    1.288   .     A
C547   C548    1.448   .     S
C548   C587    1.401   .     A
C548   C584    1.401   .     A
C549   N616    1.366   .     A
C549   H593    1.082   .     S
C550   N615    1.366   .     A
C550   H594    1.082   .     S
C550   C83     1.414   1_565 S
C551   N616    1.366   .     A
C551   H595    1.082   .     S
C552   N615    1.366   .     A
C552   H596    1.082   .     S
C552   C81     1.414   1_565 S
C553   O621    1.294   .     A
C553   O624    1.289   .     A
C553   C559    1.464   .     S
C554   O622    1.294   .     A
C554   O623    1.289   .     A
C554   C557    1.464   .     S
C555   H591    1.085   .     S
C555   C566    1.387   .     A
C555   C557    1.398   .     A
C556   H602    1.085   .     S
C556   C567    1.387   .     A
C556   C559    1.398   .     A
C557   C560    1.420   .     A
C558   C588    1.448   .     S
C558   O618    1.288   .     A
C558   O619    1.288   .     A
C559   C561    1.420   .     A
C560   C562    1.413   .     A
C560   C571    1.488   .     S
C561   C563    1.413   .     A
C561   C577    1.488   .     S
C562   C564    1.418   .     A
C562   C568    1.410   .     A
C563   C565    1.418   .     A
C563   C570    1.410   .     A
C564   C566    1.408   .     A
C564   C1267   1.409   .     S
C565   C567    1.408   .     A
C565   C1266   1.409   1_554 S
C566   C580    1.397   .     A
C567   C569    1.397   .     A
C568   H608    1.081   .     S
C568   C1271   1.389   .     S
C569   H610    1.084   .     S
C569   C1270   1.389   1_554 S
C570   H609    1.081   .     S
C570   C1282   1.389   1_554 S
C571   C572    1.406   .     A
C571   C576    1.405   .     A
C572   C573    1.398   .     A
C572   H597    1.083   .     S
C573   C574    1.398   .     A
C573   H130    1.082   1_565 S
C574   C575    1.398   .     A
C574   H131    1.083   1_565 S
C575   H600    1.082   .     S
C575   C576    1.399   .     A
C576   H601    1.083   .     S
C577   C583    1.406   .     A
C577   C578    1.405   .     A
C578   H603    1.083   .     S
C578   C579    1.399   .     A
C579   H604    1.082   .     S
C579   C581    1.398   .     A
C580   H611    1.084   .     S
C580   C1272   1.389   .     S
C581   C582    1.398   .     A
C582   C583    1.398   .     A
C583   H607    1.083   .     S
C584   H612    1.083   .     S
C585   C588    1.401   .     A
C585   H613    1.083   .     S
C585   C665    1.383   .     S
C586   C588    1.401   .     A
C586   H614    1.083   .     S
C586   C662    1.383   .     S
C587   H592    1.083   .     S
Cu589  O619    1.964   .     S
Cu589  O617    1.963   .     S
Cu589  O621    1.969   .     S
Cu589  Cu590   2.670   .     S
Cu589  O623    1.975   .     S
Cu589  N615    2.006   .     S
Cu590  O622    1.969   .     S
Cu590  N616    2.006   .     S
Cu590  O620    1.964   .     S
Cu590  O624    1.975   .     S
Cu590  O618    1.963   .     S
H605   C113    1.083   1_565 S
H606   C114    1.082   1_565 S
C625   O695    1.288   .     A
C625   O698    1.288   .     A
C625   C626    1.448   .     S
C626   C665    1.401   .     A
C626   C662    1.401   .     A
C627   N694    1.366   .     A
C627   H671    1.082   .     S
C628   N693    1.366   .     A
C628   H672    1.082   .     S
C628   C161    1.414   1_565 S
C629   N694    1.366   .     A
C629   H673    1.082   .     S
C630   N693    1.366   .     A
C630   H674    1.082   .     S
C630   C159    1.414   1_565 S
C631   O699    1.294   .     A
C631   O702    1.289   .     A
C631   C637    1.464   .     S
C632   O700    1.294   .     A
C632   O701    1.289   .     A
C632   C635    1.464   .     S
C633   H669    1.085   .     S
C633   C644    1.387   .     A
C633   C635    1.398   .     A
C634   H680    1.085   .     S
C634   C645    1.387   .     A
C634   C637    1.398   .     A
C635   C638    1.420   .     A
C636   C666    1.448   .     S
C636   O696    1.288   .     A
C636   O697    1.288   .     A
C637   C639    1.420   .     A
C638   C640    1.413   .     A
C638   C649    1.488   .     S
C639   C641    1.413   .     A
C639   C655    1.488   .     S
C640   C642    1.418   .     A
C640   C646    1.410   .     A
C641   C643    1.418   .     A
C641   C648    1.410   .     A
C642   C644    1.408   .     A
C642   C1345   1.409   .     S
C643   C645    1.408   .     A
C643   C1344   1.409   1_554 S
C644   C658    1.397   .     A
C645   C647    1.397   .     A
C646   H686    1.081   .     S
C646   C1349   1.389   .     S
C647   H688    1.084   .     S
C647   C1348   1.389   1_554 S
C648   H687    1.081   .     S
C648   C1360   1.389   1_554 S
C649   C650    1.406   .     A
C649   C654    1.405   .     A
C650   C651    1.398   .     A
C650   H675    1.083   .     S
C651   C652    1.398   .     A
C651   H208    1.082   1_565 S
C652   C653    1.398   .     A
C652   H209    1.083   1_565 S
C653   H678    1.082   .     S
C653   C654    1.399   .     A
C654   H679    1.083   .     S
C655   C661    1.406   .     A
C655   C656    1.405   .     A
C656   H681    1.083   .     S
C656   C657    1.399   .     A
C657   H682    1.082   .     S
C657   C659    1.398   .     A
C658   H689    1.084   .     S
C658   C1350   1.389   .     S
C659   C660    1.398   .     A
C660   C661    1.398   .     A
C661   H685    1.083   .     S
C662   H690    1.083   .     S
C663   C666    1.401   .     A
C663   H691    1.083   .     S
C663   C509    1.383   1_655 S
C664   C666    1.401   .     A
C664   H692    1.083   .     S
C664   C506    1.383   1_655 S
C665   H670    1.083   .     S
Cu667  O697    1.964   .     S
Cu667  O695    1.963   .     S
Cu667  O699    1.969   .     S
Cu667  Cu668   2.670   .     S
Cu667  O701    1.975   .     S
Cu667  N693    2.006   .     S
Cu668  O700    1.969   .     S
Cu668  N694    2.006   .     S
Cu668  O698    1.964   .     S
Cu668  O702    1.975   .     S
Cu668  O696    1.963   .     S
H683   C191    1.083   1_565 S
H684   C192    1.082   1_565 S
C703   O773    1.288   .     A
C703   O776    1.288   .     A
C703   C704    1.448   .     S
C704   C743    1.401   .     A
C704   C740    1.401   .     A
C705   N772    1.366   .     A
C705   H749    1.082   .     S
C705   C1176   1.414   1_545 S
C706   N771    1.366   .     A
C706   H750    1.082   .     S
C706   C941    1.414   .     S
C707   N772    1.366   .     A
C707   H751    1.082   .     S
C707   C1174   1.414   1_545 S
C708   N771    1.366   .     A
C708   H752    1.082   .     S
C708   C939    1.414   .     S
C709   O777    1.294   .     A
C709   O780    1.289   .     A
C709   C715    1.464   .     S
C710   O778    1.294   .     A
C710   O779    1.289   .     A
C710   C713    1.464   .     S
C711   H747    1.085   .     S
C711   C722    1.387   .     A
C711   C713    1.398   .     A
C712   H758    1.085   .     S
C712   C723    1.387   .     A
C712   C715    1.398   .     A
C713   C716    1.420   .     A
C714   C744    1.448   .     S
C714   O774    1.288   .     A
C714   O775    1.288   .     A
C715   C717    1.420   .     A
C716   C718    1.413   .     A
C716   C727    1.488   .     S
C717   C719    1.413   .     A
C717   C733    1.488   .     S
C718   C720    1.418   .     A
C718   C724    1.410   .     A
C719   C721    1.418   .     A
C719   C726    1.410   .     A
C720   C722    1.408   .     A
C720   C19     1.409   1_556 S
C721   C723    1.408   .     A
C722   C736    1.397   .     A
C723   C725    1.397   .     A
C724   H764    1.081   .     S
C724   C23     1.389   1_556 S
C725   H766    1.084   .     S
C726   H765    1.081   .     S
C727   C728    1.406   .     A
C727   C732    1.405   .     A
C728   C729    1.398   .     A
C728   H753    1.083   .     S
C729   C730    1.398   .     A
C729   H988    1.082   .     S
C730   C731    1.398   .     A
C730   H989    1.083   .     S
C731   H756    1.082   .     S
C731   C732    1.399   .     A
C732   H757    1.083   .     S
C733   C739    1.406   .     A
C733   C734    1.405   .     A
C734   H759    1.083   .     S
C734   C735    1.399   .     A
C735   H760    1.082   .     S
C735   C737    1.398   .     A
C736   H767    1.084   .     S
C736   C24     1.389   1_556 S
C737   C738    1.398   .     A
C737   H1229   1.083   1_545 S
C738   C739    1.398   .     A
C738   H1230   1.082   1_545 S
C739   H763    1.083   .     S
C740   H768    1.083   .     S
C740   C898    1.383   1_455 S
C741   C744    1.401   .     A
C741   H769    1.083   .     S
C741   C821    1.383   .     S
C742   C744    1.401   .     A
C742   H770    1.083   .     S
C742   C818    1.383   .     S
C743   H748    1.083   .     S
C743   C897    1.383   1_455 S
Cu745  O775    1.964   .     S
Cu745  O773    1.963   .     S
Cu745  O777    1.969   .     S
Cu745  Cu746   2.670   .     S
Cu745  O779    1.975   .     S
Cu745  N771    2.006   .     S
Cu746  O778    1.969   .     S
Cu746  N772    2.006   .     S
Cu746  O776    1.964   .     S
Cu746  O780    1.975   .     S
Cu746  O774    1.963   .     S
H754   C1197   1.082   1_545 S
H755   C1198   1.083   1_545 S
H761   C971    1.083   .     S
H762   C972    1.082   .     S
C781   O851    1.288   .     A
C781   O854    1.288   .     A
C781   C782    1.448   .     S
C782   C821    1.401   .     A
C782   C818    1.401   .     A
C783   N850    1.366   .     A
C783   H827    1.082   .     S
C783   C1254   1.414   1_545 S
C784   N849    1.366   .     A
C784   H828    1.082   .     S
C784   C1019   1.414   .     S
C785   N850    1.366   .     A
C785   H829    1.082   .     S
C785   C1252   1.414   1_545 S
C786   N849    1.366   .     A
C786   H830    1.082   .     S
C786   C1017   1.414   .     S
C787   O855    1.294   .     A
C787   O858    1.289   .     A
C787   C793    1.464   .     S
C788   O856    1.294   .     A
C788   O857    1.289   .     A
C788   C791    1.464   .     S
C789   H825    1.085   .     S
C789   C800    1.387   .     A
C789   C791    1.398   .     A
C790   H836    1.085   .     S
C790   C801    1.387   .     A
C790   C793    1.398   .     A
C791   C794    1.420   .     A
C792   C822    1.448   .     S
C792   O852    1.288   .     A
C792   O853    1.288   .     A
C793   C795    1.420   .     A
C794   C796    1.413   .     A
C794   C805    1.488   .     S
C795   C797    1.413   .     A
C795   C811    1.488   .     S
C796   C798    1.418   .     A
C796   C802    1.410   .     A
C797   C799    1.418   .     A
C797   C804    1.410   .     A
C798   C800    1.408   .     A
C798   C97     1.409   1_556 S
C799   C801    1.408   .     A
C800   C814    1.397   .     A
C801   C803    1.397   .     A
C802   H842    1.081   .     S
C802   C101    1.389   1_556 S
C803   H844    1.084   .     S
C804   H843    1.081   .     S
C805   C806    1.406   .     A
C805   C810    1.405   .     A
C806   C807    1.398   .     A
C806   H831    1.083   .     S
C807   C808    1.398   .     A
C807   H1066   1.082   .     S
C808   C809    1.398   .     A
C808   H1067   1.083   .     S
C809   H834    1.082   .     S
C809   C810    1.399   .     A
C810   H835    1.083   .     S
C811   C817    1.406   .     A
C811   C812    1.405   .     A
C812   H837    1.083   .     S
C812   C813    1.399   .     A
C813   H838    1.082   .     S
C813   C815    1.398   .     A
C814   H845    1.084   .     S
C814   C102    1.389   1_556 S
C815   C816    1.398   .     A
C815   H1307   1.083   1_545 S
C816   C817    1.398   .     A
C816   H1308   1.082   1_545 S
C817   H841    1.083   .     S
C818   H846    1.083   .     S
C819   C822    1.401   .     A
C819   H847    1.083   .     S
C819   C899    1.383   .     S
C820   C822    1.401   .     A
C820   H848    1.083   .     S
C820   C896    1.383   .     S
C821   H826    1.083   .     S
Cu823  O853    1.964   .     S
Cu823  O851    1.963   .     S
Cu823  O855    1.969   .     S
Cu823  Cu824   2.670   .     S
Cu823  O857    1.975   .     S
Cu823  N849    2.006   .     S
Cu824  O856    1.969   .     S
Cu824  N850    2.006   .     S
Cu824  O854    1.964   .     S
Cu824  O858    1.975   .     S
Cu824  O852    1.963   .     S
H832   C1275   1.082   1_545 S
H833   C1276   1.083   1_545 S
H839   C1049   1.083   .     S
H840   C1050   1.082   .     S
C859   O929    1.288   .     A
C859   O932    1.288   .     A
C859   C860    1.448   .     S
C860   C899    1.401   .     A
C860   C896    1.401   .     A
C861   N928    1.366   .     A
C861   H905    1.082   .     S
C861   C1332   1.414   1_545 S
C862   N927    1.366   .     A
C862   H906    1.082   .     S
C862   C1097   1.414   .     S
C863   N928    1.366   .     A
C863   H907    1.082   .     S
C863   C1330   1.414   1_545 S
C864   N927    1.366   .     A
C864   H908    1.082   .     S
C864   C1095   1.414   .     S
C865   O933    1.294   .     A
C865   O936    1.289   .     A
C865   C871    1.464   .     S
C866   O934    1.294   .     A
C866   O935    1.289   .     A
C866   C869    1.464   .     S
C867   H903    1.085   .     S
C867   C878    1.387   .     A
C867   C869    1.398   .     A
C868   H914    1.085   .     S
C868   C879    1.387   .     A
C868   C871    1.398   .     A
C869   C872    1.420   .     A
C870   C900    1.448   .     S
C870   O930    1.288   .     A
C870   O931    1.288   .     A
C871   C873    1.420   .     A
C872   C874    1.413   .     A
C872   C883    1.488   .     S
C873   C875    1.413   .     A
C873   C889    1.488   .     S
C874   C876    1.418   .     A
C874   C880    1.410   .     A
C875   C877    1.418   .     A
C875   C882    1.410   .     A
C876   C878    1.408   .     A
C876   C175    1.409   1_556 S
C877   C879    1.408   .     A
C878   C892    1.397   .     A
C879   C881    1.397   .     A
C880   H920    1.081   .     S
C880   C179    1.389   1_556 S
C881   H922    1.084   .     S
C882   H921    1.081   .     S
C883   C884    1.406   .     A
C883   C888    1.405   .     A
C884   C885    1.398   .     A
C884   H909    1.083   .     S
C885   C886    1.398   .     A
C885   H1144   1.082   .     S
C886   C887    1.398   .     A
C886   H1145   1.083   .     S
C887   H912    1.082   .     S
C887   C888    1.399   .     A
C888   H913    1.083   .     S
C889   C895    1.406   .     A
C889   C890    1.405   .     A
C890   H915    1.083   .     S
C890   C891    1.399   .     A
C891   H916    1.082   .     S
C891   C893    1.398   .     A
C892   H923    1.084   .     S
C892   C180    1.389   1_556 S
C893   C894    1.398   .     A
C893   H1385   1.083   1_545 S
C894   C895    1.398   .     A
C894   H1386   1.082   1_545 S
C895   H919    1.083   .     S
C896   H924    1.083   .     S
C897   C900    1.401   .     A
C897   H925    1.083   .     S
C897   C743    1.383   1_655 S
C898   C900    1.401   .     A
C898   H926    1.083   .     S
C898   C740    1.383   1_655 S
C899   H904    1.083   .     S
Cu901  O931    1.964   .     S
Cu901  O929    1.963   .     S
Cu901  O933    1.969   .     S
Cu901  Cu902   2.670   .     S
Cu901  O935    1.975   .     S
Cu901  N927    2.006   .     S
Cu902  O934    1.969   .     S
Cu902  N928    2.006   .     S
Cu902  O932    1.964   .     S
Cu902  O936    1.975   .     S
Cu902  O930    1.963   .     S
H910   C1353   1.082   1_545 S
H911   C1354   1.083   1_545 S
H917   C1127   1.083   .     S
H918   C1128   1.082   .     S
C937   O1007   1.288   .     A
C937   O1010   1.288   .     A
C937   C938    1.448   .     S
C938   C977    1.401   .     A
C938   C974    1.401   .     A
C939   N1006   1.366   .     A
C939   H983    1.082   .     S
C940   N1005   1.366   .     A
C940   H984    1.082   .     S
C940   C1175   1.414   .     S
C941   N1006   1.366   .     A
C941   H985    1.082   .     S
C942   N1005   1.366   .     A
C942   H986    1.082   .     S
C942   C1173   1.414   .     S
C943   O1011   1.294   .     A
C943   O1014   1.289   .     A
C943   C949    1.464   .     S
C944   O1012   1.294   .     A
C944   O1013   1.289   .     A
C944   C947    1.464   .     S
C945   H981    1.085   .     S
C945   C956    1.387   .     A
C945   C947    1.398   .     A
C946   H992    1.085   .     S
C946   C957    1.387   .     A
C946   C949    1.398   .     A
C947   C950    1.420   .     A
C948   C978    1.448   .     S
C948   O1008   1.288   .     A
C948   O1009   1.288   .     A
C949   C951    1.420   .     A
C950   C952    1.413   .     A
C950   C961    1.488   .     S
C951   C953    1.413   .     A
C951   C967    1.488   .     S
C952   C954    1.418   .     A
C952   C958    1.410   .     A
C953   C955    1.418   .     A
C953   C960    1.410   .     A
C954   C956    1.408   .     A
C954   C253    1.409   1_556 S
C955   C957    1.408   .     A
C956   C970    1.397   .     A
C957   C959    1.397   .     A
C958   H998    1.081   .     S
C958   C257    1.389   1_556 S
C959   H1000   1.084   .     S
C960   H999    1.081   .     S
C961   C962    1.406   .     A
C961   C966    1.405   .     A
C962   C963    1.398   .     A
C962   H987    1.083   .     S
C963   C964    1.398   .     A
C963   H1222   1.082   .     S
C964   C965    1.398   .     A
C964   H1223   1.083   .     S
C965   H990    1.082   .     S
C965   C966    1.399   .     A
C966   H991    1.083   .     S
C967   C973    1.406   .     A
C967   C968    1.405   .     A
C968   H993    1.083   .     S
C968   C969    1.399   .     A
C969   H994    1.082   .     S
C969   C971    1.398   .     A
C970   H1001   1.084   .     S
C970   C258    1.389   1_556 S
C971   C972    1.398   .     A
C972   C973    1.398   .     A
C973   H997    1.083   .     S
C974   H1002   1.083   .     S
C974   C1132   1.383   1_455 S
C975   C978    1.401   .     A
C975   H1003   1.083   .     S
C975   C1055   1.383   .     S
C976   C978    1.401   .     A
C976   H1004   1.083   .     S
C976   C1052   1.383   .     S
C977   H982    1.083   .     S
C977   C1131   1.383   1_455 S
Cu979  O1009   1.964   .     S
Cu979  O1007   1.963   .     S
Cu979  O1011   1.969   .     S
Cu979  Cu980   2.670   .     S
Cu979  O1013   1.975   .     S
Cu979  N1005   2.006   .     S
Cu980  O1012   1.969   .     S
Cu980  N1006   2.006   .     S
Cu980  O1010   1.964   .     S
Cu980  O1014   1.975   .     S
Cu980  O1008   1.963   .     S
H995   C1205   1.083   .     S
H996   C1206   1.082   .     S
C1015  O1085   1.288   .     A
C1015  O1088   1.288   .     A
C1015  C1016   1.448   .     S
C1016  C1055   1.401   .     A
C1016  C1052   1.401   .     A
C1017  N1084   1.366   .     A
C1017  H1061   1.082   .     S
C1018  N1083   1.366   .     A
C1018  H1062   1.082   .     S
C1018  C1253   1.414   .     S
C1019  N1084   1.366   .     A
C1019  H1063   1.082   .     S
C1020  N1083   1.366   .     A
C1020  H1064   1.082   .     S
C1020  C1251   1.414   .     S
C1021  O1089   1.294   .     A
C1021  O1092   1.289   .     A
C1021  C1027   1.464   .     S
C1022  O1090   1.294   .     A
C1022  O1091   1.289   .     A
C1022  C1025   1.464   .     S
C1023  H1059   1.085   .     S
C1023  C1034   1.387   .     A
C1023  C1025   1.398   .     A
C1024  H1070   1.085   .     S
C1024  C1035   1.387   .     A
C1024  C1027   1.398   .     A
C1025  C1028   1.420   .     A
C1026  C1056   1.448   .     S
C1026  O1086   1.288   .     A
C1026  O1087   1.288   .     A
C1027  C1029   1.420   .     A
C1028  C1030   1.413   .     A
C1028  C1039   1.488   .     S
C1029  C1031   1.413   .     A
C1029  C1045   1.488   .     S
C1030  C1032   1.418   .     A
C1030  C1036   1.410   .     A
C1031  C1033   1.418   .     A
C1031  C1038   1.410   .     A
C1032  C1034   1.408   .     A
C1032  C331    1.409   1_556 S
C1033  C1035   1.408   .     A
C1034  C1048   1.397   .     A
C1035  C1037   1.397   .     A
C1036  H1076   1.081   .     S
C1036  C335    1.389   1_556 S
C1037  H1078   1.084   .     S
C1038  H1077   1.081   .     S
C1039  C1040   1.406   .     A
C1039  C1044   1.405   .     A
C1040  C1041   1.398   .     A
C1040  H1065   1.083   .     S
C1041  C1042   1.398   .     A
C1041  H1300   1.082   .     S
C1042  C1043   1.398   .     A
C1042  H1301   1.083   .     S
C1043  H1068   1.082   .     S
C1043  C1044   1.399   .     A
C1044  H1069   1.083   .     S
C1045  C1051   1.406   .     A
C1045  C1046   1.405   .     A
C1046  H1071   1.083   .     S
C1046  C1047   1.399   .     A
C1047  H1072   1.082   .     S
C1047  C1049   1.398   .     A
C1048  H1079   1.084   .     S
C1048  C336    1.389   1_556 S
C1049  C1050   1.398   .     A
C1050  C1051   1.398   .     A
C1051  H1075   1.083   .     S
C1052  H1080   1.083   .     S
C1053  C1056   1.401   .     A
C1053  H1081   1.083   .     S
C1053  C1133   1.383   .     S
C1054  C1056   1.401   .     A
C1054  H1082   1.083   .     S
C1054  C1130   1.383   .     S
C1055  H1060   1.083   .     S
Cu1057 O1087   1.964   .     S
Cu1057 O1085   1.963   .     S
Cu1057 O1089   1.969   .     S
Cu1057 Cu1058  2.670   .     S
Cu1057 O1091   1.975   .     S
Cu1057 N1083   2.006   .     S
Cu1058 O1090   1.969   .     S
Cu1058 N1084   2.006   .     S
Cu1058 O1088   1.964   .     S
Cu1058 O1092   1.975   .     S
Cu1058 O1086   1.963   .     S
H1073  C1283   1.083   .     S
H1074  C1284   1.082   .     S
C1093  O1163   1.288   .     A
C1093  O1166   1.288   .     A
C1093  C1094   1.448   .     S
C1094  C1133   1.401   .     A
C1094  C1130   1.401   .     A
C1095  N1162   1.366   .     A
C1095  H1139   1.082   .     S
C1096  N1161   1.366   .     A
C1096  H1140   1.082   .     S
C1096  C1331   1.414   .     S
C1097  N1162   1.366   .     A
C1097  H1141   1.082   .     S
C1098  N1161   1.366   .     A
C1098  H1142   1.082   .     S
C1098  C1329   1.414   .     S
C1099  O1167   1.294   .     A
C1099  O1170   1.289   .     A
C1099  C1105   1.464   .     S
C1100  O1168   1.294   .     A
C1100  O1169   1.289   .     A
C1100  C1103   1.464   .     S
C1101  H1137   1.085   .     S
C1101  C1112   1.387   .     A
C1101  C1103   1.398   .     A
C1102  H1148   1.085   .     S
C1102  C1113   1.387   .     A
C1102  C1105   1.398   .     A
C1103  C1106   1.420   .     A
C1104  C1134   1.448   .     S
C1104  O1164   1.288   .     A
C1104  O1165   1.288   .     A
C1105  C1107   1.420   .     A
C1106  C1108   1.413   .     A
C1106  C1117   1.488   .     S
C1107  C1109   1.413   .     A
C1107  C1123   1.488   .     S
C1108  C1110   1.418   .     A
C1108  C1114   1.410   .     A
C1109  C1111   1.418   .     A
C1109  C1116   1.410   .     A
C1110  C1112   1.408   .     A
C1110  C409    1.409   1_556 S
C1111  C1113   1.408   .     A
C1112  C1126   1.397   .     A
C1113  C1115   1.397   .     A
C1114  H1154   1.081   .     S
C1114  C413    1.389   1_556 S
C1115  H1156   1.084   .     S
C1116  H1155   1.081   .     S
C1117  C1118   1.406   .     A
C1117  C1122   1.405   .     A
C1118  C1119   1.398   .     A
C1118  H1143   1.083   .     S
C1119  C1120   1.398   .     A
C1119  H1378   1.082   .     S
C1120  C1121   1.398   .     A
C1120  H1379   1.083   .     S
C1121  H1146   1.082   .     S
C1121  C1122   1.399   .     A
C1122  H1147   1.083   .     S
C1123  C1129   1.406   .     A
C1123  C1124   1.405   .     A
C1124  H1149   1.083   .     S
C1124  C1125   1.399   .     A
C1125  H1150   1.082   .     S
C1125  C1127   1.398   .     A
C1126  H1157   1.084   .     S
C1126  C414    1.389   1_556 S
C1127  C1128   1.398   .     A
C1128  C1129   1.398   .     A
C1129  H1153   1.083   .     S
C1130  H1158   1.083   .     S
C1131  C1134   1.401   .     A
C1131  H1159   1.083   .     S
C1131  C977    1.383   1_655 S
C1132  C1134   1.401   .     A
C1132  H1160   1.083   .     S
C1132  C974    1.383   1_655 S
C1133  H1138   1.083   .     S
Cu1135 O1165   1.964   .     S
Cu1135 O1163   1.963   .     S
Cu1135 O1167   1.969   .     S
Cu1135 Cu1136  2.670   .     S
Cu1135 O1169   1.975   .     S
Cu1135 N1161   2.006   .     S
Cu1136 O1168   1.969   .     S
Cu1136 N1162   2.006   .     S
Cu1136 O1166   1.964   .     S
Cu1136 O1170   1.975   .     S
Cu1136 O1164   1.963   .     S
H1151  C1361   1.083   .     S
H1152  C1362   1.082   .     S
C1171  O1241   1.288   .     A
C1171  O1244   1.288   .     A
C1171  C1172   1.448   .     S
C1172  C1211   1.401   .     A
C1172  C1208   1.401   .     A
C1173  N1240   1.366   .     A
C1173  H1217   1.082   .     S
C1174  N1239   1.366   .     A
C1174  H1218   1.082   .     S
C1174  C707    1.414   1_565 S
C1175  N1240   1.366   .     A
C1175  H1219   1.082   .     S
C1176  N1239   1.366   .     A
C1176  H1220   1.082   .     S
C1176  C705    1.414   1_565 S
C1177  O1245   1.294   .     A
C1177  O1248   1.289   .     A
C1177  C1183   1.464   .     S
C1178  O1246   1.294   .     A
C1178  O1247   1.289   .     A
C1178  C1181   1.464   .     S
C1179  H1215   1.085   .     S
C1179  C1190   1.387   .     A
C1179  C1181   1.398   .     A
C1180  H1226   1.085   .     S
C1180  C1191   1.387   .     A
C1180  C1183   1.398   .     A
C1181  C1184   1.420   .     A
C1182  C1212   1.448   .     S
C1182  O1242   1.288   .     A
C1182  O1243   1.288   .     A
C1183  C1185   1.420   .     A
C1184  C1186   1.413   .     A
C1184  C1195   1.488   .     S
C1185  C1187   1.413   .     A
C1185  C1201   1.488   .     S
C1186  C1188   1.418   .     A
C1186  C1192   1.410   .     A
C1187  C1189   1.418   .     A
C1187  C1194   1.410   .     A
C1188  C1190   1.408   .     A
C1188  C487    1.409   1_556 S
C1189  C1191   1.408   .     A
C1190  C1204   1.397   .     A
C1191  C1193   1.397   .     A
C1192  H1232   1.081   .     S
C1192  C491    1.389   1_556 S
C1193  H1234   1.084   .     S
C1194  H1233   1.081   .     S
C1195  C1196   1.406   .     A
C1195  C1200   1.405   .     A
C1196  C1197   1.398   .     A
C1196  H1221   1.083   .     S
C1197  C1198   1.398   .     A
C1197  H754    1.082   1_565 S
C1198  C1199   1.398   .     A
C1198  H755    1.083   1_565 S
C1199  H1224   1.082   .     S
C1199  C1200   1.399   .     A
C1200  H1225   1.083   .     S
C1201  C1207   1.406   .     A
C1201  C1202   1.405   .     A
C1202  H1227   1.083   .     S
C1202  C1203   1.399   .     A
C1203  H1228   1.082   .     S
C1203  C1205   1.398   .     A
C1204  H1235   1.084   .     S
C1204  C492    1.389   1_556 S
C1205  C1206   1.398   .     A
C1206  C1207   1.398   .     A
C1207  H1231   1.083   .     S
C1208  H1236   1.083   .     S
C1208  C1366   1.383   1_455 S
C1209  C1212   1.401   .     A
C1209  H1237   1.083   .     S
C1209  C1289   1.383   .     S
C1210  C1212   1.401   .     A
C1210  H1238   1.083   .     S
C1210  C1286   1.383   .     S
C1211  H1216   1.083   .     S
C1211  C1365   1.383   1_455 S
Cu1213 O1243   1.964   .     S
Cu1213 O1241   1.963   .     S
Cu1213 O1245   1.969   .     S
Cu1213 Cu1214  2.670   .     S
Cu1213 O1247   1.975   .     S
Cu1213 N1239   2.006   .     S
Cu1214 O1246   1.969   .     S
Cu1214 N1240   2.006   .     S
Cu1214 O1244   1.964   .     S
Cu1214 O1248   1.975   .     S
Cu1214 O1242   1.963   .     S
H1229  C737    1.083   1_565 S
H1230  C738    1.082   1_565 S
C1249  O1319   1.288   .     A
C1249  O1322   1.288   .     A
C1249  C1250   1.448   .     S
C1250  C1289   1.401   .     A
C1250  C1286   1.401   .     A
C1251  N1318   1.366   .     A
C1251  H1295   1.082   .     S
C1252  N1317   1.366   .     A
C1252  H1296   1.082   .     S
C1252  C785    1.414   1_565 S
C1253  N1318   1.366   .     A
C1253  H1297   1.082   .     S
C1254  N1317   1.366   .     A
C1254  H1298   1.082   .     S
C1254  C783    1.414   1_565 S
C1255  O1323   1.294   .     A
C1255  O1326   1.289   .     A
C1255  C1261   1.464   .     S
C1256  O1324   1.294   .     A
C1256  O1325   1.289   .     A
C1256  C1259   1.464   .     S
C1257  H1293   1.085   .     S
C1257  C1268   1.387   .     A
C1257  C1259   1.398   .     A
C1258  H1304   1.085   .     S
C1258  C1269   1.387   .     A
C1258  C1261   1.398   .     A
C1259  C1262   1.420   .     A
C1260  C1290   1.448   .     S
C1260  O1320   1.288   .     A
C1260  O1321   1.288   .     A
C1261  C1263   1.420   .     A
C1262  C1264   1.413   .     A
C1262  C1273   1.488   .     S
C1263  C1265   1.413   .     A
C1263  C1279   1.488   .     S
C1264  C1266   1.418   .     A
C1264  C1270   1.410   .     A
C1265  C1267   1.418   .     A
C1265  C1272   1.410   .     A
C1266  C1268   1.408   .     A
C1266  C565    1.409   1_556 S
C1267  C1269   1.408   .     A
C1268  C1282   1.397   .     A
C1269  C1271   1.397   .     A
C1270  H1310   1.081   .     S
C1270  C569    1.389   1_556 S
C1271  H1312   1.084   .     S
C1272  H1311   1.081   .     S
C1273  C1274   1.406   .     A
C1273  C1278   1.405   .     A
C1274  C1275   1.398   .     A
C1274  H1299   1.083   .     S
C1275  C1276   1.398   .     A
C1275  H832    1.082   1_565 S
C1276  C1277   1.398   .     A
C1276  H833    1.083   1_565 S
C1277  H1302   1.082   .     S
C1277  C1278   1.399   .     A
C1278  H1303   1.083   .     S
C1279  C1285   1.406   .     A
C1279  C1280   1.405   .     A
C1280  H1305   1.083   .     S
C1280  C1281   1.399   .     A
C1281  H1306   1.082   .     S
C1281  C1283   1.398   .     A
C1282  H1313   1.084   .     S
C1282  C570    1.389   1_556 S
C1283  C1284   1.398   .     A
C1284  C1285   1.398   .     A
C1285  H1309   1.083   .     S
C1286  H1314   1.083   .     S
C1287  C1290   1.401   .     A
C1287  H1315   1.083   .     S
C1287  C1367   1.383   .     S
C1288  C1290   1.401   .     A
C1288  H1316   1.083   .     S
C1288  C1364   1.383   .     S
C1289  H1294   1.083   .     S
Cu1291 O1321   1.964   .     S
Cu1291 O1319   1.963   .     S
Cu1291 O1323   1.969   .     S
Cu1291 Cu1292  2.670   .     S
Cu1291 O1325   1.975   .     S
Cu1291 N1317   2.006   .     S
Cu1292 O1324   1.969   .     S
Cu1292 N1318   2.006   .     S
Cu1292 O1322   1.964   .     S
Cu1292 O1326   1.975   .     S
Cu1292 O1320   1.963   .     S
H1307  C815    1.083   1_565 S
H1308  C816    1.082   1_565 S
C1327  O1397   1.288   .     A
C1327  O1400   1.288   .     A
C1327  C1328   1.448   .     S
C1328  C1367   1.401   .     A
C1328  C1364   1.401   .     A
C1329  N1396   1.366   .     A
C1329  H1373   1.082   .     S
C1330  N1395   1.366   .     A
C1330  H1374   1.082   .     S
C1330  C863    1.414   1_565 S
C1331  N1396   1.366   .     A
C1331  H1375   1.082   .     S
C1332  N1395   1.366   .     A
C1332  H1376   1.082   .     S
C1332  C861    1.414   1_565 S
C1333  O1401   1.294   .     A
C1333  O1404   1.289   .     A
C1333  C1339   1.464   .     S
C1334  O1402   1.294   .     A
C1334  O1403   1.289   .     A
C1334  C1337   1.464   .     S
C1335  H1371   1.085   .     S
C1335  C1346   1.387   .     A
C1335  C1337   1.398   .     A
C1336  H1382   1.085   .     S
C1336  C1347   1.387   .     A
C1336  C1339   1.398   .     A
C1337  C1340   1.420   .     A
C1338  C1368   1.448   .     S
C1338  O1398   1.288   .     A
C1338  O1399   1.288   .     A
C1339  C1341   1.420   .     A
C1340  C1342   1.413   .     A
C1340  C1351   1.488   .     S
C1341  C1343   1.413   .     A
C1341  C1357   1.488   .     S
C1342  C1344   1.418   .     A
C1342  C1348   1.410   .     A
C1343  C1345   1.418   .     A
C1343  C1350   1.410   .     A
C1344  C1346   1.408   .     A
C1344  C643    1.409   1_556 S
C1345  C1347   1.408   .     A
C1346  C1360   1.397   .     A
C1347  C1349   1.397   .     A
C1348  H1388   1.081   .     S
C1348  C647    1.389   1_556 S
C1349  H1390   1.084   .     S
C1350  H1389   1.081   .     S
C1351  C1352   1.406   .     A
C1351  C1356   1.405   .     A
C1352  C1353   1.398   .     A
C1352  H1377   1.083   .     S
C1353  C1354   1.398   .     A
C1353  H910    1.082   1_565 S
C1354  C1355   1.398   .     A
C1354  H911    1.083   1_565 S
C1355  H1380   1.082   .     S
C1355  C1356   1.399   .     A
C1356  H1381   1.083   .     S
C1357  C1363   1.406   .     A
C1357  C1358   1.405   .     A
C1358  H1383   1.083   .     S
C1358  C1359   1.399   .     A
C1359  H1384   1.082   .     S
C1359  C1361   1.398   .     A
C1360  H1391   1.084   .     S
C1360  C648    1.389   1_556 S
C1361  C1362   1.398   .     A
C1362  C1363   1.398   .     A
C1363  H1387   1.083   .     S
C1364  H1392   1.083   .     S
C1365  C1368   1.401   .     A
C1365  H1393   1.083   .     S
C1365  C1211   1.383   1_655 S
C1366  C1368   1.401   .     A
C1366  H1394   1.083   .     S
C1366  C1208   1.383   1_655 S
C1367  H1372   1.083   .     S
Cu1369 O1399   1.964   .     S
Cu1369 O1397   1.963   .     S
Cu1369 O1401   1.969   .     S
Cu1369 Cu1370  2.670   .     S
Cu1369 O1403   1.975   .     S
Cu1369 N1395   2.006   .     S
Cu1370 O1402   1.969   .     S
Cu1370 N1396   2.006   .     S
Cu1370 O1400   1.964   .     S
Cu1370 O1404   1.975   .     S
Cu1370 O1398   1.963   .     S
H1385  C893    1.083   1_565 S
H1386  C894    1.082   1_565 S
