data_str_m1_o10_o16_pcu_sym.9
_audit_creation_date              2020-01-03
_audit_creation_method            'Materials Studio'
_symmetry_space_group_name_H-M    'P1'
_symmetry_Int_Tables_number       1
_symmetry_cell_setting            triclinic
loop_
_symmetry_equiv_pos_as_xyz
  x,y,z
_cell_length_a                    32.5148
_cell_length_b                    32.5547
_cell_length_c                    31.0006
_cell_angle_alpha                 96.5228
_cell_angle_beta                  75.1529
_cell_angle_gamma                 98.7499
loop_
_atom_site_label
_atom_site_type_symbol
_atom_site_fract_x
_atom_site_fract_y
_atom_site_fract_z
_atom_site_U_iso_or_equiv
_atom_site_adp_type
_atom_site_occupancy
Zn1    Zn    0.19338   0.13994   0.28734   0.00000  Uiso   1.00
Zn2    Zn    0.13379   0.12458   0.21876   0.00000  Uiso   1.00
Zn3    Zn    0.21056   0.19775   0.20657   0.00000  Uiso   1.00
Zn4    Zn    0.12893   0.20439   0.28734   0.00000  Uiso   1.00
O5     O     0.16667   0.16667   0.25000   0.00000  Uiso   1.00
O6     O     0.07071   0.18878   0.28213   0.00000  Uiso   1.00
O7     O     0.25491   0.15226   0.27014   0.00000  Uiso   1.00
O8     O     0.13760   0.06944   0.23413   0.00000  Uiso   1.00
O9     O     0.20345   0.25620   0.21361   0.00000  Uiso   1.00
O10    O     0.15451   0.12637   0.15459   0.00000  Uiso   1.00
O11    O     0.12940   0.20391   0.34968   0.00000  Uiso   1.00
O12    O     0.20824   0.17759   0.14606   0.00000  Uiso   1.00
O13    O     0.17451   0.15880   0.34968   0.00000  Uiso   1.00
O14    O     0.17930   0.08019   0.28214   0.00000  Uiso   1.00
O15    O     0.14632   0.26085   0.27014   0.00000  Uiso   1.00
O16    O     0.07412   0.13291   0.23413   0.00000  Uiso   1.00
O17    O     0.26693   0.19272   0.21361   0.00000  Uiso   1.00
C18    C     0.05274   0.15946   0.25995   0.00000  Uiso   1.00
C19    C     0.28076   0.17380   0.24007   0.00000  Uiso   1.00
C20    C     0.15566   0.05591   0.26076   0.00000  Uiso   1.00
C21    C     0.17613   0.27772   0.23932   0.00000  Uiso   1.00
C22    C     0.18526   0.14768   0.12936   0.00000  Uiso   1.00
C23    C     0.14852   0.18451   0.37096   0.00000  Uiso   1.00
C24    C     0.18428   0.08344   0.02311   0.00000  Uiso   1.00
H25    H     0.19682   0.07314   0.08510   0.00000  Uiso   1.00
H26    H     0.16162   0.06459   0.44686   0.00000  Uiso   1.00
H27    H     0.18502   0.05093   0.01090   0.00000  Uiso   1.00
C28    C     0.19109   0.13782   0.08142   0.00000  Uiso   1.00
C29    C     0.13743   0.23602   0.43618   0.00000  Uiso   1.00
C30    C     0.13647   0.24927   0.48090   0.00000  Uiso   1.00
C31    C     0.14589   0.22249   0.00839   0.00000  Uiso   1.00
C32    C     0.15664   0.18176   0.49107   0.00000  Uiso   1.00
C33    C     0.15087   0.16707   0.44765   0.00000  Uiso   1.00
C34    C     0.17119   0.15429   0.01536   0.00000  Uiso   1.00
C35    C     0.17283   0.11173   0.49882   0.00000  Uiso   1.00
C36    C     0.16179   0.09722   0.45887   0.00000  Uiso   1.00
C37    C     0.15106   0.12437   0.43364   0.00000  Uiso   1.00
C38    C     0.18418   0.16713   0.05549   0.00000  Uiso   1.00
C39    C     0.19193   0.09615   0.06484   0.00000  Uiso   1.00
C40    C     0.14411   0.19520   0.41936   0.00000  Uiso   1.00
H41    H     0.18765   0.19910   0.06863   0.00000  Uiso   1.00
H42    H     0.13370   0.25800   0.41417   0.00000  Uiso   1.00
H43    H     0.14164   0.11100   0.40355   0.00000  Uiso   1.00
C44    C     0.32657   0.17674   0.23631   0.00000  Uiso   1.00
H45    H     0.01549   0.19538   0.21127   0.00000  Uiso   1.00
C46    C     0.00748   0.15662   0.26361   0.00000  Uiso   1.00
H47    H     0.31926   0.13767   0.28883   0.00000  Uiso   1.00
C48    C     0.17914   0.32197   0.23316   0.00000  Uiso   1.00
C49    C     0.15329   0.01187   0.26365   0.00000  Uiso   1.00
H50    H     0.13150   0.33215   0.29309   0.00000  Uiso   1.00
N51    N     0.20920   0.00595   0.19458   0.00000  Uiso   1.00
O52    O     0.21621   0.31738   0.15620   0.00000  Uiso   1.00
O53    O     0.23212   0.04201   0.19829   0.00000  Uiso   1.00
O54    O     0.14257   0.23673   0.05268   0.00000  Uiso   1.00
C55    C     0.10076   0.22352   0.07773   0.00000  Uiso   1.00
H56    H     0.09318   0.18891   0.07441   0.00000  Uiso   1.00
H57    H     0.07651   0.23788   0.06678   0.00000  Uiso   1.00
C58    C     0.09769   0.23719   0.12689   0.00000  Uiso   1.00
H59    H     0.10530   0.27161   0.13139   0.00000  Uiso   1.00
H60    H     0.06466   0.22785   0.14682   0.00000  Uiso   1.00
H61    H     0.12060   0.22227   0.13921   0.00000  Uiso   1.00
O62    O     0.12999   0.28969   0.49820   0.00000  Uiso   1.00
C63    C     0.09195   0.30028   0.49064   0.00000  Uiso   1.00
H64    H     0.06560   0.27362   0.49463   0.00000  Uiso   1.00
H65    H     0.09843   0.31118   0.45653   0.00000  Uiso   1.00
C66    C     0.07658   0.00239   0.02448   0.00000  Uiso   1.00
H67    H     0.10147   0.03004   0.02081   0.00000  Uiso   1.00
H68    H     0.04675   0.01111   0.01886   0.00000  Uiso   1.00
H69    H     0.06985   0.32582   0.05902   0.00000  Uiso   1.00
Zn70   Zn    0.52672   0.13994   0.28734   0.00000  Uiso   1.00
Zn71   Zn    0.46713   0.12458   0.21876   0.00000  Uiso   1.00
Zn72   Zn    0.54389   0.19775   0.20657   0.00000  Uiso   1.00
Zn73   Zn    0.46226   0.20439   0.28734   0.00000  Uiso   1.00
O74    O     0.50000   0.16667   0.25000   0.00000  Uiso   1.00
O75    O     0.40405   0.18878   0.28213   0.00000  Uiso   1.00
O76    O     0.58824   0.15226   0.27014   0.00000  Uiso   1.00
O77    O     0.47093   0.06944   0.23413   0.00000  Uiso   1.00
O78    O     0.53678   0.25620   0.21361   0.00000  Uiso   1.00
O79    O     0.48784   0.12637   0.15459   0.00000  Uiso   1.00
O80    O     0.46274   0.20391   0.34968   0.00000  Uiso   1.00
O81    O     0.54157   0.17759   0.14606   0.00000  Uiso   1.00
O82    O     0.50785   0.15880   0.34968   0.00000  Uiso   1.00
O83    O     0.51264   0.08019   0.28214   0.00000  Uiso   1.00
O84    O     0.47965   0.26085   0.27014   0.00000  Uiso   1.00
O85    O     0.40745   0.13291   0.23413   0.00000  Uiso   1.00
O86    O     0.60026   0.19272   0.21361   0.00000  Uiso   1.00
C87    C     0.38607   0.15946   0.25995   0.00000  Uiso   1.00
C88    C     0.61409   0.17380   0.24007   0.00000  Uiso   1.00
C89    C     0.48899   0.05591   0.26076   0.00000  Uiso   1.00
C90    C     0.50947   0.27772   0.23932   0.00000  Uiso   1.00
C91    C     0.51859   0.14768   0.12936   0.00000  Uiso   1.00
C92    C     0.48186   0.18451   0.37096   0.00000  Uiso   1.00
C93    C     0.51761   0.08344   0.02311   0.00000  Uiso   1.00
H94    H     0.53015   0.07314   0.08510   0.00000  Uiso   1.00
H95    H     0.49495   0.06459   0.44686   0.00000  Uiso   1.00
H96    H     0.51835   0.05093   0.01090   0.00000  Uiso   1.00
C97    C     0.52442   0.13782   0.08142   0.00000  Uiso   1.00
C98    C     0.47076   0.23602   0.43618   0.00000  Uiso   1.00
C99    C     0.46981   0.24927   0.48090   0.00000  Uiso   1.00
C100   C     0.47923   0.22249   0.00839   0.00000  Uiso   1.00
C101   C     0.48998   0.18176   0.49107   0.00000  Uiso   1.00
C102   C     0.48421   0.16707   0.44765   0.00000  Uiso   1.00
C103   C     0.50453   0.15429   0.01536   0.00000  Uiso   1.00
C104   C     0.50616   0.11173   0.49882   0.00000  Uiso   1.00
C105   C     0.49512   0.09722   0.45887   0.00000  Uiso   1.00
C106   C     0.48440   0.12437   0.43364   0.00000  Uiso   1.00
C107   C     0.51751   0.16713   0.05549   0.00000  Uiso   1.00
C108   C     0.52526   0.09615   0.06484   0.00000  Uiso   1.00
C109   C     0.47744   0.19520   0.41936   0.00000  Uiso   1.00
H110   H     0.52098   0.19910   0.06863   0.00000  Uiso   1.00
H111   H     0.46703   0.25800   0.41417   0.00000  Uiso   1.00
H112   H     0.47498   0.11100   0.40355   0.00000  Uiso   1.00
C113   C     0.65990   0.17674   0.23631   0.00000  Uiso   1.00
H114   H     0.34882   0.19538   0.21127   0.00000  Uiso   1.00
C115   C     0.34081   0.15662   0.26361   0.00000  Uiso   1.00
H116   H     0.65259   0.13767   0.28883   0.00000  Uiso   1.00
C117   C     0.51247   0.32197   0.23316   0.00000  Uiso   1.00
C118   C     0.48662   0.01187   0.26365   0.00000  Uiso   1.00
H119   H     0.46484   0.33215   0.29309   0.00000  Uiso   1.00
N120   N     0.54253   0.00595   0.19458   0.00000  Uiso   1.00
O121   O     0.54954   0.31738   0.15620   0.00000  Uiso   1.00
O122   O     0.56545   0.04201   0.19829   0.00000  Uiso   1.00
O123   O     0.47591   0.23673   0.05268   0.00000  Uiso   1.00
C124   C     0.43409   0.22352   0.07773   0.00000  Uiso   1.00
H125   H     0.42651   0.18891   0.07441   0.00000  Uiso   1.00
H126   H     0.40984   0.23788   0.06678   0.00000  Uiso   1.00
C127   C     0.43102   0.23719   0.12689   0.00000  Uiso   1.00
H128   H     0.43863   0.27161   0.13139   0.00000  Uiso   1.00
H129   H     0.39799   0.22785   0.14682   0.00000  Uiso   1.00
H130   H     0.45393   0.22227   0.13921   0.00000  Uiso   1.00
O131   O     0.46333   0.28969   0.49820   0.00000  Uiso   1.00
C132   C     0.42529   0.30028   0.49064   0.00000  Uiso   1.00
H133   H     0.39893   0.27362   0.49463   0.00000  Uiso   1.00
H134   H     0.43177   0.31118   0.45653   0.00000  Uiso   1.00
C135   C     0.40991   0.00239   0.02448   0.00000  Uiso   1.00
H136   H     0.43480   0.03004   0.02081   0.00000  Uiso   1.00
H137   H     0.38008   0.01111   0.01886   0.00000  Uiso   1.00
H138   H     0.40319   0.32582   0.05902   0.00000  Uiso   1.00
Zn139  Zn    0.86005   0.13994   0.28734   0.00000  Uiso   1.00
Zn140  Zn    0.80046   0.12458   0.21876   0.00000  Uiso   1.00
Zn141  Zn    0.87723   0.19775   0.20657   0.00000  Uiso   1.00
Zn142  Zn    0.79560   0.20439   0.28734   0.00000  Uiso   1.00
O143   O     0.83333   0.16667   0.25000   0.00000  Uiso   1.00
O144   O     0.73738   0.18878   0.28213   0.00000  Uiso   1.00
O145   O     0.92158   0.15226   0.27014   0.00000  Uiso   1.00
O146   O     0.80426   0.06944   0.23413   0.00000  Uiso   1.00
O147   O     0.87012   0.25620   0.21361   0.00000  Uiso   1.00
O148   O     0.82118   0.12637   0.15459   0.00000  Uiso   1.00
O149   O     0.79607   0.20391   0.34968   0.00000  Uiso   1.00
O150   O     0.87491   0.17759   0.14606   0.00000  Uiso   1.00
O151   O     0.84118   0.15880   0.34968   0.00000  Uiso   1.00
O152   O     0.84597   0.08019   0.28214   0.00000  Uiso   1.00
O153   O     0.81298   0.26085   0.27014   0.00000  Uiso   1.00
O154   O     0.74078   0.13291   0.23413   0.00000  Uiso   1.00
O155   O     0.93360   0.19272   0.21361   0.00000  Uiso   1.00
C156   C     0.71941   0.15946   0.25995   0.00000  Uiso   1.00
C157   C     0.94742   0.17380   0.24007   0.00000  Uiso   1.00
C158   C     0.82232   0.05591   0.26076   0.00000  Uiso   1.00
C159   C     0.84280   0.27772   0.23932   0.00000  Uiso   1.00
C160   C     0.85192   0.14768   0.12936   0.00000  Uiso   1.00
C161   C     0.81519   0.18451   0.37096   0.00000  Uiso   1.00
C162   C     0.85094   0.08344   0.02311   0.00000  Uiso   1.00
H163   H     0.86348   0.07314   0.08510   0.00000  Uiso   1.00
H164   H     0.82829   0.06459   0.44686   0.00000  Uiso   1.00
H165   H     0.85169   0.05093   0.01090   0.00000  Uiso   1.00
C166   C     0.85775   0.13782   0.08142   0.00000  Uiso   1.00
C167   C     0.80410   0.23602   0.43618   0.00000  Uiso   1.00
C168   C     0.80314   0.24927   0.48090   0.00000  Uiso   1.00
C169   C     0.81256   0.22249   0.00839   0.00000  Uiso   1.00
C170   C     0.82331   0.18176   0.49107   0.00000  Uiso   1.00
C171   C     0.81754   0.16707   0.44765   0.00000  Uiso   1.00
C172   C     0.83786   0.15429   0.01536   0.00000  Uiso   1.00
C173   C     0.83950   0.11173   0.49882   0.00000  Uiso   1.00
C174   C     0.82845   0.09722   0.45887   0.00000  Uiso   1.00
C175   C     0.81773   0.12437   0.43364   0.00000  Uiso   1.00
C176   C     0.85084   0.16713   0.05549   0.00000  Uiso   1.00
C177   C     0.85860   0.09615   0.06484   0.00000  Uiso   1.00
C178   C     0.81077   0.19520   0.41936   0.00000  Uiso   1.00
H179   H     0.85431   0.19910   0.06863   0.00000  Uiso   1.00
H180   H     0.80036   0.25800   0.41417   0.00000  Uiso   1.00
H181   H     0.80831   0.11100   0.40355   0.00000  Uiso   1.00
C182   C     0.99324   0.17674   0.23631   0.00000  Uiso   1.00
H183   H     0.68216   0.19538   0.21127   0.00000  Uiso   1.00
C184   C     0.67414   0.15662   0.26361   0.00000  Uiso   1.00
H185   H     0.98592   0.13767   0.28883   0.00000  Uiso   1.00
C186   C     0.84581   0.32197   0.23316   0.00000  Uiso   1.00
C187   C     0.81996   0.01187   0.26365   0.00000  Uiso   1.00
H188   H     0.79817   0.33215   0.29309   0.00000  Uiso   1.00
N189   N     0.87586   0.00595   0.19458   0.00000  Uiso   1.00
O190   O     0.88287   0.31738   0.15620   0.00000  Uiso   1.00
O191   O     0.89879   0.04201   0.19829   0.00000  Uiso   1.00
O192   O     0.80924   0.23673   0.05268   0.00000  Uiso   1.00
C193   C     0.76742   0.22352   0.07773   0.00000  Uiso   1.00
H194   H     0.75985   0.18891   0.07441   0.00000  Uiso   1.00
H195   H     0.74317   0.23788   0.06678   0.00000  Uiso   1.00
C196   C     0.76435   0.23719   0.12689   0.00000  Uiso   1.00
H197   H     0.77196   0.27161   0.13139   0.00000  Uiso   1.00
H198   H     0.73133   0.22785   0.14682   0.00000  Uiso   1.00
H199   H     0.78726   0.22227   0.13921   0.00000  Uiso   1.00
O200   O     0.79666   0.28969   0.49820   0.00000  Uiso   1.00
C201   C     0.75862   0.30028   0.49064   0.00000  Uiso   1.00
H202   H     0.73227   0.27362   0.49463   0.00000  Uiso   1.00
H203   H     0.76510   0.31118   0.45653   0.00000  Uiso   1.00
C204   C     0.74325   0.00239   0.02448   0.00000  Uiso   1.00
H205   H     0.76813   0.03004   0.02081   0.00000  Uiso   1.00
H206   H     0.71341   0.01111   0.01886   0.00000  Uiso   1.00
H207   H     0.73652   0.32582   0.05902   0.00000  Uiso   1.00
Zn208  Zn    0.19338   0.47327   0.28734   0.00000  Uiso   1.00
Zn209  Zn    0.13379   0.45791   0.21876   0.00000  Uiso   1.00
Zn210  Zn    0.21056   0.53109   0.20657   0.00000  Uiso   1.00
Zn211  Zn    0.12893   0.53773   0.28734   0.00000  Uiso   1.00
O212   O     0.16667   0.50000   0.25000   0.00000  Uiso   1.00
O213   O     0.07071   0.52211   0.28213   0.00000  Uiso   1.00
O214   O     0.25491   0.48559   0.27014   0.00000  Uiso   1.00
O215   O     0.13760   0.40277   0.23413   0.00000  Uiso   1.00
O216   O     0.20345   0.58953   0.21361   0.00000  Uiso   1.00
O217   O     0.15451   0.45970   0.15459   0.00000  Uiso   1.00
O218   O     0.12940   0.53724   0.34968   0.00000  Uiso   1.00
O219   O     0.20824   0.51092   0.14606   0.00000  Uiso   1.00
O220   O     0.17451   0.49213   0.34968   0.00000  Uiso   1.00
O221   O     0.17930   0.41352   0.28214   0.00000  Uiso   1.00
O222   O     0.14632   0.59418   0.27014   0.00000  Uiso   1.00
O223   O     0.07412   0.46625   0.23413   0.00000  Uiso   1.00
O224   O     0.26693   0.52605   0.21361   0.00000  Uiso   1.00
C225   C     0.05274   0.49280   0.25995   0.00000  Uiso   1.00
C226   C     0.28076   0.50713   0.24007   0.00000  Uiso   1.00
C227   C     0.15566   0.38925   0.26076   0.00000  Uiso   1.00
C228   C     0.17613   0.61106   0.23932   0.00000  Uiso   1.00
C229   C     0.18526   0.48101   0.12936   0.00000  Uiso   1.00
C230   C     0.14852   0.51784   0.37096   0.00000  Uiso   1.00
C231   C     0.18428   0.41677   0.02311   0.00000  Uiso   1.00
H232   H     0.19682   0.40648   0.08510   0.00000  Uiso   1.00
H233   H     0.16162   0.39793   0.44686   0.00000  Uiso   1.00
H234   H     0.18502   0.38427   0.01090   0.00000  Uiso   1.00
C235   C     0.19109   0.47116   0.08142   0.00000  Uiso   1.00
C236   C     0.13743   0.56935   0.43618   0.00000  Uiso   1.00
C237   C     0.13647   0.58260   0.48090   0.00000  Uiso   1.00
C238   C     0.14589   0.55582   0.00839   0.00000  Uiso   1.00
C239   C     0.15664   0.51509   0.49107   0.00000  Uiso   1.00
C240   C     0.15087   0.50040   0.44765   0.00000  Uiso   1.00
C241   C     0.17119   0.48762   0.01536   0.00000  Uiso   1.00
C242   C     0.17283   0.44506   0.49882   0.00000  Uiso   1.00
C243   C     0.16179   0.43055   0.45887   0.00000  Uiso   1.00
C244   C     0.15106   0.45770   0.43364   0.00000  Uiso   1.00
C245   C     0.18418   0.50046   0.05549   0.00000  Uiso   1.00
C246   C     0.19193   0.42948   0.06484   0.00000  Uiso   1.00
C247   C     0.14411   0.52853   0.41936   0.00000  Uiso   1.00
H248   H     0.18765   0.53243   0.06863   0.00000  Uiso   1.00
H249   H     0.13370   0.59133   0.41417   0.00000  Uiso   1.00
H250   H     0.14164   0.44433   0.40355   0.00000  Uiso   1.00
C251   C     0.32657   0.51007   0.23631   0.00000  Uiso   1.00
H252   H     0.01549   0.52872   0.21127   0.00000  Uiso   1.00
C253   C     0.00748   0.48995   0.26361   0.00000  Uiso   1.00
H254   H     0.31926   0.47101   0.28883   0.00000  Uiso   1.00
C255   C     0.17914   0.65530   0.23316   0.00000  Uiso   1.00
C256   C     0.15329   0.34520   0.26365   0.00000  Uiso   1.00
H257   H     0.13150   0.66548   0.29309   0.00000  Uiso   1.00
N258   N     0.20920   0.33928   0.19458   0.00000  Uiso   1.00
O259   O     0.21621   0.65071   0.15620   0.00000  Uiso   1.00
O260   O     0.23212   0.37534   0.19829   0.00000  Uiso   1.00
O261   O     0.14257   0.57006   0.05268   0.00000  Uiso   1.00
C262   C     0.10076   0.55685   0.07773   0.00000  Uiso   1.00
H263   H     0.09318   0.52225   0.07441   0.00000  Uiso   1.00
H264   H     0.07651   0.57122   0.06678   0.00000  Uiso   1.00
C265   C     0.09769   0.57053   0.12689   0.00000  Uiso   1.00
H266   H     0.10530   0.60494   0.13139   0.00000  Uiso   1.00
H267   H     0.06466   0.56119   0.14682   0.00000  Uiso   1.00
H268   H     0.12060   0.55560   0.13921   0.00000  Uiso   1.00
O269   O     0.12999   0.62302   0.49820   0.00000  Uiso   1.00
C270   C     0.09195   0.63361   0.49064   0.00000  Uiso   1.00
H271   H     0.06560   0.60695   0.49463   0.00000  Uiso   1.00
H272   H     0.09843   0.64452   0.45653   0.00000  Uiso   1.00
C273   C     0.07658   0.33572   0.02448   0.00000  Uiso   1.00
H274   H     0.10147   0.36338   0.02081   0.00000  Uiso   1.00
H275   H     0.04675   0.34444   0.01886   0.00000  Uiso   1.00
H276   H     0.06985   0.65916   0.05902   0.00000  Uiso   1.00
Zn277  Zn    0.52672   0.47327   0.28734   0.00000  Uiso   1.00
Zn278  Zn    0.46713   0.45791   0.21876   0.00000  Uiso   1.00
Zn279  Zn    0.54389   0.53109   0.20657   0.00000  Uiso   1.00
Zn280  Zn    0.46226   0.53773   0.28734   0.00000  Uiso   1.00
O281   O     0.50000   0.50000   0.25000   0.00000  Uiso   1.00
O282   O     0.40405   0.52211   0.28213   0.00000  Uiso   1.00
O283   O     0.58824   0.48559   0.27014   0.00000  Uiso   1.00
O284   O     0.47093   0.40277   0.23413   0.00000  Uiso   1.00
O285   O     0.53678   0.58953   0.21361   0.00000  Uiso   1.00
O286   O     0.48784   0.45970   0.15459   0.00000  Uiso   1.00
O287   O     0.46274   0.53724   0.34968   0.00000  Uiso   1.00
O288   O     0.54157   0.51092   0.14606   0.00000  Uiso   1.00
O289   O     0.50785   0.49213   0.34968   0.00000  Uiso   1.00
O290   O     0.51264   0.41352   0.28214   0.00000  Uiso   1.00
O291   O     0.47965   0.59418   0.27014   0.00000  Uiso   1.00
O292   O     0.40745   0.46625   0.23413   0.00000  Uiso   1.00
O293   O     0.60026   0.52605   0.21361   0.00000  Uiso   1.00
C294   C     0.38607   0.49280   0.25995   0.00000  Uiso   1.00
C295   C     0.61409   0.50713   0.24007   0.00000  Uiso   1.00
C296   C     0.48899   0.38925   0.26076   0.00000  Uiso   1.00
C297   C     0.50947   0.61106   0.23932   0.00000  Uiso   1.00
C298   C     0.51859   0.48101   0.12936   0.00000  Uiso   1.00
C299   C     0.48186   0.51784   0.37096   0.00000  Uiso   1.00
C300   C     0.51761   0.41677   0.02311   0.00000  Uiso   1.00
H301   H     0.53015   0.40648   0.08510   0.00000  Uiso   1.00
H302   H     0.49495   0.39793   0.44686   0.00000  Uiso   1.00
H303   H     0.51835   0.38427   0.01090   0.00000  Uiso   1.00
C304   C     0.52442   0.47116   0.08142   0.00000  Uiso   1.00
C305   C     0.47076   0.56935   0.43618   0.00000  Uiso   1.00
C306   C     0.46981   0.58260   0.48090   0.00000  Uiso   1.00
C307   C     0.47923   0.55582   0.00839   0.00000  Uiso   1.00
C308   C     0.48998   0.51509   0.49107   0.00000  Uiso   1.00
C309   C     0.48421   0.50040   0.44765   0.00000  Uiso   1.00
C310   C     0.50453   0.48762   0.01536   0.00000  Uiso   1.00
C311   C     0.50616   0.44506   0.49882   0.00000  Uiso   1.00
C312   C     0.49512   0.43055   0.45887   0.00000  Uiso   1.00
C313   C     0.48440   0.45770   0.43364   0.00000  Uiso   1.00
C314   C     0.51751   0.50046   0.05549   0.00000  Uiso   1.00
C315   C     0.52526   0.42948   0.06484   0.00000  Uiso   1.00
C316   C     0.47744   0.52853   0.41936   0.00000  Uiso   1.00
H317   H     0.52098   0.53243   0.06863   0.00000  Uiso   1.00
H318   H     0.46703   0.59133   0.41417   0.00000  Uiso   1.00
H319   H     0.47498   0.44433   0.40355   0.00000  Uiso   1.00
C320   C     0.65990   0.51007   0.23631   0.00000  Uiso   1.00
H321   H     0.34882   0.52872   0.21127   0.00000  Uiso   1.00
C322   C     0.34081   0.48995   0.26361   0.00000  Uiso   1.00
H323   H     0.65259   0.47101   0.28883   0.00000  Uiso   1.00
C324   C     0.51247   0.65530   0.23316   0.00000  Uiso   1.00
C325   C     0.48662   0.34520   0.26365   0.00000  Uiso   1.00
H326   H     0.46484   0.66548   0.29309   0.00000  Uiso   1.00
N327   N     0.54253   0.33928   0.19458   0.00000  Uiso   1.00
O328   O     0.54954   0.65071   0.15620   0.00000  Uiso   1.00
O329   O     0.56545   0.37534   0.19829   0.00000  Uiso   1.00
O330   O     0.47591   0.57006   0.05268   0.00000  Uiso   1.00
C331   C     0.43409   0.55685   0.07773   0.00000  Uiso   1.00
H332   H     0.42651   0.52225   0.07441   0.00000  Uiso   1.00
H333   H     0.40984   0.57122   0.06678   0.00000  Uiso   1.00
C334   C     0.43102   0.57053   0.12689   0.00000  Uiso   1.00
H335   H     0.43863   0.60494   0.13139   0.00000  Uiso   1.00
H336   H     0.39799   0.56119   0.14682   0.00000  Uiso   1.00
H337   H     0.45393   0.55560   0.13921   0.00000  Uiso   1.00
O338   O     0.46333   0.62302   0.49820   0.00000  Uiso   1.00
C339   C     0.42529   0.63361   0.49064   0.00000  Uiso   1.00
H340   H     0.39893   0.60695   0.49463   0.00000  Uiso   1.00
H341   H     0.43177   0.64452   0.45653   0.00000  Uiso   1.00
C342   C     0.40991   0.33572   0.02448   0.00000  Uiso   1.00
H343   H     0.43480   0.36338   0.02081   0.00000  Uiso   1.00
H344   H     0.38008   0.34444   0.01886   0.00000  Uiso   1.00
H345   H     0.40319   0.65916   0.05902   0.00000  Uiso   1.00
Zn346  Zn    0.86005   0.47327   0.28734   0.00000  Uiso   1.00
Zn347  Zn    0.80046   0.45791   0.21876   0.00000  Uiso   1.00
Zn348  Zn    0.87723   0.53109   0.20657   0.00000  Uiso   1.00
Zn349  Zn    0.79560   0.53773   0.28734   0.00000  Uiso   1.00
O350   O     0.83333   0.50000   0.25000   0.00000  Uiso   1.00
O351   O     0.73738   0.52211   0.28213   0.00000  Uiso   1.00
O352   O     0.92158   0.48559   0.27014   0.00000  Uiso   1.00
O353   O     0.80426   0.40277   0.23413   0.00000  Uiso   1.00
O354   O     0.87012   0.58953   0.21361   0.00000  Uiso   1.00
O355   O     0.82118   0.45970   0.15459   0.00000  Uiso   1.00
O356   O     0.79607   0.53724   0.34968   0.00000  Uiso   1.00
O357   O     0.87491   0.51092   0.14606   0.00000  Uiso   1.00
O358   O     0.84118   0.49213   0.34968   0.00000  Uiso   1.00
O359   O     0.84597   0.41352   0.28214   0.00000  Uiso   1.00
O360   O     0.81298   0.59418   0.27014   0.00000  Uiso   1.00
O361   O     0.74078   0.46625   0.23413   0.00000  Uiso   1.00
O362   O     0.93360   0.52605   0.21361   0.00000  Uiso   1.00
C363   C     0.71941   0.49280   0.25995   0.00000  Uiso   1.00
C364   C     0.94742   0.50713   0.24007   0.00000  Uiso   1.00
C365   C     0.82232   0.38925   0.26076   0.00000  Uiso   1.00
C366   C     0.84280   0.61106   0.23932   0.00000  Uiso   1.00
C367   C     0.85192   0.48101   0.12936   0.00000  Uiso   1.00
C368   C     0.81519   0.51784   0.37096   0.00000  Uiso   1.00
C369   C     0.85094   0.41677   0.02311   0.00000  Uiso   1.00
H370   H     0.86348   0.40648   0.08510   0.00000  Uiso   1.00
H371   H     0.82829   0.39793   0.44686   0.00000  Uiso   1.00
H372   H     0.85169   0.38427   0.01090   0.00000  Uiso   1.00
C373   C     0.85775   0.47116   0.08142   0.00000  Uiso   1.00
C374   C     0.80410   0.56935   0.43618   0.00000  Uiso   1.00
C375   C     0.80314   0.58260   0.48090   0.00000  Uiso   1.00
C376   C     0.81256   0.55582   0.00839   0.00000  Uiso   1.00
C377   C     0.82331   0.51509   0.49107   0.00000  Uiso   1.00
C378   C     0.81754   0.50040   0.44765   0.00000  Uiso   1.00
C379   C     0.83786   0.48762   0.01536   0.00000  Uiso   1.00
C380   C     0.83950   0.44506   0.49882   0.00000  Uiso   1.00
C381   C     0.82845   0.43055   0.45887   0.00000  Uiso   1.00
C382   C     0.81773   0.45770   0.43364   0.00000  Uiso   1.00
C383   C     0.85084   0.50046   0.05549   0.00000  Uiso   1.00
C384   C     0.85860   0.42948   0.06484   0.00000  Uiso   1.00
C385   C     0.81077   0.52853   0.41936   0.00000  Uiso   1.00
H386   H     0.85431   0.53243   0.06863   0.00000  Uiso   1.00
H387   H     0.80036   0.59133   0.41417   0.00000  Uiso   1.00
H388   H     0.80831   0.44433   0.40355   0.00000  Uiso   1.00
C389   C     0.99324   0.51007   0.23631   0.00000  Uiso   1.00
H390   H     0.68216   0.52872   0.21127   0.00000  Uiso   1.00
C391   C     0.67414   0.48995   0.26361   0.00000  Uiso   1.00
H392   H     0.98592   0.47101   0.28883   0.00000  Uiso   1.00
C393   C     0.84581   0.65530   0.23316   0.00000  Uiso   1.00
C394   C     0.81996   0.34520   0.26365   0.00000  Uiso   1.00
H395   H     0.79817   0.66548   0.29309   0.00000  Uiso   1.00
N396   N     0.87586   0.33928   0.19458   0.00000  Uiso   1.00
O397   O     0.88287   0.65071   0.15620   0.00000  Uiso   1.00
O398   O     0.89879   0.37534   0.19829   0.00000  Uiso   1.00
O399   O     0.80924   0.57006   0.05268   0.00000  Uiso   1.00
C400   C     0.76742   0.55685   0.07773   0.00000  Uiso   1.00
H401   H     0.75985   0.52225   0.07441   0.00000  Uiso   1.00
H402   H     0.74317   0.57122   0.06678   0.00000  Uiso   1.00
C403   C     0.76435   0.57053   0.12689   0.00000  Uiso   1.00
H404   H     0.77196   0.60494   0.13139   0.00000  Uiso   1.00
H405   H     0.73133   0.56119   0.14682   0.00000  Uiso   1.00
H406   H     0.78726   0.55560   0.13921   0.00000  Uiso   1.00
O407   O     0.79666   0.62302   0.49820   0.00000  Uiso   1.00
C408   C     0.75862   0.63361   0.49064   0.00000  Uiso   1.00
H409   H     0.73227   0.60695   0.49463   0.00000  Uiso   1.00
H410   H     0.76510   0.64452   0.45653   0.00000  Uiso   1.00
C411   C     0.74325   0.33572   0.02448   0.00000  Uiso   1.00
H412   H     0.76813   0.36338   0.02081   0.00000  Uiso   1.00
H413   H     0.71341   0.34444   0.01886   0.00000  Uiso   1.00
H414   H     0.73652   0.65916   0.05902   0.00000  Uiso   1.00
Zn415  Zn    0.19338   0.80661   0.28734   0.00000  Uiso   1.00
Zn416  Zn    0.13379   0.79124   0.21876   0.00000  Uiso   1.00
Zn417  Zn    0.21056   0.86442   0.20657   0.00000  Uiso   1.00
Zn418  Zn    0.12893   0.87106   0.28734   0.00000  Uiso   1.00
O419   O     0.16667   0.83333   0.25000   0.00000  Uiso   1.00
O420   O     0.07071   0.85544   0.28213   0.00000  Uiso   1.00
O421   O     0.25491   0.81892   0.27014   0.00000  Uiso   1.00
O422   O     0.13760   0.73610   0.23413   0.00000  Uiso   1.00
O423   O     0.20345   0.92286   0.21361   0.00000  Uiso   1.00
O424   O     0.15451   0.79304   0.15459   0.00000  Uiso   1.00
O425   O     0.12940   0.87058   0.34968   0.00000  Uiso   1.00
O426   O     0.20824   0.84425   0.14606   0.00000  Uiso   1.00
O427   O     0.17451   0.82546   0.34968   0.00000  Uiso   1.00
O428   O     0.17930   0.74686   0.28214   0.00000  Uiso   1.00
O429   O     0.14632   0.92751   0.27014   0.00000  Uiso   1.00
O430   O     0.07412   0.79958   0.23413   0.00000  Uiso   1.00
O431   O     0.26693   0.85939   0.21361   0.00000  Uiso   1.00
C432   C     0.05274   0.82613   0.25995   0.00000  Uiso   1.00
C433   C     0.28076   0.84047   0.24007   0.00000  Uiso   1.00
C434   C     0.15566   0.72258   0.26076   0.00000  Uiso   1.00
C435   C     0.17613   0.94439   0.23932   0.00000  Uiso   1.00
C436   C     0.18526   0.81435   0.12936   0.00000  Uiso   1.00
C437   C     0.14852   0.85117   0.37096   0.00000  Uiso   1.00
C438   C     0.18428   0.75010   0.02311   0.00000  Uiso   1.00
H439   H     0.19682   0.73981   0.08510   0.00000  Uiso   1.00
H440   H     0.16162   0.73126   0.44686   0.00000  Uiso   1.00
H441   H     0.18502   0.71760   0.01090   0.00000  Uiso   1.00
C442   C     0.19109   0.80449   0.08142   0.00000  Uiso   1.00
C443   C     0.13743   0.90269   0.43618   0.00000  Uiso   1.00
C444   C     0.13647   0.91593   0.48090   0.00000  Uiso   1.00
C445   C     0.14589   0.88915   0.00839   0.00000  Uiso   1.00
C446   C     0.15664   0.84842   0.49107   0.00000  Uiso   1.00
C447   C     0.15087   0.83374   0.44765   0.00000  Uiso   1.00
C448   C     0.17119   0.82096   0.01536   0.00000  Uiso   1.00
C449   C     0.17283   0.77840   0.49882   0.00000  Uiso   1.00
C450   C     0.16179   0.76389   0.45887   0.00000  Uiso   1.00
C451   C     0.15106   0.79103   0.43364   0.00000  Uiso   1.00
C452   C     0.18418   0.83379   0.05549   0.00000  Uiso   1.00
C453   C     0.19193   0.76282   0.06484   0.00000  Uiso   1.00
C454   C     0.14411   0.86187   0.41936   0.00000  Uiso   1.00
H455   H     0.18765   0.86577   0.06863   0.00000  Uiso   1.00
H456   H     0.13370   0.92467   0.41417   0.00000  Uiso   1.00
H457   H     0.14164   0.77766   0.40355   0.00000  Uiso   1.00
C458   C     0.32657   0.84340   0.23631   0.00000  Uiso   1.00
H459   H     0.01549   0.86205   0.21127   0.00000  Uiso   1.00
C460   C     0.00748   0.82329   0.26361   0.00000  Uiso   1.00
H461   H     0.31926   0.80434   0.28883   0.00000  Uiso   1.00
C462   C     0.17914   0.98864   0.23316   0.00000  Uiso   1.00
C463   C     0.15329   0.67853   0.26365   0.00000  Uiso   1.00
H464   H     0.13150   0.99882   0.29309   0.00000  Uiso   1.00
N465   N     0.20920   0.67262   0.19458   0.00000  Uiso   1.00
O466   O     0.21621   0.98404   0.15620   0.00000  Uiso   1.00
O467   O     0.23212   0.70868   0.19829   0.00000  Uiso   1.00
O468   O     0.14257   0.90340   0.05268   0.00000  Uiso   1.00
C469   C     0.10076   0.89019   0.07773   0.00000  Uiso   1.00
H470   H     0.09318   0.85558   0.07441   0.00000  Uiso   1.00
H471   H     0.07651   0.90455   0.06678   0.00000  Uiso   1.00
C472   C     0.09769   0.90386   0.12689   0.00000  Uiso   1.00
H473   H     0.10530   0.93828   0.13139   0.00000  Uiso   1.00
H474   H     0.06466   0.89452   0.14682   0.00000  Uiso   1.00
H475   H     0.12060   0.88894   0.13921   0.00000  Uiso   1.00
O476   O     0.12999   0.95636   0.49820   0.00000  Uiso   1.00
C477   C     0.09195   0.96695   0.49064   0.00000  Uiso   1.00
H478   H     0.06560   0.94028   0.49463   0.00000  Uiso   1.00
H479   H     0.09843   0.97785   0.45653   0.00000  Uiso   1.00
C480   C     0.07658   0.66906   0.02448   0.00000  Uiso   1.00
H481   H     0.10147   0.69671   0.02081   0.00000  Uiso   1.00
H482   H     0.04675   0.67778   0.01886   0.00000  Uiso   1.00
H483   H     0.06985   0.99249   0.05902   0.00000  Uiso   1.00
Zn484  Zn    0.52672   0.80661   0.28734   0.00000  Uiso   1.00
Zn485  Zn    0.46713   0.79124   0.21876   0.00000  Uiso   1.00
Zn486  Zn    0.54389   0.86442   0.20657   0.00000  Uiso   1.00
Zn487  Zn    0.46226   0.87106   0.28734   0.00000  Uiso   1.00
O488   O     0.50000   0.83333   0.25000   0.00000  Uiso   1.00
O489   O     0.40405   0.85544   0.28213   0.00000  Uiso   1.00
O490   O     0.58824   0.81892   0.27014   0.00000  Uiso   1.00
O491   O     0.47093   0.73610   0.23413   0.00000  Uiso   1.00
O492   O     0.53678   0.92286   0.21361   0.00000  Uiso   1.00
O493   O     0.48784   0.79304   0.15459   0.00000  Uiso   1.00
O494   O     0.46274   0.87058   0.34968   0.00000  Uiso   1.00
O495   O     0.54157   0.84425   0.14606   0.00000  Uiso   1.00
O496   O     0.50785   0.82546   0.34968   0.00000  Uiso   1.00
O497   O     0.51264   0.74686   0.28214   0.00000  Uiso   1.00
O498   O     0.47965   0.92751   0.27014   0.00000  Uiso   1.00
O499   O     0.40745   0.79958   0.23413   0.00000  Uiso   1.00
O500   O     0.60026   0.85939   0.21361   0.00000  Uiso   1.00
C501   C     0.38607   0.82613   0.25995   0.00000  Uiso   1.00
C502   C     0.61409   0.84047   0.24007   0.00000  Uiso   1.00
C503   C     0.48899   0.72258   0.26076   0.00000  Uiso   1.00
C504   C     0.50947   0.94439   0.23932   0.00000  Uiso   1.00
C505   C     0.51859   0.81435   0.12936   0.00000  Uiso   1.00
C506   C     0.48186   0.85117   0.37096   0.00000  Uiso   1.00
C507   C     0.51761   0.75010   0.02311   0.00000  Uiso   1.00
H508   H     0.53015   0.73981   0.08510   0.00000  Uiso   1.00
H509   H     0.49495   0.73126   0.44686   0.00000  Uiso   1.00
H510   H     0.51835   0.71760   0.01090   0.00000  Uiso   1.00
C511   C     0.52442   0.80449   0.08142   0.00000  Uiso   1.00
C512   C     0.47076   0.90269   0.43618   0.00000  Uiso   1.00
C513   C     0.46981   0.91593   0.48090   0.00000  Uiso   1.00
C514   C     0.47923   0.88915   0.00839   0.00000  Uiso   1.00
C515   C     0.48998   0.84842   0.49107   0.00000  Uiso   1.00
C516   C     0.48421   0.83374   0.44765   0.00000  Uiso   1.00
C517   C     0.50453   0.82096   0.01536   0.00000  Uiso   1.00
C518   C     0.50616   0.77840   0.49882   0.00000  Uiso   1.00
C519   C     0.49512   0.76389   0.45887   0.00000  Uiso   1.00
C520   C     0.48440   0.79103   0.43364   0.00000  Uiso   1.00
C521   C     0.51751   0.83379   0.05549   0.00000  Uiso   1.00
C522   C     0.52526   0.76282   0.06484   0.00000  Uiso   1.00
C523   C     0.47744   0.86187   0.41936   0.00000  Uiso   1.00
H524   H     0.52098   0.86577   0.06863   0.00000  Uiso   1.00
H525   H     0.46703   0.92467   0.41417   0.00000  Uiso   1.00
H526   H     0.47498   0.77766   0.40355   0.00000  Uiso   1.00
C527   C     0.65990   0.84340   0.23631   0.00000  Uiso   1.00
H528   H     0.34882   0.86205   0.21127   0.00000  Uiso   1.00
C529   C     0.34081   0.82329   0.26361   0.00000  Uiso   1.00
H530   H     0.65259   0.80434   0.28883   0.00000  Uiso   1.00
C531   C     0.51247   0.98864   0.23316   0.00000  Uiso   1.00
C532   C     0.48662   0.67853   0.26365   0.00000  Uiso   1.00
H533   H     0.46484   0.99882   0.29309   0.00000  Uiso   1.00
N534   N     0.54253   0.67262   0.19458   0.00000  Uiso   1.00
O535   O     0.54954   0.98404   0.15620   0.00000  Uiso   1.00
O536   O     0.56545   0.70868   0.19829   0.00000  Uiso   1.00
O537   O     0.47591   0.90340   0.05268   0.00000  Uiso   1.00
C538   C     0.43409   0.89019   0.07773   0.00000  Uiso   1.00
H539   H     0.42651   0.85558   0.07441   0.00000  Uiso   1.00
H540   H     0.40984   0.90455   0.06678   0.00000  Uiso   1.00
C541   C     0.43102   0.90386   0.12689   0.00000  Uiso   1.00
H542   H     0.43863   0.93828   0.13139   0.00000  Uiso   1.00
H543   H     0.39799   0.89452   0.14682   0.00000  Uiso   1.00
H544   H     0.45393   0.88894   0.13921   0.00000  Uiso   1.00
O545   O     0.46333   0.95636   0.49820   0.00000  Uiso   1.00
C546   C     0.42529   0.96695   0.49064   0.00000  Uiso   1.00
H547   H     0.39893   0.94028   0.49463   0.00000  Uiso   1.00
H548   H     0.43177   0.97785   0.45653   0.00000  Uiso   1.00
C549   C     0.40991   0.66906   0.02448   0.00000  Uiso   1.00
H550   H     0.43480   0.69671   0.02081   0.00000  Uiso   1.00
H551   H     0.38008   0.67778   0.01886   0.00000  Uiso   1.00
H552   H     0.40319   0.99249   0.05902   0.00000  Uiso   1.00
Zn553  Zn    0.86005   0.80661   0.28734   0.00000  Uiso   1.00
Zn554  Zn    0.80046   0.79124   0.21876   0.00000  Uiso   1.00
Zn555  Zn    0.87723   0.86442   0.20657   0.00000  Uiso   1.00
Zn556  Zn    0.79560   0.87106   0.28734   0.00000  Uiso   1.00
O557   O     0.83333   0.83333   0.25000   0.00000  Uiso   1.00
O558   O     0.73738   0.85544   0.28213   0.00000  Uiso   1.00
O559   O     0.92158   0.81892   0.27014   0.00000  Uiso   1.00
O560   O     0.80426   0.73610   0.23413   0.00000  Uiso   1.00
O561   O     0.87012   0.92286   0.21361   0.00000  Uiso   1.00
O562   O     0.82118   0.79304   0.15459   0.00000  Uiso   1.00
O563   O     0.79607   0.87058   0.34968   0.00000  Uiso   1.00
O564   O     0.87491   0.84425   0.14606   0.00000  Uiso   1.00
O565   O     0.84118   0.82546   0.34968   0.00000  Uiso   1.00
O566   O     0.84597   0.74686   0.28214   0.00000  Uiso   1.00
O567   O     0.81298   0.92751   0.27014   0.00000  Uiso   1.00
O568   O     0.74078   0.79958   0.23413   0.00000  Uiso   1.00
O569   O     0.93360   0.85939   0.21361   0.00000  Uiso   1.00
C570   C     0.71941   0.82613   0.25995   0.00000  Uiso   1.00
C571   C     0.94742   0.84047   0.24007   0.00000  Uiso   1.00
C572   C     0.82232   0.72258   0.26076   0.00000  Uiso   1.00
C573   C     0.84280   0.94439   0.23932   0.00000  Uiso   1.00
C574   C     0.85192   0.81435   0.12936   0.00000  Uiso   1.00
C575   C     0.81519   0.85117   0.37096   0.00000  Uiso   1.00
C576   C     0.85094   0.75010   0.02311   0.00000  Uiso   1.00
H577   H     0.86348   0.73981   0.08510   0.00000  Uiso   1.00
H578   H     0.82829   0.73126   0.44686   0.00000  Uiso   1.00
H579   H     0.85169   0.71760   0.01090   0.00000  Uiso   1.00
C580   C     0.85775   0.80449   0.08142   0.00000  Uiso   1.00
C581   C     0.80410   0.90269   0.43618   0.00000  Uiso   1.00
C582   C     0.80314   0.91593   0.48090   0.00000  Uiso   1.00
C583   C     0.81256   0.88915   0.00839   0.00000  Uiso   1.00
C584   C     0.82331   0.84842   0.49107   0.00000  Uiso   1.00
C585   C     0.81754   0.83374   0.44765   0.00000  Uiso   1.00
C586   C     0.83786   0.82096   0.01536   0.00000  Uiso   1.00
C587   C     0.83950   0.77840   0.49882   0.00000  Uiso   1.00
C588   C     0.82845   0.76389   0.45887   0.00000  Uiso   1.00
C589   C     0.81773   0.79103   0.43364   0.00000  Uiso   1.00
C590   C     0.85084   0.83379   0.05549   0.00000  Uiso   1.00
C591   C     0.85860   0.76282   0.06484   0.00000  Uiso   1.00
C592   C     0.81077   0.86187   0.41936   0.00000  Uiso   1.00
H593   H     0.85431   0.86577   0.06863   0.00000  Uiso   1.00
H594   H     0.80036   0.92467   0.41417   0.00000  Uiso   1.00
H595   H     0.80831   0.77766   0.40355   0.00000  Uiso   1.00
C596   C     0.99324   0.84340   0.23631   0.00000  Uiso   1.00
H597   H     0.68216   0.86205   0.21127   0.00000  Uiso   1.00
C598   C     0.67414   0.82329   0.26361   0.00000  Uiso   1.00
H599   H     0.98592   0.80434   0.28883   0.00000  Uiso   1.00
C600   C     0.84581   0.98864   0.23316   0.00000  Uiso   1.00
C601   C     0.81996   0.67853   0.26365   0.00000  Uiso   1.00
H602   H     0.79817   0.99882   0.29309   0.00000  Uiso   1.00
N603   N     0.87586   0.67262   0.19458   0.00000  Uiso   1.00
O604   O     0.88287   0.98404   0.15620   0.00000  Uiso   1.00
O605   O     0.89879   0.70868   0.19829   0.00000  Uiso   1.00
O606   O     0.80924   0.90340   0.05268   0.00000  Uiso   1.00
C607   C     0.76742   0.89019   0.07773   0.00000  Uiso   1.00
H608   H     0.75985   0.85558   0.07441   0.00000  Uiso   1.00
H609   H     0.74317   0.90455   0.06678   0.00000  Uiso   1.00
C610   C     0.76435   0.90386   0.12689   0.00000  Uiso   1.00
H611   H     0.77196   0.93828   0.13139   0.00000  Uiso   1.00
H612   H     0.73133   0.89452   0.14682   0.00000  Uiso   1.00
H613   H     0.78726   0.88894   0.13921   0.00000  Uiso   1.00
O614   O     0.79666   0.95636   0.49820   0.00000  Uiso   1.00
C615   C     0.75862   0.96695   0.49064   0.00000  Uiso   1.00
H616   H     0.73227   0.94028   0.49463   0.00000  Uiso   1.00
H617   H     0.76510   0.97785   0.45653   0.00000  Uiso   1.00
C618   C     0.74325   0.66906   0.02448   0.00000  Uiso   1.00
H619   H     0.76813   0.69671   0.02081   0.00000  Uiso   1.00
H620   H     0.71341   0.67778   0.01886   0.00000  Uiso   1.00
H621   H     0.73652   0.99249   0.05902   0.00000  Uiso   1.00
Zn622  Zn    0.19338   0.13994   0.78734   0.00000  Uiso   1.00
Zn623  Zn    0.13379   0.12458   0.71876   0.00000  Uiso   1.00
Zn624  Zn    0.21056   0.19775   0.70657   0.00000  Uiso   1.00
Zn625  Zn    0.12893   0.20439   0.78734   0.00000  Uiso   1.00
O626   O     0.16667   0.16667   0.75000   0.00000  Uiso   1.00
O627   O     0.07071   0.18878   0.78213   0.00000  Uiso   1.00
O628   O     0.25491   0.15226   0.77014   0.00000  Uiso   1.00
O629   O     0.13760   0.06944   0.73413   0.00000  Uiso   1.00
O630   O     0.20345   0.25620   0.71361   0.00000  Uiso   1.00
O631   O     0.15451   0.12637   0.65459   0.00000  Uiso   1.00
O632   O     0.12940   0.20391   0.84968   0.00000  Uiso   1.00
O633   O     0.20824   0.17759   0.64606   0.00000  Uiso   1.00
O634   O     0.17451   0.15880   0.84968   0.00000  Uiso   1.00
O635   O     0.17930   0.08019   0.78214   0.00000  Uiso   1.00
O636   O     0.14632   0.26085   0.77014   0.00000  Uiso   1.00
O637   O     0.07412   0.13291   0.73413   0.00000  Uiso   1.00
O638   O     0.26693   0.19272   0.71361   0.00000  Uiso   1.00
C639   C     0.05274   0.15946   0.75995   0.00000  Uiso   1.00
C640   C     0.28076   0.17380   0.74007   0.00000  Uiso   1.00
C641   C     0.15566   0.05591   0.76076   0.00000  Uiso   1.00
C642   C     0.17613   0.27772   0.73932   0.00000  Uiso   1.00
C643   C     0.18526   0.14768   0.62936   0.00000  Uiso   1.00
C644   C     0.14852   0.18451   0.87096   0.00000  Uiso   1.00
C645   C     0.18428   0.08344   0.52311   0.00000  Uiso   1.00
H646   H     0.19682   0.07314   0.58510   0.00000  Uiso   1.00
H647   H     0.16162   0.06459   0.94686   0.00000  Uiso   1.00
H648   H     0.18502   0.05093   0.51090   0.00000  Uiso   1.00
C649   C     0.19109   0.13782   0.58142   0.00000  Uiso   1.00
C650   C     0.13743   0.23602   0.93618   0.00000  Uiso   1.00
C651   C     0.13647   0.24927   0.98090   0.00000  Uiso   1.00
C652   C     0.14589   0.22249   0.50839   0.00000  Uiso   1.00
C653   C     0.15664   0.18176   0.99107   0.00000  Uiso   1.00
C654   C     0.15087   0.16707   0.94765   0.00000  Uiso   1.00
C655   C     0.17119   0.15429   0.51536   0.00000  Uiso   1.00
C656   C     0.17283   0.11173   0.99882   0.00000  Uiso   1.00
C657   C     0.16179   0.09722   0.95887   0.00000  Uiso   1.00
C658   C     0.15106   0.12437   0.93364   0.00000  Uiso   1.00
C659   C     0.18418   0.16713   0.55549   0.00000  Uiso   1.00
C660   C     0.19193   0.09615   0.56484   0.00000  Uiso   1.00
C661   C     0.14411   0.19520   0.91936   0.00000  Uiso   1.00
H662   H     0.18765   0.19910   0.56863   0.00000  Uiso   1.00
H663   H     0.13370   0.25800   0.91417   0.00000  Uiso   1.00
H664   H     0.14164   0.11100   0.90355   0.00000  Uiso   1.00
C665   C     0.32657   0.17674   0.73631   0.00000  Uiso   1.00
H666   H     0.01549   0.19538   0.71127   0.00000  Uiso   1.00
C667   C     0.00748   0.15662   0.76361   0.00000  Uiso   1.00
H668   H     0.31926   0.13767   0.78883   0.00000  Uiso   1.00
C669   C     0.17914   0.32197   0.73316   0.00000  Uiso   1.00
C670   C     0.15329   0.01187   0.76365   0.00000  Uiso   1.00
H671   H     0.13150   0.33215   0.79309   0.00000  Uiso   1.00
N672   N     0.20920   0.00595   0.69458   0.00000  Uiso   1.00
O673   O     0.21621   0.31738   0.65620   0.00000  Uiso   1.00
O674   O     0.23212   0.04201   0.69829   0.00000  Uiso   1.00
O675   O     0.14257   0.23673   0.55268   0.00000  Uiso   1.00
C676   C     0.10076   0.22352   0.57773   0.00000  Uiso   1.00
H677   H     0.09318   0.18891   0.57441   0.00000  Uiso   1.00
H678   H     0.07651   0.23788   0.56678   0.00000  Uiso   1.00
C679   C     0.09769   0.23719   0.62689   0.00000  Uiso   1.00
H680   H     0.10530   0.27161   0.63139   0.00000  Uiso   1.00
H681   H     0.06466   0.22785   0.64682   0.00000  Uiso   1.00
H682   H     0.12060   0.22227   0.63921   0.00000  Uiso   1.00
O683   O     0.12999   0.28969   0.99820   0.00000  Uiso   1.00
C684   C     0.09195   0.30028   0.99064   0.00000  Uiso   1.00
H685   H     0.06560   0.27362   0.99463   0.00000  Uiso   1.00
H686   H     0.09843   0.31118   0.95653   0.00000  Uiso   1.00
C687   C     0.07658   0.00239   0.52448   0.00000  Uiso   1.00
H688   H     0.10147   0.03004   0.52081   0.00000  Uiso   1.00
H689   H     0.04675   0.01111   0.51886   0.00000  Uiso   1.00
H690   H     0.06985   0.32582   0.55902   0.00000  Uiso   1.00
Zn691  Zn    0.52672   0.13994   0.78734   0.00000  Uiso   1.00
Zn692  Zn    0.46713   0.12458   0.71876   0.00000  Uiso   1.00
Zn693  Zn    0.54389   0.19775   0.70657   0.00000  Uiso   1.00
Zn694  Zn    0.46226   0.20439   0.78734   0.00000  Uiso   1.00
O695   O     0.50000   0.16667   0.75000   0.00000  Uiso   1.00
O696   O     0.40405   0.18878   0.78213   0.00000  Uiso   1.00
O697   O     0.58824   0.15226   0.77014   0.00000  Uiso   1.00
O698   O     0.47093   0.06944   0.73413   0.00000  Uiso   1.00
O699   O     0.53678   0.25620   0.71361   0.00000  Uiso   1.00
O700   O     0.48784   0.12637   0.65459   0.00000  Uiso   1.00
O701   O     0.46274   0.20391   0.84968   0.00000  Uiso   1.00
O702   O     0.54157   0.17759   0.64606   0.00000  Uiso   1.00
O703   O     0.50785   0.15880   0.84968   0.00000  Uiso   1.00
O704   O     0.51264   0.08019   0.78214   0.00000  Uiso   1.00
O705   O     0.47965   0.26085   0.77014   0.00000  Uiso   1.00
O706   O     0.40745   0.13291   0.73413   0.00000  Uiso   1.00
O707   O     0.60026   0.19272   0.71361   0.00000  Uiso   1.00
C708   C     0.38607   0.15946   0.75995   0.00000  Uiso   1.00
C709   C     0.61409   0.17380   0.74007   0.00000  Uiso   1.00
C710   C     0.48899   0.05591   0.76076   0.00000  Uiso   1.00
C711   C     0.50947   0.27772   0.73932   0.00000  Uiso   1.00
C712   C     0.51859   0.14768   0.62936   0.00000  Uiso   1.00
C713   C     0.48186   0.18451   0.87096   0.00000  Uiso   1.00
C714   C     0.51761   0.08344   0.52311   0.00000  Uiso   1.00
H715   H     0.53015   0.07314   0.58510   0.00000  Uiso   1.00
H716   H     0.49495   0.06459   0.94686   0.00000  Uiso   1.00
H717   H     0.51835   0.05093   0.51090   0.00000  Uiso   1.00
C718   C     0.52442   0.13782   0.58142   0.00000  Uiso   1.00
C719   C     0.47076   0.23602   0.93618   0.00000  Uiso   1.00
C720   C     0.46981   0.24927   0.98090   0.00000  Uiso   1.00
C721   C     0.47923   0.22249   0.50839   0.00000  Uiso   1.00
C722   C     0.48998   0.18176   0.99107   0.00000  Uiso   1.00
C723   C     0.48421   0.16707   0.94765   0.00000  Uiso   1.00
C724   C     0.50453   0.15429   0.51536   0.00000  Uiso   1.00
C725   C     0.50616   0.11173   0.99882   0.00000  Uiso   1.00
C726   C     0.49512   0.09722   0.95887   0.00000  Uiso   1.00
C727   C     0.48440   0.12437   0.93364   0.00000  Uiso   1.00
C728   C     0.51751   0.16713   0.55549   0.00000  Uiso   1.00
C729   C     0.52526   0.09615   0.56484   0.00000  Uiso   1.00
C730   C     0.47744   0.19520   0.91936   0.00000  Uiso   1.00
H731   H     0.52098   0.19910   0.56863   0.00000  Uiso   1.00
H732   H     0.46703   0.25800   0.91417   0.00000  Uiso   1.00
H733   H     0.47498   0.11100   0.90355   0.00000  Uiso   1.00
C734   C     0.65990   0.17674   0.73631   0.00000  Uiso   1.00
H735   H     0.34882   0.19538   0.71127   0.00000  Uiso   1.00
C736   C     0.34081   0.15662   0.76361   0.00000  Uiso   1.00
H737   H     0.65259   0.13767   0.78883   0.00000  Uiso   1.00
C738   C     0.51247   0.32197   0.73316   0.00000  Uiso   1.00
C739   C     0.48662   0.01187   0.76365   0.00000  Uiso   1.00
H740   H     0.46484   0.33215   0.79309   0.00000  Uiso   1.00
N741   N     0.54253   0.00595   0.69458   0.00000  Uiso   1.00
O742   O     0.54954   0.31738   0.65620   0.00000  Uiso   1.00
O743   O     0.56545   0.04201   0.69829   0.00000  Uiso   1.00
O744   O     0.47591   0.23673   0.55268   0.00000  Uiso   1.00
C745   C     0.43409   0.22352   0.57773   0.00000  Uiso   1.00
H746   H     0.42651   0.18891   0.57441   0.00000  Uiso   1.00
H747   H     0.40984   0.23788   0.56678   0.00000  Uiso   1.00
C748   C     0.43102   0.23719   0.62689   0.00000  Uiso   1.00
H749   H     0.43863   0.27161   0.63139   0.00000  Uiso   1.00
H750   H     0.39799   0.22785   0.64682   0.00000  Uiso   1.00
H751   H     0.45393   0.22227   0.63921   0.00000  Uiso   1.00
O752   O     0.46333   0.28969   0.99820   0.00000  Uiso   1.00
C753   C     0.42529   0.30028   0.99064   0.00000  Uiso   1.00
H754   H     0.39893   0.27362   0.99463   0.00000  Uiso   1.00
H755   H     0.43177   0.31118   0.95653   0.00000  Uiso   1.00
C756   C     0.40991   0.00239   0.52448   0.00000  Uiso   1.00
H757   H     0.43480   0.03004   0.52081   0.00000  Uiso   1.00
H758   H     0.38008   0.01111   0.51886   0.00000  Uiso   1.00
H759   H     0.40319   0.32582   0.55902   0.00000  Uiso   1.00
Zn760  Zn    0.86005   0.13994   0.78734   0.00000  Uiso   1.00
Zn761  Zn    0.80046   0.12458   0.71876   0.00000  Uiso   1.00
Zn762  Zn    0.87723   0.19775   0.70657   0.00000  Uiso   1.00
Zn763  Zn    0.79560   0.20439   0.78734   0.00000  Uiso   1.00
O764   O     0.83333   0.16667   0.75000   0.00000  Uiso   1.00
O765   O     0.73738   0.18878   0.78213   0.00000  Uiso   1.00
O766   O     0.92158   0.15226   0.77014   0.00000  Uiso   1.00
O767   O     0.80426   0.06944   0.73413   0.00000  Uiso   1.00
O768   O     0.87012   0.25620   0.71361   0.00000  Uiso   1.00
O769   O     0.82118   0.12637   0.65459   0.00000  Uiso   1.00
O770   O     0.79607   0.20391   0.84968   0.00000  Uiso   1.00
O771   O     0.87491   0.17759   0.64606   0.00000  Uiso   1.00
O772   O     0.84118   0.15880   0.84968   0.00000  Uiso   1.00
O773   O     0.84597   0.08019   0.78214   0.00000  Uiso   1.00
O774   O     0.81298   0.26085   0.77014   0.00000  Uiso   1.00
O775   O     0.74078   0.13291   0.73413   0.00000  Uiso   1.00
O776   O     0.93360   0.19272   0.71361   0.00000  Uiso   1.00
C777   C     0.71941   0.15946   0.75995   0.00000  Uiso   1.00
C778   C     0.94742   0.17380   0.74007   0.00000  Uiso   1.00
C779   C     0.82232   0.05591   0.76076   0.00000  Uiso   1.00
C780   C     0.84280   0.27772   0.73932   0.00000  Uiso   1.00
C781   C     0.85192   0.14768   0.62936   0.00000  Uiso   1.00
C782   C     0.81519   0.18451   0.87096   0.00000  Uiso   1.00
C783   C     0.85094   0.08344   0.52311   0.00000  Uiso   1.00
H784   H     0.86348   0.07314   0.58510   0.00000  Uiso   1.00
H785   H     0.82829   0.06459   0.94686   0.00000  Uiso   1.00
H786   H     0.85169   0.05093   0.51090   0.00000  Uiso   1.00
C787   C     0.85775   0.13782   0.58142   0.00000  Uiso   1.00
C788   C     0.80410   0.23602   0.93618   0.00000  Uiso   1.00
C789   C     0.80314   0.24927   0.98090   0.00000  Uiso   1.00
C790   C     0.81256   0.22249   0.50839   0.00000  Uiso   1.00
C791   C     0.82331   0.18176   0.99107   0.00000  Uiso   1.00
C792   C     0.81754   0.16707   0.94765   0.00000  Uiso   1.00
C793   C     0.83786   0.15429   0.51536   0.00000  Uiso   1.00
C794   C     0.83950   0.11173   0.99882   0.00000  Uiso   1.00
C795   C     0.82845   0.09722   0.95887   0.00000  Uiso   1.00
C796   C     0.81773   0.12437   0.93364   0.00000  Uiso   1.00
C797   C     0.85084   0.16713   0.55549   0.00000  Uiso   1.00
C798   C     0.85860   0.09615   0.56484   0.00000  Uiso   1.00
C799   C     0.81077   0.19520   0.91936   0.00000  Uiso   1.00
H800   H     0.85431   0.19910   0.56863   0.00000  Uiso   1.00
H801   H     0.80036   0.25800   0.91417   0.00000  Uiso   1.00
H802   H     0.80831   0.11100   0.90355   0.00000  Uiso   1.00
C803   C     0.99324   0.17674   0.73631   0.00000  Uiso   1.00
H804   H     0.68216   0.19538   0.71127   0.00000  Uiso   1.00
C805   C     0.67414   0.15662   0.76361   0.00000  Uiso   1.00
H806   H     0.98592   0.13767   0.78883   0.00000  Uiso   1.00
C807   C     0.84581   0.32197   0.73316   0.00000  Uiso   1.00
C808   C     0.81996   0.01187   0.76365   0.00000  Uiso   1.00
H809   H     0.79817   0.33215   0.79309   0.00000  Uiso   1.00
N810   N     0.87586   0.00595   0.69458   0.00000  Uiso   1.00
O811   O     0.88287   0.31738   0.65620   0.00000  Uiso   1.00
O812   O     0.89879   0.04201   0.69829   0.00000  Uiso   1.00
O813   O     0.80924   0.23673   0.55268   0.00000  Uiso   1.00
C814   C     0.76742   0.22352   0.57773   0.00000  Uiso   1.00
H815   H     0.75985   0.18891   0.57441   0.00000  Uiso   1.00
H816   H     0.74317   0.23788   0.56678   0.00000  Uiso   1.00
C817   C     0.76435   0.23719   0.62689   0.00000  Uiso   1.00
H818   H     0.77196   0.27161   0.63139   0.00000  Uiso   1.00
H819   H     0.73133   0.22785   0.64682   0.00000  Uiso   1.00
H820   H     0.78726   0.22227   0.63921   0.00000  Uiso   1.00
O821   O     0.79666   0.28969   0.99820   0.00000  Uiso   1.00
C822   C     0.75862   0.30028   0.99064   0.00000  Uiso   1.00
H823   H     0.73227   0.27362   0.99463   0.00000  Uiso   1.00
H824   H     0.76510   0.31118   0.95653   0.00000  Uiso   1.00
C825   C     0.74325   0.00239   0.52448   0.00000  Uiso   1.00
H826   H     0.76813   0.03004   0.52081   0.00000  Uiso   1.00
H827   H     0.71341   0.01111   0.51886   0.00000  Uiso   1.00
H828   H     0.73652   0.32582   0.55902   0.00000  Uiso   1.00
Zn829  Zn    0.19338   0.47327   0.78734   0.00000  Uiso   1.00
Zn830  Zn    0.13379   0.45791   0.71876   0.00000  Uiso   1.00
Zn831  Zn    0.21056   0.53109   0.70657   0.00000  Uiso   1.00
Zn832  Zn    0.12893   0.53773   0.78734   0.00000  Uiso   1.00
O833   O     0.16667   0.50000   0.75000   0.00000  Uiso   1.00
O834   O     0.07071   0.52211   0.78213   0.00000  Uiso   1.00
O835   O     0.25491   0.48559   0.77014   0.00000  Uiso   1.00
O836   O     0.13760   0.40277   0.73413   0.00000  Uiso   1.00
O837   O     0.20345   0.58953   0.71361   0.00000  Uiso   1.00
O838   O     0.15451   0.45970   0.65459   0.00000  Uiso   1.00
O839   O     0.12940   0.53724   0.84968   0.00000  Uiso   1.00
O840   O     0.20824   0.51092   0.64606   0.00000  Uiso   1.00
O841   O     0.17451   0.49213   0.84968   0.00000  Uiso   1.00
O842   O     0.17930   0.41352   0.78214   0.00000  Uiso   1.00
O843   O     0.14632   0.59418   0.77014   0.00000  Uiso   1.00
O844   O     0.07412   0.46625   0.73413   0.00000  Uiso   1.00
O845   O     0.26693   0.52605   0.71361   0.00000  Uiso   1.00
C846   C     0.05274   0.49280   0.75995   0.00000  Uiso   1.00
C847   C     0.28076   0.50713   0.74007   0.00000  Uiso   1.00
C848   C     0.15566   0.38925   0.76076   0.00000  Uiso   1.00
C849   C     0.17613   0.61106   0.73932   0.00000  Uiso   1.00
C850   C     0.18526   0.48101   0.62936   0.00000  Uiso   1.00
C851   C     0.14852   0.51784   0.87096   0.00000  Uiso   1.00
C852   C     0.18428   0.41677   0.52311   0.00000  Uiso   1.00
H853   H     0.19682   0.40648   0.58510   0.00000  Uiso   1.00
H854   H     0.16162   0.39793   0.94686   0.00000  Uiso   1.00
H855   H     0.18502   0.38427   0.51090   0.00000  Uiso   1.00
C856   C     0.19109   0.47116   0.58142   0.00000  Uiso   1.00
C857   C     0.13743   0.56935   0.93618   0.00000  Uiso   1.00
C858   C     0.13647   0.58260   0.98090   0.00000  Uiso   1.00
C859   C     0.14589   0.55582   0.50839   0.00000  Uiso   1.00
C860   C     0.15664   0.51509   0.99107   0.00000  Uiso   1.00
C861   C     0.15087   0.50040   0.94765   0.00000  Uiso   1.00
C862   C     0.17119   0.48762   0.51536   0.00000  Uiso   1.00
C863   C     0.17283   0.44506   0.99882   0.00000  Uiso   1.00
C864   C     0.16179   0.43055   0.95887   0.00000  Uiso   1.00
C865   C     0.15106   0.45770   0.93364   0.00000  Uiso   1.00
C866   C     0.18418   0.50046   0.55549   0.00000  Uiso   1.00
C867   C     0.19193   0.42948   0.56484   0.00000  Uiso   1.00
C868   C     0.14411   0.52853   0.91936   0.00000  Uiso   1.00
H869   H     0.18765   0.53243   0.56863   0.00000  Uiso   1.00
H870   H     0.13370   0.59133   0.91417   0.00000  Uiso   1.00
H871   H     0.14164   0.44433   0.90355   0.00000  Uiso   1.00
C872   C     0.32657   0.51007   0.73631   0.00000  Uiso   1.00
H873   H     0.01549   0.52872   0.71127   0.00000  Uiso   1.00
C874   C     0.00748   0.48995   0.76361   0.00000  Uiso   1.00
H875   H     0.31926   0.47101   0.78883   0.00000  Uiso   1.00
C876   C     0.17914   0.65530   0.73316   0.00000  Uiso   1.00
C877   C     0.15329   0.34520   0.76365   0.00000  Uiso   1.00
H878   H     0.13150   0.66548   0.79309   0.00000  Uiso   1.00
N879   N     0.20920   0.33928   0.69458   0.00000  Uiso   1.00
O880   O     0.21621   0.65071   0.65620   0.00000  Uiso   1.00
O881   O     0.23212   0.37534   0.69829   0.00000  Uiso   1.00
O882   O     0.14257   0.57006   0.55268   0.00000  Uiso   1.00
C883   C     0.10076   0.55685   0.57773   0.00000  Uiso   1.00
H884   H     0.09318   0.52225   0.57441   0.00000  Uiso   1.00
H885   H     0.07651   0.57122   0.56678   0.00000  Uiso   1.00
C886   C     0.09769   0.57053   0.62689   0.00000  Uiso   1.00
H887   H     0.10530   0.60494   0.63139   0.00000  Uiso   1.00
H888   H     0.06466   0.56119   0.64682   0.00000  Uiso   1.00
H889   H     0.12060   0.55560   0.63921   0.00000  Uiso   1.00
O890   O     0.12999   0.62302   0.99820   0.00000  Uiso   1.00
C891   C     0.09195   0.63361   0.99064   0.00000  Uiso   1.00
H892   H     0.06560   0.60695   0.99463   0.00000  Uiso   1.00
H893   H     0.09843   0.64452   0.95653   0.00000  Uiso   1.00
C894   C     0.07658   0.33572   0.52448   0.00000  Uiso   1.00
H895   H     0.10147   0.36338   0.52081   0.00000  Uiso   1.00
H896   H     0.04675   0.34444   0.51886   0.00000  Uiso   1.00
H897   H     0.06985   0.65916   0.55902   0.00000  Uiso   1.00
Zn898  Zn    0.52672   0.47327   0.78734   0.00000  Uiso   1.00
Zn899  Zn    0.46713   0.45791   0.71876   0.00000  Uiso   1.00
Zn900  Zn    0.54389   0.53109   0.70657   0.00000  Uiso   1.00
Zn901  Zn    0.46226   0.53773   0.78734   0.00000  Uiso   1.00
O902   O     0.50000   0.50000   0.75000   0.00000  Uiso   1.00
O903   O     0.40405   0.52211   0.78213   0.00000  Uiso   1.00
O904   O     0.58824   0.48559   0.77014   0.00000  Uiso   1.00
O905   O     0.47093   0.40277   0.73413   0.00000  Uiso   1.00
O906   O     0.53678   0.58953   0.71361   0.00000  Uiso   1.00
O907   O     0.48784   0.45970   0.65459   0.00000  Uiso   1.00
O908   O     0.46274   0.53724   0.84968   0.00000  Uiso   1.00
O909   O     0.54157   0.51092   0.64606   0.00000  Uiso   1.00
O910   O     0.50785   0.49213   0.84968   0.00000  Uiso   1.00
O911   O     0.51264   0.41352   0.78214   0.00000  Uiso   1.00
O912   O     0.47965   0.59418   0.77014   0.00000  Uiso   1.00
O913   O     0.40745   0.46625   0.73413   0.00000  Uiso   1.00
O914   O     0.60026   0.52605   0.71361   0.00000  Uiso   1.00
C915   C     0.38607   0.49280   0.75995   0.00000  Uiso   1.00
C916   C     0.61409   0.50713   0.74007   0.00000  Uiso   1.00
C917   C     0.48899   0.38925   0.76076   0.00000  Uiso   1.00
C918   C     0.50947   0.61106   0.73932   0.00000  Uiso   1.00
C919   C     0.51859   0.48101   0.62936   0.00000  Uiso   1.00
C920   C     0.48186   0.51784   0.87096   0.00000  Uiso   1.00
C921   C     0.51761   0.41677   0.52311   0.00000  Uiso   1.00
H922   H     0.53015   0.40648   0.58510   0.00000  Uiso   1.00
H923   H     0.49495   0.39793   0.94686   0.00000  Uiso   1.00
H924   H     0.51835   0.38427   0.51090   0.00000  Uiso   1.00
C925   C     0.52442   0.47116   0.58142   0.00000  Uiso   1.00
C926   C     0.47076   0.56935   0.93618   0.00000  Uiso   1.00
C927   C     0.46981   0.58260   0.98090   0.00000  Uiso   1.00
C928   C     0.47923   0.55582   0.50839   0.00000  Uiso   1.00
C929   C     0.48998   0.51509   0.99107   0.00000  Uiso   1.00
C930   C     0.48421   0.50040   0.94765   0.00000  Uiso   1.00
C931   C     0.50453   0.48762   0.51536   0.00000  Uiso   1.00
C932   C     0.50616   0.44506   0.99882   0.00000  Uiso   1.00
C933   C     0.49512   0.43055   0.95887   0.00000  Uiso   1.00
C934   C     0.48440   0.45770   0.93364   0.00000  Uiso   1.00
C935   C     0.51751   0.50046   0.55549   0.00000  Uiso   1.00
C936   C     0.52526   0.42948   0.56484   0.00000  Uiso   1.00
C937   C     0.47744   0.52853   0.91936   0.00000  Uiso   1.00
H938   H     0.52098   0.53243   0.56863   0.00000  Uiso   1.00
H939   H     0.46703   0.59133   0.91417   0.00000  Uiso   1.00
H940   H     0.47498   0.44433   0.90355   0.00000  Uiso   1.00
C941   C     0.65990   0.51007   0.73631   0.00000  Uiso   1.00
H942   H     0.34882   0.52872   0.71127   0.00000  Uiso   1.00
C943   C     0.34081   0.48995   0.76361   0.00000  Uiso   1.00
H944   H     0.65259   0.47101   0.78883   0.00000  Uiso   1.00
C945   C     0.51247   0.65530   0.73316   0.00000  Uiso   1.00
C946   C     0.48662   0.34520   0.76365   0.00000  Uiso   1.00
H947   H     0.46484   0.66548   0.79309   0.00000  Uiso   1.00
N948   N     0.54253   0.33928   0.69458   0.00000  Uiso   1.00
O949   O     0.54954   0.65071   0.65620   0.00000  Uiso   1.00
O950   O     0.56545   0.37534   0.69829   0.00000  Uiso   1.00
O951   O     0.47591   0.57006   0.55268   0.00000  Uiso   1.00
C952   C     0.43409   0.55685   0.57773   0.00000  Uiso   1.00
H953   H     0.42651   0.52225   0.57441   0.00000  Uiso   1.00
H954   H     0.40984   0.57122   0.56678   0.00000  Uiso   1.00
C955   C     0.43102   0.57053   0.62689   0.00000  Uiso   1.00
H956   H     0.43863   0.60494   0.63139   0.00000  Uiso   1.00
H957   H     0.39799   0.56119   0.64682   0.00000  Uiso   1.00
H958   H     0.45393   0.55560   0.63921   0.00000  Uiso   1.00
O959   O     0.46333   0.62302   0.99820   0.00000  Uiso   1.00
C960   C     0.42529   0.63361   0.99064   0.00000  Uiso   1.00
H961   H     0.39893   0.60695   0.99463   0.00000  Uiso   1.00
H962   H     0.43177   0.64452   0.95653   0.00000  Uiso   1.00
C963   C     0.40991   0.33572   0.52448   0.00000  Uiso   1.00
H964   H     0.43480   0.36338   0.52081   0.00000  Uiso   1.00
H965   H     0.38008   0.34444   0.51886   0.00000  Uiso   1.00
H966   H     0.40319   0.65916   0.55902   0.00000  Uiso   1.00
Zn967  Zn    0.86005   0.47327   0.78734   0.00000  Uiso   1.00
Zn968  Zn    0.80046   0.45791   0.71876   0.00000  Uiso   1.00
Zn969  Zn    0.87723   0.53109   0.70657   0.00000  Uiso   1.00
Zn970  Zn    0.79560   0.53773   0.78734   0.00000  Uiso   1.00
O971   O     0.83333   0.50000   0.75000   0.00000  Uiso   1.00
O972   O     0.73738   0.52211   0.78213   0.00000  Uiso   1.00
O973   O     0.92158   0.48559   0.77014   0.00000  Uiso   1.00
O974   O     0.80426   0.40277   0.73413   0.00000  Uiso   1.00
O975   O     0.87012   0.58953   0.71361   0.00000  Uiso   1.00
O976   O     0.82118   0.45970   0.65459   0.00000  Uiso   1.00
O977   O     0.79607   0.53724   0.84968   0.00000  Uiso   1.00
O978   O     0.87491   0.51092   0.64606   0.00000  Uiso   1.00
O979   O     0.84118   0.49213   0.84968   0.00000  Uiso   1.00
O980   O     0.84597   0.41352   0.78214   0.00000  Uiso   1.00
O981   O     0.81298   0.59418   0.77014   0.00000  Uiso   1.00
O982   O     0.74078   0.46625   0.73413   0.00000  Uiso   1.00
O983   O     0.93360   0.52605   0.71361   0.00000  Uiso   1.00
C984   C     0.71941   0.49280   0.75995   0.00000  Uiso   1.00
C985   C     0.94742   0.50713   0.74007   0.00000  Uiso   1.00
C986   C     0.82232   0.38925   0.76076   0.00000  Uiso   1.00
C987   C     0.84280   0.61106   0.73932   0.00000  Uiso   1.00
C988   C     0.85192   0.48101   0.62936   0.00000  Uiso   1.00
C989   C     0.81519   0.51784   0.87096   0.00000  Uiso   1.00
C990   C     0.85094   0.41677   0.52311   0.00000  Uiso   1.00
H991   H     0.86348   0.40648   0.58510   0.00000  Uiso   1.00
H992   H     0.82829   0.39793   0.94686   0.00000  Uiso   1.00
H993   H     0.85169   0.38427   0.51090   0.00000  Uiso   1.00
C994   C     0.85775   0.47116   0.58142   0.00000  Uiso   1.00
C995   C     0.80410   0.56935   0.93618   0.00000  Uiso   1.00
C996   C     0.80314   0.58260   0.98090   0.00000  Uiso   1.00
C997   C     0.81256   0.55582   0.50839   0.00000  Uiso   1.00
C998   C     0.82331   0.51509   0.99107   0.00000  Uiso   1.00
C999   C     0.81754   0.50040   0.94765   0.00000  Uiso   1.00
C1000  C     0.83786   0.48762   0.51536   0.00000  Uiso   1.00
C1001  C     0.83950   0.44506   0.99882   0.00000  Uiso   1.00
C1002  C     0.82845   0.43055   0.95887   0.00000  Uiso   1.00
C1003  C     0.81773   0.45770   0.93364   0.00000  Uiso   1.00
C1004  C     0.85084   0.50046   0.55549   0.00000  Uiso   1.00
C1005  C     0.85860   0.42948   0.56484   0.00000  Uiso   1.00
C1006  C     0.81077   0.52853   0.91936   0.00000  Uiso   1.00
H1007  H     0.85431   0.53243   0.56863   0.00000  Uiso   1.00
H1008  H     0.80036   0.59133   0.91417   0.00000  Uiso   1.00
H1009  H     0.80831   0.44433   0.90355   0.00000  Uiso   1.00
C1010  C     0.99324   0.51007   0.73631   0.00000  Uiso   1.00
H1011  H     0.68216   0.52872   0.71127   0.00000  Uiso   1.00
C1012  C     0.67414   0.48995   0.76361   0.00000  Uiso   1.00
H1013  H     0.98592   0.47101   0.78883   0.00000  Uiso   1.00
C1014  C     0.84581   0.65530   0.73316   0.00000  Uiso   1.00
C1015  C     0.81996   0.34520   0.76365   0.00000  Uiso   1.00
H1016  H     0.79817   0.66548   0.79309   0.00000  Uiso   1.00
N1017  N     0.87586   0.33928   0.69458   0.00000  Uiso   1.00
O1018  O     0.88287   0.65071   0.65620   0.00000  Uiso   1.00
O1019  O     0.89879   0.37534   0.69829   0.00000  Uiso   1.00
O1020  O     0.80924   0.57006   0.55268   0.00000  Uiso   1.00
C1021  C     0.76742   0.55685   0.57773   0.00000  Uiso   1.00
H1022  H     0.75985   0.52225   0.57441   0.00000  Uiso   1.00
H1023  H     0.74317   0.57122   0.56678   0.00000  Uiso   1.00
C1024  C     0.76435   0.57053   0.62689   0.00000  Uiso   1.00
H1025  H     0.77196   0.60494   0.63139   0.00000  Uiso   1.00
H1026  H     0.73133   0.56119   0.64682   0.00000  Uiso   1.00
H1027  H     0.78726   0.55560   0.63921   0.00000  Uiso   1.00
O1028  O     0.79666   0.62302   0.99820   0.00000  Uiso   1.00
C1029  C     0.75862   0.63361   0.99064   0.00000  Uiso   1.00
H1030  H     0.73227   0.60695   0.99463   0.00000  Uiso   1.00
H1031  H     0.76510   0.64452   0.95653   0.00000  Uiso   1.00
C1032  C     0.74325   0.33572   0.52448   0.00000  Uiso   1.00
H1033  H     0.76813   0.36338   0.52081   0.00000  Uiso   1.00
H1034  H     0.71341   0.34444   0.51886   0.00000  Uiso   1.00
H1035  H     0.73652   0.65916   0.55902   0.00000  Uiso   1.00
Zn1036 Zn    0.19338   0.80661   0.78734   0.00000  Uiso   1.00
Zn1037 Zn    0.13379   0.79124   0.71876   0.00000  Uiso   1.00
Zn1038 Zn    0.21056   0.86442   0.70657   0.00000  Uiso   1.00
Zn1039 Zn    0.12893   0.87106   0.78734   0.00000  Uiso   1.00
O1040  O     0.16667   0.83333   0.75000   0.00000  Uiso   1.00
O1041  O     0.07071   0.85544   0.78213   0.00000  Uiso   1.00
O1042  O     0.25491   0.81892   0.77014   0.00000  Uiso   1.00
O1043  O     0.13760   0.73610   0.73413   0.00000  Uiso   1.00
O1044  O     0.20345   0.92286   0.71361   0.00000  Uiso   1.00
O1045  O     0.15451   0.79304   0.65459   0.00000  Uiso   1.00
O1046  O     0.12940   0.87058   0.84968   0.00000  Uiso   1.00
O1047  O     0.20824   0.84425   0.64606   0.00000  Uiso   1.00
O1048  O     0.17451   0.82546   0.84968   0.00000  Uiso   1.00
O1049  O     0.17930   0.74686   0.78214   0.00000  Uiso   1.00
O1050  O     0.14632   0.92751   0.77014   0.00000  Uiso   1.00
O1051  O     0.07412   0.79958   0.73413   0.00000  Uiso   1.00
O1052  O     0.26693   0.85939   0.71361   0.00000  Uiso   1.00
C1053  C     0.05274   0.82613   0.75995   0.00000  Uiso   1.00
C1054  C     0.28076   0.84047   0.74007   0.00000  Uiso   1.00
C1055  C     0.15566   0.72258   0.76076   0.00000  Uiso   1.00
C1056  C     0.17613   0.94439   0.73932   0.00000  Uiso   1.00
C1057  C     0.18526   0.81435   0.62936   0.00000  Uiso   1.00
C1058  C     0.14852   0.85117   0.87096   0.00000  Uiso   1.00
C1059  C     0.18428   0.75010   0.52311   0.00000  Uiso   1.00
H1060  H     0.19682   0.73981   0.58510   0.00000  Uiso   1.00
H1061  H     0.16162   0.73126   0.94686   0.00000  Uiso   1.00
H1062  H     0.18502   0.71760   0.51090   0.00000  Uiso   1.00
C1063  C     0.19109   0.80449   0.58142   0.00000  Uiso   1.00
C1064  C     0.13743   0.90269   0.93618   0.00000  Uiso   1.00
C1065  C     0.13647   0.91593   0.98090   0.00000  Uiso   1.00
C1066  C     0.14589   0.88915   0.50839   0.00000  Uiso   1.00
C1067  C     0.15664   0.84842   0.99107   0.00000  Uiso   1.00
C1068  C     0.15087   0.83374   0.94765   0.00000  Uiso   1.00
C1069  C     0.17119   0.82096   0.51536   0.00000  Uiso   1.00
C1070  C     0.17283   0.77840   0.99882   0.00000  Uiso   1.00
C1071  C     0.16179   0.76389   0.95887   0.00000  Uiso   1.00
C1072  C     0.15106   0.79103   0.93364   0.00000  Uiso   1.00
C1073  C     0.18418   0.83379   0.55549   0.00000  Uiso   1.00
C1074  C     0.19193   0.76282   0.56484   0.00000  Uiso   1.00
C1075  C     0.14411   0.86187   0.91936   0.00000  Uiso   1.00
H1076  H     0.18765   0.86577   0.56863   0.00000  Uiso   1.00
H1077  H     0.13370   0.92467   0.91417   0.00000  Uiso   1.00
H1078  H     0.14164   0.77766   0.90355   0.00000  Uiso   1.00
C1079  C     0.32657   0.84340   0.73631   0.00000  Uiso   1.00
H1080  H     0.01549   0.86205   0.71127   0.00000  Uiso   1.00
C1081  C     0.00748   0.82329   0.76361   0.00000  Uiso   1.00
H1082  H     0.31926   0.80434   0.78883   0.00000  Uiso   1.00
C1083  C     0.17914   0.98864   0.73316   0.00000  Uiso   1.00
C1084  C     0.15329   0.67853   0.76365   0.00000  Uiso   1.00
H1085  H     0.13150   0.99882   0.79309   0.00000  Uiso   1.00
N1086  N     0.20920   0.67262   0.69458   0.00000  Uiso   1.00
O1087  O     0.21621   0.98404   0.65620   0.00000  Uiso   1.00
O1088  O     0.23212   0.70868   0.69829   0.00000  Uiso   1.00
O1089  O     0.14257   0.90340   0.55268   0.00000  Uiso   1.00
C1090  C     0.10076   0.89019   0.57773   0.00000  Uiso   1.00
H1091  H     0.09318   0.85558   0.57441   0.00000  Uiso   1.00
H1092  H     0.07651   0.90455   0.56678   0.00000  Uiso   1.00
C1093  C     0.09769   0.90386   0.62689   0.00000  Uiso   1.00
H1094  H     0.10530   0.93828   0.63139   0.00000  Uiso   1.00
H1095  H     0.06466   0.89452   0.64682   0.00000  Uiso   1.00
H1096  H     0.12060   0.88894   0.63921   0.00000  Uiso   1.00
O1097  O     0.12999   0.95636   0.99820   0.00000  Uiso   1.00
C1098  C     0.09195   0.96695   0.99064   0.00000  Uiso   1.00
H1099  H     0.06560   0.94028   0.99463   0.00000  Uiso   1.00
H1100  H     0.09843   0.97785   0.95653   0.00000  Uiso   1.00
C1101  C     0.07658   0.66906   0.52448   0.00000  Uiso   1.00
H1102  H     0.10147   0.69671   0.52081   0.00000  Uiso   1.00
H1103  H     0.04675   0.67778   0.51886   0.00000  Uiso   1.00
H1104  H     0.06985   0.99249   0.55902   0.00000  Uiso   1.00
Zn1105 Zn    0.52672   0.80661   0.78734   0.00000  Uiso   1.00
Zn1106 Zn    0.46713   0.79124   0.71876   0.00000  Uiso   1.00
Zn1107 Zn    0.54389   0.86442   0.70657   0.00000  Uiso   1.00
Zn1108 Zn    0.46226   0.87106   0.78734   0.00000  Uiso   1.00
O1109  O     0.50000   0.83333   0.75000   0.00000  Uiso   1.00
O1110  O     0.40405   0.85544   0.78213   0.00000  Uiso   1.00
O1111  O     0.58824   0.81892   0.77014   0.00000  Uiso   1.00
O1112  O     0.47093   0.73610   0.73413   0.00000  Uiso   1.00
O1113  O     0.53678   0.92286   0.71361   0.00000  Uiso   1.00
O1114  O     0.48784   0.79304   0.65459   0.00000  Uiso   1.00
O1115  O     0.46274   0.87058   0.84968   0.00000  Uiso   1.00
O1116  O     0.54157   0.84425   0.64606   0.00000  Uiso   1.00
O1117  O     0.50785   0.82546   0.84968   0.00000  Uiso   1.00
O1118  O     0.51264   0.74686   0.78214   0.00000  Uiso   1.00
O1119  O     0.47965   0.92751   0.77014   0.00000  Uiso   1.00
O1120  O     0.40745   0.79958   0.73413   0.00000  Uiso   1.00
O1121  O     0.60026   0.85939   0.71361   0.00000  Uiso   1.00
C1122  C     0.38607   0.82613   0.75995   0.00000  Uiso   1.00
C1123  C     0.61409   0.84047   0.74007   0.00000  Uiso   1.00
C1124  C     0.48899   0.72258   0.76076   0.00000  Uiso   1.00
C1125  C     0.50947   0.94439   0.73932   0.00000  Uiso   1.00
C1126  C     0.51859   0.81435   0.62936   0.00000  Uiso   1.00
C1127  C     0.48186   0.85117   0.87096   0.00000  Uiso   1.00
C1128  C     0.51761   0.75010   0.52311   0.00000  Uiso   1.00
H1129  H     0.53015   0.73981   0.58510   0.00000  Uiso   1.00
H1130  H     0.49495   0.73126   0.94686   0.00000  Uiso   1.00
H1131  H     0.51835   0.71760   0.51090   0.00000  Uiso   1.00
C1132  C     0.52442   0.80449   0.58142   0.00000  Uiso   1.00
C1133  C     0.47076   0.90269   0.93618   0.00000  Uiso   1.00
C1134  C     0.46981   0.91593   0.98090   0.00000  Uiso   1.00
C1135  C     0.47923   0.88915   0.50839   0.00000  Uiso   1.00
C1136  C     0.48998   0.84842   0.99107   0.00000  Uiso   1.00
C1137  C     0.48421   0.83374   0.94765   0.00000  Uiso   1.00
C1138  C     0.50453   0.82096   0.51536   0.00000  Uiso   1.00
C1139  C     0.50616   0.77840   0.99882   0.00000  Uiso   1.00
C1140  C     0.49512   0.76389   0.95887   0.00000  Uiso   1.00
C1141  C     0.48440   0.79103   0.93364   0.00000  Uiso   1.00
C1142  C     0.51751   0.83379   0.55549   0.00000  Uiso   1.00
C1143  C     0.52526   0.76282   0.56484   0.00000  Uiso   1.00
C1144  C     0.47744   0.86187   0.91936   0.00000  Uiso   1.00
H1145  H     0.52098   0.86577   0.56863   0.00000  Uiso   1.00
H1146  H     0.46703   0.92467   0.91417   0.00000  Uiso   1.00
H1147  H     0.47498   0.77766   0.90355   0.00000  Uiso   1.00
C1148  C     0.65990   0.84340   0.73631   0.00000  Uiso   1.00
H1149  H     0.34882   0.86205   0.71127   0.00000  Uiso   1.00
C1150  C     0.34081   0.82329   0.76361   0.00000  Uiso   1.00
H1151  H     0.65259   0.80434   0.78883   0.00000  Uiso   1.00
C1152  C     0.51247   0.98864   0.73316   0.00000  Uiso   1.00
C1153  C     0.48662   0.67853   0.76365   0.00000  Uiso   1.00
H1154  H     0.46484   0.99882   0.79309   0.00000  Uiso   1.00
N1155  N     0.54253   0.67262   0.69458   0.00000  Uiso   1.00
O1156  O     0.54954   0.98404   0.65620   0.00000  Uiso   1.00
O1157  O     0.56545   0.70868   0.69829   0.00000  Uiso   1.00
O1158  O     0.47591   0.90340   0.55268   0.00000  Uiso   1.00
C1159  C     0.43409   0.89019   0.57773   0.00000  Uiso   1.00
H1160  H     0.42651   0.85558   0.57441   0.00000  Uiso   1.00
H1161  H     0.40984   0.90455   0.56678   0.00000  Uiso   1.00
C1162  C     0.43102   0.90386   0.62689   0.00000  Uiso   1.00
H1163  H     0.43863   0.93828   0.63139   0.00000  Uiso   1.00
H1164  H     0.39799   0.89452   0.64682   0.00000  Uiso   1.00
H1165  H     0.45393   0.88894   0.63921   0.00000  Uiso   1.00
O1166  O     0.46333   0.95636   0.99820   0.00000  Uiso   1.00
C1167  C     0.42529   0.96695   0.99064   0.00000  Uiso   1.00
H1168  H     0.39893   0.94028   0.99463   0.00000  Uiso   1.00
H1169  H     0.43177   0.97785   0.95653   0.00000  Uiso   1.00
C1170  C     0.40991   0.66906   0.52448   0.00000  Uiso   1.00
H1171  H     0.43480   0.69671   0.52081   0.00000  Uiso   1.00
H1172  H     0.38008   0.67778   0.51886   0.00000  Uiso   1.00
H1173  H     0.40319   0.99249   0.55902   0.00000  Uiso   1.00
Zn1174 Zn    0.86005   0.80661   0.78734   0.00000  Uiso   1.00
Zn1175 Zn    0.80046   0.79124   0.71876   0.00000  Uiso   1.00
Zn1176 Zn    0.87723   0.86442   0.70657   0.00000  Uiso   1.00
Zn1177 Zn    0.79560   0.87106   0.78734   0.00000  Uiso   1.00
O1178  O     0.83333   0.83333   0.75000   0.00000  Uiso   1.00
O1179  O     0.73738   0.85544   0.78213   0.00000  Uiso   1.00
O1180  O     0.92158   0.81892   0.77014   0.00000  Uiso   1.00
O1181  O     0.80426   0.73610   0.73413   0.00000  Uiso   1.00
O1182  O     0.87012   0.92286   0.71361   0.00000  Uiso   1.00
O1183  O     0.82118   0.79304   0.65459   0.00000  Uiso   1.00
O1184  O     0.79607   0.87058   0.84968   0.00000  Uiso   1.00
O1185  O     0.87491   0.84425   0.64606   0.00000  Uiso   1.00
O1186  O     0.84118   0.82546   0.84968   0.00000  Uiso   1.00
O1187  O     0.84597   0.74686   0.78214   0.00000  Uiso   1.00
O1188  O     0.81298   0.92751   0.77014   0.00000  Uiso   1.00
O1189  O     0.74078   0.79958   0.73413   0.00000  Uiso   1.00
O1190  O     0.93360   0.85939   0.71361   0.00000  Uiso   1.00
C1191  C     0.71941   0.82613   0.75995   0.00000  Uiso   1.00
C1192  C     0.94742   0.84047   0.74007   0.00000  Uiso   1.00
C1193  C     0.82232   0.72258   0.76076   0.00000  Uiso   1.00
C1194  C     0.84280   0.94439   0.73932   0.00000  Uiso   1.00
C1195  C     0.85192   0.81435   0.62936   0.00000  Uiso   1.00
C1196  C     0.81519   0.85117   0.87096   0.00000  Uiso   1.00
C1197  C     0.85094   0.75010   0.52311   0.00000  Uiso   1.00
H1198  H     0.86348   0.73981   0.58510   0.00000  Uiso   1.00
H1199  H     0.82829   0.73126   0.94686   0.00000  Uiso   1.00
H1200  H     0.85169   0.71760   0.51090   0.00000  Uiso   1.00
C1201  C     0.85775   0.80449   0.58142   0.00000  Uiso   1.00
C1202  C     0.80410   0.90269   0.93618   0.00000  Uiso   1.00
C1203  C     0.80314   0.91593   0.98090   0.00000  Uiso   1.00
C1204  C     0.81256   0.88915   0.50839   0.00000  Uiso   1.00
C1205  C     0.82331   0.84842   0.99107   0.00000  Uiso   1.00
C1206  C     0.81754   0.83374   0.94765   0.00000  Uiso   1.00
C1207  C     0.83786   0.82096   0.51536   0.00000  Uiso   1.00
C1208  C     0.83950   0.77840   0.99882   0.00000  Uiso   1.00
C1209  C     0.82845   0.76389   0.95887   0.00000  Uiso   1.00
C1210  C     0.81773   0.79103   0.93364   0.00000  Uiso   1.00
C1211  C     0.85084   0.83379   0.55549   0.00000  Uiso   1.00
C1212  C     0.85860   0.76282   0.56484   0.00000  Uiso   1.00
C1213  C     0.81077   0.86187   0.91936   0.00000  Uiso   1.00
H1214  H     0.85431   0.86577   0.56863   0.00000  Uiso   1.00
H1215  H     0.80036   0.92467   0.91417   0.00000  Uiso   1.00
H1216  H     0.80831   0.77766   0.90355   0.00000  Uiso   1.00
C1217  C     0.99324   0.84340   0.73631   0.00000  Uiso   1.00
H1218  H     0.68216   0.86205   0.71127   0.00000  Uiso   1.00
C1219  C     0.67414   0.82329   0.76361   0.00000  Uiso   1.00
H1220  H     0.98592   0.80434   0.78883   0.00000  Uiso   1.00
C1221  C     0.84581   0.98864   0.73316   0.00000  Uiso   1.00
C1222  C     0.81996   0.67853   0.76365   0.00000  Uiso   1.00
H1223  H     0.79817   0.99882   0.79309   0.00000  Uiso   1.00
N1224  N     0.87586   0.67262   0.69458   0.00000  Uiso   1.00
O1225  O     0.88287   0.98404   0.65620   0.00000  Uiso   1.00
O1226  O     0.89879   0.70868   0.69829   0.00000  Uiso   1.00
O1227  O     0.80924   0.90340   0.55268   0.00000  Uiso   1.00
C1228  C     0.76742   0.89019   0.57773   0.00000  Uiso   1.00
H1229  H     0.75985   0.85558   0.57441   0.00000  Uiso   1.00
H1230  H     0.74317   0.90455   0.56678   0.00000  Uiso   1.00
C1231  C     0.76435   0.90386   0.62689   0.00000  Uiso   1.00
H1232  H     0.77196   0.93828   0.63139   0.00000  Uiso   1.00
H1233  H     0.73133   0.89452   0.64682   0.00000  Uiso   1.00
H1234  H     0.78726   0.88894   0.63921   0.00000  Uiso   1.00
O1235  O     0.79666   0.95636   0.99820   0.00000  Uiso   1.00
C1236  C     0.75862   0.96695   0.99064   0.00000  Uiso   1.00
H1237  H     0.73227   0.94028   0.99463   0.00000  Uiso   1.00
H1238  H     0.76510   0.97785   0.95653   0.00000  Uiso   1.00
C1239  C     0.74325   0.66906   0.52448   0.00000  Uiso   1.00
H1240  H     0.76813   0.69671   0.52081   0.00000  Uiso   1.00
H1241  H     0.71341   0.67778   0.51886   0.00000  Uiso   1.00
H1242  H     0.73652   0.99249   0.55902   0.00000  Uiso   1.00
loop_
_geom_bond_atom_site_label_1
_geom_bond_atom_site_label_2
_geom_bond_distance
_geom_bond_site_symmetry_2
_ccdc_geom_bond_type
Zn1    O5      1.956   .     S
Zn1    O13     1.930   .     S
Zn1    O14     1.927   .     S
Zn1    O7      1.925   .     S
Zn2    O16     1.929   .     S
Zn2    O5      1.934   .     S
Zn2    O8      1.938   .     S
Zn2    O10     1.934   .     S
Zn3    O9      1.933   .     S
Zn3    O12     1.932   .     S
Zn3    O17     1.933   .     S
Zn3    O5      1.939   .     S
Zn4    O11     1.939   .     S
Zn4    O15     1.932   .     S
Zn4    O6      1.927   .     S
Zn4    O5      1.939   .     S
O6     C18     1.270   .     A
O7     C19     1.279   .     A
O8     C20     1.277   .     A
O9     C21     1.271   .     A
O10    C22     1.267   .     A
O11    C23     1.282   .     A
O12    C22     1.279   .     A
O13    C23     1.286   .     A
O14    C20     1.270   .     A
O15    C21     1.279   .     A
O16    C18     1.269   .     A
O17    C19     1.282   .     A
C18    C46     1.436   .     S
C19    C44     1.453   .     S
C20    C49     1.436   .     S
C21    C48     1.460   .     S
C22    C28     1.454   .     S
C23    C40     1.476   .     S
C24    H27     1.084   .     S
C24    C39     1.385   .     A
C24    C656    1.400   1_554 S
H25    C39     1.084   .     S
H26    C36     1.085   .     S
C28    C38     1.392   .     A
C28    C39     1.397   .     A
C29    H42     1.083   .     S
C29    C30     1.398   .     A
C29    C40     1.399   .     A
C30    O62     1.389   .     S
C30    C652    1.402   .     S
C31    O54     1.381   .     S
C31    C651    1.402   1_554 S
C31    C653    1.432   1_554 S
C32    C33     1.425   .     A
C32    C652    1.432   .     S
C32    C655    1.433   .     S
C33    C40     1.414   .     A
C33    C37     1.409   .     A
C34    C38     1.413   .     A
C34    C653    1.433   1_554 S
C34    C656    1.426   1_554 S
C35    C36     1.389   .     A
C35    C655    1.426   .     S
C35    C645    1.400   .     S
C36    C37     1.380   .     A
C37    H43     1.080   .     S
C38    H41     1.074   .     S
C44    H114    1.086   .     S
C44    C115    1.334   .     S
H45    C182    1.086   1_455 S
C46    C182    1.334   1_455 S
C46    H185    1.086   1_455 S
H47    C115    1.086   .     S
C48    C256    1.340   .     S
C48    N258    1.446   .     S
C49    C462    1.340   1_545 S
C49    H464    1.086   1_545 S
H50    C256    1.086   .     S
N51    O53     1.302   .     A
N51    C462    1.446   1_545 S
N51    O466    1.301   1_545 S
O52    N258    1.301   .     S
O54    C55     1.412   .     S
C55    H56     1.115   .     S
C55    H57     1.114   .     S
C55    C58     1.521   .     S
C58    H61     1.111   .     S
C58    H59     1.111   .     S
C58    H60     1.109   .     S
O62    C63     1.414   .     S
C63    H65     1.112   .     S
C63    H64     1.117   .     S
C63    C894    1.521   .     S
C66    H68     1.111   .     S
C66    H67     1.110   .     S
C66    C1098   1.521   1_544 S
C66    H483    1.111   1_545 S
H69    C273    1.111   .     S
Zn70   O74     1.956   .     S
Zn70   O82     1.930   .     S
Zn70   O83     1.927   .     S
Zn70   O76     1.925   .     S
Zn71   O85     1.929   .     S
Zn71   O74     1.934   .     S
Zn71   O77     1.938   .     S
Zn71   O79     1.934   .     S
Zn72   O78     1.933   .     S
Zn72   O81     1.932   .     S
Zn72   O86     1.933   .     S
Zn72   O74     1.939   .     S
Zn73   O80     1.939   .     S
Zn73   O84     1.932   .     S
Zn73   O75     1.927   .     S
Zn73   O74     1.939   .     S
O75    C87     1.270   .     A
O76    C88     1.279   .     A
O77    C89     1.277   .     A
O78    C90     1.271   .     A
O79    C91     1.267   .     A
O80    C92     1.282   .     A
O81    C91     1.279   .     A
O82    C92     1.286   .     A
O83    C89     1.270   .     A
O84    C90     1.279   .     A
O85    C87     1.269   .     A
O86    C88     1.282   .     A
C87    C115    1.436   .     S
C88    C113    1.453   .     S
C89    C118    1.436   .     S
C90    C117    1.460   .     S
C91    C97     1.454   .     S
C92    C109    1.476   .     S
C93    H96     1.084   .     S
C93    C108    1.385   .     A
C93    C725    1.400   1_554 S
H94    C108    1.084   .     S
H95    C105    1.085   .     S
C97    C107    1.392   .     A
C97    C108    1.397   .     A
C98    H111    1.083   .     S
C98    C99     1.398   .     A
C98    C109    1.399   .     A
C99    O131    1.389   .     S
C99    C721    1.402   .     S
C100   O123    1.381   .     S
C100   C720    1.402   1_554 S
C100   C722    1.432   1_554 S
C101   C102    1.425   .     A
C101   C721    1.432   .     S
C101   C724    1.433   .     S
C102   C109    1.414   .     A
C102   C106    1.409   .     A
C103   C107    1.413   .     A
C103   C722    1.433   1_554 S
C103   C725    1.426   1_554 S
C104   C105    1.389   .     A
C104   C724    1.426   .     S
C104   C714    1.400   .     S
C105   C106    1.380   .     A
C106   H112    1.080   .     S
C107   H110    1.074   .     S
C113   H183    1.086   .     S
C113   C184    1.334   .     S
H116   C184    1.086   .     S
C117   C325    1.340   .     S
C117   N327    1.446   .     S
C118   C531    1.340   1_545 S
C118   H533    1.086   1_545 S
H119   C325    1.086   .     S
N120   O122    1.302   .     A
N120   C531    1.446   1_545 S
N120   O535    1.301   1_545 S
O121   N327    1.301   .     S
O123   C124    1.412   .     S
C124   H125    1.115   .     S
C124   H126    1.114   .     S
C124   C127    1.521   .     S
C127   H130    1.111   .     S
C127   H128    1.111   .     S
C127   H129    1.109   .     S
O131   C132    1.414   .     S
C132   H134    1.112   .     S
C132   H133    1.117   .     S
C132   C963    1.521   .     S
C135   H137    1.111   .     S
C135   H136    1.110   .     S
C135   C1167   1.521   1_544 S
C135   H552    1.111   1_545 S
H138   C342    1.111   .     S
Zn139  O143    1.956   .     S
Zn139  O151    1.930   .     S
Zn139  O152    1.927   .     S
Zn139  O145    1.925   .     S
Zn140  O154    1.929   .     S
Zn140  O143    1.934   .     S
Zn140  O146    1.938   .     S
Zn140  O148    1.934   .     S
Zn141  O147    1.933   .     S
Zn141  O150    1.932   .     S
Zn141  O155    1.933   .     S
Zn141  O143    1.939   .     S
Zn142  O149    1.939   .     S
Zn142  O153    1.932   .     S
Zn142  O144    1.927   .     S
Zn142  O143    1.939   .     S
O144   C156    1.270   .     A
O145   C157    1.279   .     A
O146   C158    1.277   .     A
O147   C159    1.271   .     A
O148   C160    1.267   .     A
O149   C161    1.282   .     A
O150   C160    1.279   .     A
O151   C161    1.286   .     A
O152   C158    1.270   .     A
O153   C159    1.279   .     A
O154   C156    1.269   .     A
O155   C157    1.282   .     A
C156   C184    1.436   .     S
C157   C182    1.453   .     S
C158   C187    1.436   .     S
C159   C186    1.460   .     S
C160   C166    1.454   .     S
C161   C178    1.476   .     S
C162   H165    1.084   .     S
C162   C177    1.385   .     A
C162   C794    1.400   1_554 S
H163   C177    1.084   .     S
H164   C174    1.085   .     S
C166   C176    1.392   .     A
C166   C177    1.397   .     A
C167   H180    1.083   .     S
C167   C168    1.398   .     A
C167   C178    1.399   .     A
C168   O200    1.389   .     S
C168   C790    1.402   .     S
C169   O192    1.381   .     S
C169   C789    1.402   1_554 S
C169   C791    1.432   1_554 S
C170   C171    1.425   .     A
C170   C790    1.432   .     S
C170   C793    1.433   .     S
C171   C178    1.414   .     A
C171   C175    1.409   .     A
C172   C176    1.413   .     A
C172   C791    1.433   1_554 S
C172   C794    1.426   1_554 S
C173   C174    1.389   .     A
C173   C793    1.426   .     S
C173   C783    1.400   .     S
C174   C175    1.380   .     A
C175   H181    1.080   .     S
C176   H179    1.074   .     S
C182   H45     1.086   1_655 S
C182   C46     1.334   1_655 S
H185   C46     1.086   1_655 S
C186   C394    1.340   .     S
C186   N396    1.446   .     S
C187   C600    1.340   1_545 S
C187   H602    1.086   1_545 S
H188   C394    1.086   .     S
N189   O191    1.302   .     A
N189   C600    1.446   1_545 S
N189   O604    1.301   1_545 S
O190   N396    1.301   .     S
O192   C193    1.412   .     S
C193   H194    1.115   .     S
C193   H195    1.114   .     S
C193   C196    1.521   .     S
C196   H199    1.111   .     S
C196   H197    1.111   .     S
C196   H198    1.109   .     S
O200   C201    1.414   .     S
C201   H203    1.112   .     S
C201   H202    1.117   .     S
C201   C1032   1.521   .     S
C204   H206    1.111   .     S
C204   H205    1.110   .     S
C204   C1236   1.521   1_544 S
C204   H621    1.111   1_545 S
H207   C411    1.111   .     S
Zn208  O212    1.956   .     S
Zn208  O220    1.930   .     S
Zn208  O221    1.927   .     S
Zn208  O214    1.925   .     S
Zn209  O223    1.929   .     S
Zn209  O212    1.934   .     S
Zn209  O215    1.938   .     S
Zn209  O217    1.934   .     S
Zn210  O216    1.933   .     S
Zn210  O219    1.932   .     S
Zn210  O224    1.933   .     S
Zn210  O212    1.939   .     S
Zn211  O218    1.939   .     S
Zn211  O222    1.932   .     S
Zn211  O213    1.927   .     S
Zn211  O212    1.939   .     S
O213   C225    1.270   .     A
O214   C226    1.279   .     A
O215   C227    1.277   .     A
O216   C228    1.271   .     A
O217   C229    1.267   .     A
O218   C230    1.282   .     A
O219   C229    1.279   .     A
O220   C230    1.286   .     A
O221   C227    1.270   .     A
O222   C228    1.279   .     A
O223   C225    1.269   .     A
O224   C226    1.282   .     A
C225   C253    1.436   .     S
C226   C251    1.453   .     S
C227   C256    1.436   .     S
C228   C255    1.460   .     S
C229   C235    1.454   .     S
C230   C247    1.476   .     S
C231   H234    1.084   .     S
C231   C246    1.385   .     A
C231   C863    1.400   1_554 S
H232   C246    1.084   .     S
H233   C243    1.085   .     S
C235   C245    1.392   .     A
C235   C246    1.397   .     A
C236   H249    1.083   .     S
C236   C237    1.398   .     A
C236   C247    1.399   .     A
C237   O269    1.389   .     S
C237   C859    1.402   .     S
C238   O261    1.381   .     S
C238   C858    1.402   1_554 S
C238   C860    1.432   1_554 S
C239   C240    1.425   .     A
C239   C859    1.432   .     S
C239   C862    1.433   .     S
C240   C247    1.414   .     A
C240   C244    1.409   .     A
C241   C245    1.413   .     A
C241   C860    1.433   1_554 S
C241   C863    1.426   1_554 S
C242   C243    1.389   .     A
C242   C862    1.426   .     S
C242   C852    1.400   .     S
C243   C244    1.380   .     A
C244   H250    1.080   .     S
C245   H248    1.074   .     S
C251   H321    1.086   .     S
C251   C322    1.334   .     S
H252   C389    1.086   1_455 S
C253   C389    1.334   1_455 S
C253   H392    1.086   1_455 S
H254   C322    1.086   .     S
C255   C463    1.340   .     S
C255   N465    1.446   .     S
H257   C463    1.086   .     S
N258   O260    1.302   .     A
O259   N465    1.301   .     S
O261   C262    1.412   .     S
C262   H263    1.115   .     S
C262   H264    1.114   .     S
C262   C265    1.521   .     S
C265   H268    1.111   .     S
C265   H266    1.111   .     S
C265   H267    1.109   .     S
O269   C270    1.414   .     S
C270   H272    1.112   .     S
C270   H271    1.117   .     S
C270   C1101   1.521   .     S
C273   H275    1.111   .     S
C273   H274    1.110   .     S
C273   C684    1.521   1_554 S
H276   C480    1.111   .     S
Zn277  O281    1.956   .     S
Zn277  O289    1.930   .     S
Zn277  O290    1.927   .     S
Zn277  O283    1.925   .     S
Zn278  O292    1.929   .     S
Zn278  O281    1.934   .     S
Zn278  O284    1.938   .     S
Zn278  O286    1.934   .     S
Zn279  O285    1.933   .     S
Zn279  O288    1.932   .     S
Zn279  O293    1.933   .     S
Zn279  O281    1.939   .     S
Zn280  O287    1.939   .     S
Zn280  O291    1.932   .     S
Zn280  O282    1.927   .     S
Zn280  O281    1.939   .     S
O282   C294    1.270   .     A
O283   C295    1.279   .     A
O284   C296    1.277   .     A
O285   C297    1.271   .     A
O286   C298    1.267   .     A
O287   C299    1.282   .     A
O288   C298    1.279   .     A
O289   C299    1.286   .     A
O290   C296    1.270   .     A
O291   C297    1.279   .     A
O292   C294    1.269   .     A
O293   C295    1.282   .     A
C294   C322    1.436   .     S
C295   C320    1.453   .     S
C296   C325    1.436   .     S
C297   C324    1.460   .     S
C298   C304    1.454   .     S
C299   C316    1.476   .     S
C300   H303    1.084   .     S
C300   C315    1.385   .     A
C300   C932    1.400   1_554 S
H301   C315    1.084   .     S
H302   C312    1.085   .     S
C304   C314    1.392   .     A
C304   C315    1.397   .     A
C305   H318    1.083   .     S
C305   C306    1.398   .     A
C305   C316    1.399   .     A
C306   O338    1.389   .     S
C306   C928    1.402   .     S
C307   O330    1.381   .     S
C307   C927    1.402   1_554 S
C307   C929    1.432   1_554 S
C308   C309    1.425   .     A
C308   C928    1.432   .     S
C308   C931    1.433   .     S
C309   C316    1.414   .     A
C309   C313    1.409   .     A
C310   C314    1.413   .     A
C310   C929    1.433   1_554 S
C310   C932    1.426   1_554 S
C311   C312    1.389   .     A
C311   C931    1.426   .     S
C311   C921    1.400   .     S
C312   C313    1.380   .     A
C313   H319    1.080   .     S
C314   H317    1.074   .     S
C320   H390    1.086   .     S
C320   C391    1.334   .     S
H323   C391    1.086   .     S
C324   C532    1.340   .     S
C324   N534    1.446   .     S
H326   C532    1.086   .     S
N327   O329    1.302   .     A
O328   N534    1.301   .     S
O330   C331    1.412   .     S
C331   H332    1.115   .     S
C331   H333    1.114   .     S
C331   C334    1.521   .     S
C334   H337    1.111   .     S
C334   H335    1.111   .     S
C334   H336    1.109   .     S
O338   C339    1.414   .     S
C339   H341    1.112   .     S
C339   H340    1.117   .     S
C339   C1170   1.521   .     S
C342   H344    1.111   .     S
C342   H343    1.110   .     S
C342   C753    1.521   1_554 S
H345   C549    1.111   .     S
Zn346  O350    1.956   .     S
Zn346  O358    1.930   .     S
Zn346  O359    1.927   .     S
Zn346  O352    1.925   .     S
Zn347  O361    1.929   .     S
Zn347  O350    1.934   .     S
Zn347  O353    1.938   .     S
Zn347  O355    1.934   .     S
Zn348  O354    1.933   .     S
Zn348  O357    1.932   .     S
Zn348  O362    1.933   .     S
Zn348  O350    1.939   .     S
Zn349  O356    1.939   .     S
Zn349  O360    1.932   .     S
Zn349  O351    1.927   .     S
Zn349  O350    1.939   .     S
O351   C363    1.270   .     A
O352   C364    1.279   .     A
O353   C365    1.277   .     A
O354   C366    1.271   .     A
O355   C367    1.267   .     A
O356   C368    1.282   .     A
O357   C367    1.279   .     A
O358   C368    1.286   .     A
O359   C365    1.270   .     A
O360   C366    1.279   .     A
O361   C363    1.269   .     A
O362   C364    1.282   .     A
C363   C391    1.436   .     S
C364   C389    1.453   .     S
C365   C394    1.436   .     S
C366   C393    1.460   .     S
C367   C373    1.454   .     S
C368   C385    1.476   .     S
C369   H372    1.084   .     S
C369   C384    1.385   .     A
C369   C1001   1.400   1_554 S
H370   C384    1.084   .     S
H371   C381    1.085   .     S
C373   C383    1.392   .     A
C373   C384    1.397   .     A
C374   H387    1.083   .     S
C374   C375    1.398   .     A
C374   C385    1.399   .     A
C375   O407    1.389   .     S
C375   C997    1.402   .     S
C376   O399    1.381   .     S
C376   C996    1.402   1_554 S
C376   C998    1.432   1_554 S
C377   C378    1.425   .     A
C377   C997    1.432   .     S
C377   C1000   1.433   .     S
C378   C385    1.414   .     A
C378   C382    1.409   .     A
C379   C383    1.413   .     A
C379   C998    1.433   1_554 S
C379   C1001   1.426   1_554 S
C380   C381    1.389   .     A
C380   C1000   1.426   .     S
C380   C990    1.400   .     S
C381   C382    1.380   .     A
C382   H388    1.080   .     S
C383   H386    1.074   .     S
C389   H252    1.086   1_655 S
C389   C253    1.334   1_655 S
H392   C253    1.086   1_655 S
C393   C601    1.340   .     S
C393   N603    1.446   .     S
H395   C601    1.086   .     S
N396   O398    1.302   .     A
O397   N603    1.301   .     S
O399   C400    1.412   .     S
C400   H401    1.115   .     S
C400   H402    1.114   .     S
C400   C403    1.521   .     S
C403   H406    1.111   .     S
C403   H404    1.111   .     S
C403   H405    1.109   .     S
O407   C408    1.414   .     S
C408   H410    1.112   .     S
C408   H409    1.117   .     S
C408   C1239   1.521   .     S
C411   H413    1.111   .     S
C411   H412    1.110   .     S
C411   C822    1.521   1_554 S
H414   C618    1.111   .     S
Zn415  O419    1.956   .     S
Zn415  O427    1.930   .     S
Zn415  O428    1.927   .     S
Zn415  O421    1.925   .     S
Zn416  O430    1.929   .     S
Zn416  O419    1.934   .     S
Zn416  O422    1.938   .     S
Zn416  O424    1.934   .     S
Zn417  O423    1.933   .     S
Zn417  O426    1.932   .     S
Zn417  O431    1.933   .     S
Zn417  O419    1.939   .     S
Zn418  O425    1.939   .     S
Zn418  O429    1.932   .     S
Zn418  O420    1.927   .     S
Zn418  O419    1.939   .     S
O420   C432    1.270   .     A
O421   C433    1.279   .     A
O422   C434    1.277   .     A
O423   C435    1.271   .     A
O424   C436    1.267   .     A
O425   C437    1.282   .     A
O426   C436    1.279   .     A
O427   C437    1.286   .     A
O428   C434    1.270   .     A
O429   C435    1.279   .     A
O430   C432    1.269   .     A
O431   C433    1.282   .     A
C432   C460    1.436   .     S
C433   C458    1.453   .     S
C434   C463    1.436   .     S
C435   C462    1.460   .     S
C436   C442    1.454   .     S
C437   C454    1.476   .     S
C438   H441    1.084   .     S
C438   C453    1.385   .     A
C438   C1070   1.400   1_554 S
H439   C453    1.084   .     S
H440   C450    1.085   .     S
C442   C452    1.392   .     A
C442   C453    1.397   .     A
C443   H456    1.083   .     S
C443   C444    1.398   .     A
C443   C454    1.399   .     A
C444   O476    1.389   .     S
C444   C1066   1.402   .     S
C445   O468    1.381   .     S
C445   C1065   1.402   1_554 S
C445   C1067   1.432   1_554 S
C446   C447    1.425   .     A
C446   C1066   1.432   .     S
C446   C1069   1.433   .     S
C447   C454    1.414   .     A
C447   C451    1.409   .     A
C448   C452    1.413   .     A
C448   C1067   1.433   1_554 S
C448   C1070   1.426   1_554 S
C449   C450    1.389   .     A
C449   C1069   1.426   .     S
C449   C1059   1.400   .     S
C450   C451    1.380   .     A
C451   H457    1.080   .     S
C452   H455    1.074   .     S
C458   H528    1.086   .     S
C458   C529    1.334   .     S
H459   C596    1.086   1_455 S
C460   C596    1.334   1_455 S
C460   H599    1.086   1_455 S
H461   C529    1.086   .     S
C462   C49     1.340   1_565 S
C462   N51     1.446   1_565 S
H464   C49     1.086   1_565 S
N465   O467    1.302   .     A
O466   N51     1.301   1_565 S
O468   C469    1.412   .     S
C469   H470    1.115   .     S
C469   H471    1.114   .     S
C469   C472    1.521   .     S
C472   H475    1.111   .     S
C472   H473    1.111   .     S
C472   H474    1.109   .     S
O476   C477    1.414   .     S
C477   H479    1.112   .     S
C477   H478    1.117   .     S
C477   C687    1.521   1_565 S
C480   H482    1.111   .     S
C480   H481    1.110   .     S
C480   C891    1.521   1_554 S
H483   C66     1.111   1_565 S
Zn484  O488    1.956   .     S
Zn484  O496    1.930   .     S
Zn484  O497    1.927   .     S
Zn484  O490    1.925   .     S
Zn485  O499    1.929   .     S
Zn485  O488    1.934   .     S
Zn485  O491    1.938   .     S
Zn485  O493    1.934   .     S
Zn486  O492    1.933   .     S
Zn486  O495    1.932   .     S
Zn486  O500    1.933   .     S
Zn486  O488    1.939   .     S
Zn487  O494    1.939   .     S
Zn487  O498    1.932   .     S
Zn487  O489    1.927   .     S
Zn487  O488    1.939   .     S
O489   C501    1.270   .     A
O490   C502    1.279   .     A
O491   C503    1.277   .     A
O492   C504    1.271   .     A
O493   C505    1.267   .     A
O494   C506    1.282   .     A
O495   C505    1.279   .     A
O496   C506    1.286   .     A
O497   C503    1.270   .     A
O498   C504    1.279   .     A
O499   C501    1.269   .     A
O500   C502    1.282   .     A
C501   C529    1.436   .     S
C502   C527    1.453   .     S
C503   C532    1.436   .     S
C504   C531    1.460   .     S
C505   C511    1.454   .     S
C506   C523    1.476   .     S
C507   H510    1.084   .     S
C507   C522    1.385   .     A
C507   C1139   1.400   1_554 S
H508   C522    1.084   .     S
H509   C519    1.085   .     S
C511   C521    1.392   .     A
C511   C522    1.397   .     A
C512   H525    1.083   .     S
C512   C513    1.398   .     A
C512   C523    1.399   .     A
C513   O545    1.389   .     S
C513   C1135   1.402   .     S
C514   O537    1.381   .     S
C514   C1134   1.402   1_554 S
C514   C1136   1.432   1_554 S
C515   C516    1.425   .     A
C515   C1135   1.432   .     S
C515   C1138   1.433   .     S
C516   C523    1.414   .     A
C516   C520    1.409   .     A
C517   C521    1.413   .     A
C517   C1136   1.433   1_554 S
C517   C1139   1.426   1_554 S
C518   C519    1.389   .     A
C518   C1138   1.426   .     S
C518   C1128   1.400   .     S
C519   C520    1.380   .     A
C520   H526    1.080   .     S
C521   H524    1.074   .     S
C527   H597    1.086   .     S
C527   C598    1.334   .     S
H530   C598    1.086   .     S
C531   C118    1.340   1_565 S
C531   N120    1.446   1_565 S
H533   C118    1.086   1_565 S
N534   O536    1.302   .     A
O535   N120    1.301   1_565 S
O537   C538    1.412   .     S
C538   H539    1.115   .     S
C538   H540    1.114   .     S
C538   C541    1.521   .     S
C541   H544    1.111   .     S
C541   H542    1.111   .     S
C541   H543    1.109   .     S
O545   C546    1.414   .     S
C546   H548    1.112   .     S
C546   H547    1.117   .     S
C546   C756    1.521   1_565 S
C549   H551    1.111   .     S
C549   H550    1.110   .     S
C549   C960    1.521   1_554 S
H552   C135    1.111   1_565 S
Zn553  O557    1.956   .     S
Zn553  O565    1.930   .     S
Zn553  O566    1.927   .     S
Zn553  O559    1.925   .     S
Zn554  O568    1.929   .     S
Zn554  O557    1.934   .     S
Zn554  O560    1.938   .     S
Zn554  O562    1.934   .     S
Zn555  O561    1.933   .     S
Zn555  O564    1.932   .     S
Zn555  O569    1.933   .     S
Zn555  O557    1.939   .     S
Zn556  O563    1.939   .     S
Zn556  O567    1.932   .     S
Zn556  O558    1.927   .     S
Zn556  O557    1.939   .     S
O558   C570    1.270   .     A
O559   C571    1.279   .     A
O560   C572    1.277   .     A
O561   C573    1.271   .     A
O562   C574    1.267   .     A
O563   C575    1.282   .     A
O564   C574    1.279   .     A
O565   C575    1.286   .     A
O566   C572    1.270   .     A
O567   C573    1.279   .     A
O568   C570    1.269   .     A
O569   C571    1.282   .     A
C570   C598    1.436   .     S
C571   C596    1.453   .     S
C572   C601    1.436   .     S
C573   C600    1.460   .     S
C574   C580    1.454   .     S
C575   C592    1.476   .     S
C576   H579    1.084   .     S
C576   C591    1.385   .     A
C576   C1208   1.400   1_554 S
H577   C591    1.084   .     S
H578   C588    1.085   .     S
C580   C590    1.392   .     A
C580   C591    1.397   .     A
C581   H594    1.083   .     S
C581   C582    1.398   .     A
C581   C592    1.399   .     A
C582   O614    1.389   .     S
C582   C1204   1.402   .     S
C583   O606    1.381   .     S
C583   C1203   1.402   1_554 S
C583   C1205   1.432   1_554 S
C584   C585    1.425   .     A
C584   C1204   1.432   .     S
C584   C1207   1.433   .     S
C585   C592    1.414   .     A
C585   C589    1.409   .     A
C586   C590    1.413   .     A
C586   C1205   1.433   1_554 S
C586   C1208   1.426   1_554 S
C587   C588    1.389   .     A
C587   C1207   1.426   .     S
C587   C1197   1.400   .     S
C588   C589    1.380   .     A
C589   H595    1.080   .     S
C590   H593    1.074   .     S
C596   H459    1.086   1_655 S
C596   C460    1.334   1_655 S
H599   C460    1.086   1_655 S
C600   C187    1.340   1_565 S
C600   N189    1.446   1_565 S
H602   C187    1.086   1_565 S
N603   O605    1.302   .     A
O604   N189    1.301   1_565 S
O606   C607    1.412   .     S
C607   H608    1.115   .     S
C607   H609    1.114   .     S
C607   C610    1.521   .     S
C610   H613    1.111   .     S
C610   H611    1.111   .     S
C610   H612    1.109   .     S
O614   C615    1.414   .     S
C615   H617    1.112   .     S
C615   H616    1.117   .     S
C615   C825    1.521   1_565 S
C618   H620    1.111   .     S
C618   H619    1.110   .     S
C618   C1029   1.521   1_554 S
H621   C204    1.111   1_565 S
Zn622  O626    1.956   .     S
Zn622  O634    1.930   .     S
Zn622  O635    1.927   .     S
Zn622  O628    1.925   .     S
Zn623  O637    1.929   .     S
Zn623  O626    1.934   .     S
Zn623  O629    1.938   .     S
Zn623  O631    1.934   .     S
Zn624  O630    1.933   .     S
Zn624  O633    1.932   .     S
Zn624  O638    1.933   .     S
Zn624  O626    1.939   .     S
Zn625  O632    1.939   .     S
Zn625  O636    1.932   .     S
Zn625  O627    1.927   .     S
Zn625  O626    1.939   .     S
O627   C639    1.270   .     A
O628   C640    1.279   .     A
O629   C641    1.277   .     A
O630   C642    1.271   .     A
O631   C643    1.267   .     A
O632   C644    1.282   .     A
O633   C643    1.279   .     A
O634   C644    1.286   .     A
O635   C641    1.270   .     A
O636   C642    1.279   .     A
O637   C639    1.269   .     A
O638   C640    1.282   .     A
C639   C667    1.436   .     S
C640   C665    1.453   .     S
C641   C670    1.436   .     S
C642   C669    1.460   .     S
C643   C649    1.454   .     S
C644   C661    1.476   .     S
C645   H648    1.084   .     S
C645   C660    1.385   .     A
H646   C660    1.084   .     S
H647   C657    1.085   .     S
C649   C659    1.392   .     A
C649   C660    1.397   .     A
C650   H663    1.083   .     S
C650   C651    1.398   .     A
C650   C661    1.399   .     A
C651   O683    1.389   .     S
C651   C31     1.402   1_556 S
C652   O675    1.381   .     S
C653   C654    1.425   .     A
C653   C31     1.432   1_556 S
C653   C34     1.433   1_556 S
C654   C661    1.414   .     A
C654   C658    1.409   .     A
C655   C659    1.413   .     A
C656   C657    1.389   .     A
C656   C34     1.426   1_556 S
C656   C24     1.400   1_556 S
C657   C658    1.380   .     A
C658   H664    1.080   .     S
C659   H662    1.074   .     S
C665   H735    1.086   .     S
C665   C736    1.334   .     S
H666   C803    1.086   1_455 S
C667   C803    1.334   1_455 S
C667   H806    1.086   1_455 S
H668   C736    1.086   .     S
C669   C877    1.340   .     S
C669   N879    1.446   .     S
C670   C1083   1.340   1_545 S
C670   H1085   1.086   1_545 S
H671   C877    1.086   .     S
N672   O674    1.302   .     A
N672   C1083   1.446   1_545 S
N672   O1087   1.301   1_545 S
O673   N879    1.301   .     S
O675   C676    1.412   .     S
C676   H677    1.115   .     S
C676   H678    1.114   .     S
C676   C679    1.521   .     S
C679   H682    1.111   .     S
C679   H680    1.111   .     S
C679   H681    1.109   .     S
O683   C684    1.414   .     S
C684   H686    1.112   .     S
C684   H685    1.117   .     S
C684   C273    1.521   1_556 S
C687   H689    1.111   .     S
C687   H688    1.110   .     S
C687   C477    1.521   1_545 S
C687   H1104   1.111   1_545 S
H690   C894    1.111   .     S
Zn691  O695    1.956   .     S
Zn691  O703    1.930   .     S
Zn691  O704    1.927   .     S
Zn691  O697    1.925   .     S
Zn692  O706    1.929   .     S
Zn692  O695    1.934   .     S
Zn692  O698    1.938   .     S
Zn692  O700    1.934   .     S
Zn693  O699    1.933   .     S
Zn693  O702    1.932   .     S
Zn693  O707    1.933   .     S
Zn693  O695    1.939   .     S
Zn694  O701    1.939   .     S
Zn694  O705    1.932   .     S
Zn694  O696    1.927   .     S
Zn694  O695    1.939   .     S
O696   C708    1.270   .     A
O697   C709    1.279   .     A
O698   C710    1.277   .     A
O699   C711    1.271   .     A
O700   C712    1.267   .     A
O701   C713    1.282   .     A
O702   C712    1.279   .     A
O703   C713    1.286   .     A
O704   C710    1.270   .     A
O705   C711    1.279   .     A
O706   C708    1.269   .     A
O707   C709    1.282   .     A
C708   C736    1.436   .     S
C709   C734    1.453   .     S
C710   C739    1.436   .     S
C711   C738    1.460   .     S
C712   C718    1.454   .     S
C713   C730    1.476   .     S
C714   H717    1.084   .     S
C714   C729    1.385   .     A
H715   C729    1.084   .     S
H716   C726    1.085   .     S
C718   C728    1.392   .     A
C718   C729    1.397   .     A
C719   H732    1.083   .     S
C719   C720    1.398   .     A
C719   C730    1.399   .     A
C720   O752    1.389   .     S
C720   C100    1.402   1_556 S
C721   O744    1.381   .     S
C722   C723    1.425   .     A
C722   C100    1.432   1_556 S
C722   C103    1.433   1_556 S
C723   C730    1.414   .     A
C723   C727    1.409   .     A
C724   C728    1.413   .     A
C725   C726    1.389   .     A
C725   C103    1.426   1_556 S
C725   C93     1.400   1_556 S
C726   C727    1.380   .     A
C727   H733    1.080   .     S
C728   H731    1.074   .     S
C734   H804    1.086   .     S
C734   C805    1.334   .     S
H737   C805    1.086   .     S
C738   C946    1.340   .     S
C738   N948    1.446   .     S
C739   C1152   1.340   1_545 S
C739   H1154   1.086   1_545 S
H740   C946    1.086   .     S
N741   O743    1.302   .     A
N741   C1152   1.446   1_545 S
N741   O1156   1.301   1_545 S
O742   N948    1.301   .     S
O744   C745    1.412   .     S
C745   H746    1.115   .     S
C745   H747    1.114   .     S
C745   C748    1.521   .     S
C748   H751    1.111   .     S
C748   H749    1.111   .     S
C748   H750    1.109   .     S
O752   C753    1.414   .     S
C753   H755    1.112   .     S
C753   H754    1.117   .     S
C753   C342    1.521   1_556 S
C756   H758    1.111   .     S
C756   H757    1.110   .     S
C756   C546    1.521   1_545 S
C756   H1173   1.111   1_545 S
H759   C963    1.111   .     S
Zn760  O764    1.956   .     S
Zn760  O772    1.930   .     S
Zn760  O773    1.927   .     S
Zn760  O766    1.925   .     S
Zn761  O775    1.929   .     S
Zn761  O764    1.934   .     S
Zn761  O767    1.938   .     S
Zn761  O769    1.934   .     S
Zn762  O768    1.933   .     S
Zn762  O771    1.932   .     S
Zn762  O776    1.933   .     S
Zn762  O764    1.939   .     S
Zn763  O770    1.939   .     S
Zn763  O774    1.932   .     S
Zn763  O765    1.927   .     S
Zn763  O764    1.939   .     S
O765   C777    1.270   .     A
O766   C778    1.279   .     A
O767   C779    1.277   .     A
O768   C780    1.271   .     A
O769   C781    1.267   .     A
O770   C782    1.282   .     A
O771   C781    1.279   .     A
O772   C782    1.286   .     A
O773   C779    1.270   .     A
O774   C780    1.279   .     A
O775   C777    1.269   .     A
O776   C778    1.282   .     A
C777   C805    1.436   .     S
C778   C803    1.453   .     S
C779   C808    1.436   .     S
C780   C807    1.460   .     S
C781   C787    1.454   .     S
C782   C799    1.476   .     S
C783   H786    1.084   .     S
C783   C798    1.385   .     A
H784   C798    1.084   .     S
H785   C795    1.085   .     S
C787   C797    1.392   .     A
C787   C798    1.397   .     A
C788   H801    1.083   .     S
C788   C789    1.398   .     A
C788   C799    1.399   .     A
C789   O821    1.389   .     S
C789   C169    1.402   1_556 S
C790   O813    1.381   .     S
C791   C792    1.425   .     A
C791   C169    1.432   1_556 S
C791   C172    1.433   1_556 S
C792   C799    1.414   .     A
C792   C796    1.409   .     A
C793   C797    1.413   .     A
C794   C795    1.389   .     A
C794   C172    1.426   1_556 S
C794   C162    1.400   1_556 S
C795   C796    1.380   .     A
C796   H802    1.080   .     S
C797   H800    1.074   .     S
C803   H666    1.086   1_655 S
C803   C667    1.334   1_655 S
H806   C667    1.086   1_655 S
C807   C1015   1.340   .     S
C807   N1017   1.446   .     S
C808   C1221   1.340   1_545 S
C808   H1223   1.086   1_545 S
H809   C1015   1.086   .     S
N810   O812    1.302   .     A
N810   C1221   1.446   1_545 S
N810   O1225   1.301   1_545 S
O811   N1017   1.301   .     S
O813   C814    1.412   .     S
C814   H815    1.115   .     S
C814   H816    1.114   .     S
C814   C817    1.521   .     S
C817   H820    1.111   .     S
C817   H818    1.111   .     S
C817   H819    1.109   .     S
O821   C822    1.414   .     S
C822   H824    1.112   .     S
C822   H823    1.117   .     S
C822   C411    1.521   1_556 S
C825   H827    1.111   .     S
C825   H826    1.110   .     S
C825   C615    1.521   1_545 S
C825   H1242   1.111   1_545 S
H828   C1032   1.111   .     S
Zn829  O833    1.956   .     S
Zn829  O841    1.930   .     S
Zn829  O842    1.927   .     S
Zn829  O835    1.925   .     S
Zn830  O844    1.929   .     S
Zn830  O833    1.934   .     S
Zn830  O836    1.938   .     S
Zn830  O838    1.934   .     S
Zn831  O837    1.933   .     S
Zn831  O840    1.932   .     S
Zn831  O845    1.933   .     S
Zn831  O833    1.939   .     S
Zn832  O839    1.939   .     S
Zn832  O843    1.932   .     S
Zn832  O834    1.927   .     S
Zn832  O833    1.939   .     S
O834   C846    1.270   .     A
O835   C847    1.279   .     A
O836   C848    1.277   .     A
O837   C849    1.271   .     A
O838   C850    1.267   .     A
O839   C851    1.282   .     A
O840   C850    1.279   .     A
O841   C851    1.286   .     A
O842   C848    1.270   .     A
O843   C849    1.279   .     A
O844   C846    1.269   .     A
O845   C847    1.282   .     A
C846   C874    1.436   .     S
C847   C872    1.453   .     S
C848   C877    1.436   .     S
C849   C876    1.460   .     S
C850   C856    1.454   .     S
C851   C868    1.476   .     S
C852   H855    1.084   .     S
C852   C867    1.385   .     A
H853   C867    1.084   .     S
H854   C864    1.085   .     S
C856   C866    1.392   .     A
C856   C867    1.397   .     A
C857   H870    1.083   .     S
C857   C858    1.398   .     A
C857   C868    1.399   .     A
C858   O890    1.389   .     S
C858   C238    1.402   1_556 S
C859   O882    1.381   .     S
C860   C861    1.425   .     A
C860   C238    1.432   1_556 S
C860   C241    1.433   1_556 S
C861   C868    1.414   .     A
C861   C865    1.409   .     A
C862   C866    1.413   .     A
C863   C864    1.389   .     A
C863   C241    1.426   1_556 S
C863   C231    1.400   1_556 S
C864   C865    1.380   .     A
C865   H871    1.080   .     S
C866   H869    1.074   .     S
C872   H942    1.086   .     S
C872   C943    1.334   .     S
H873   C1010   1.086   1_455 S
C874   C1010   1.334   1_455 S
C874   H1013   1.086   1_455 S
H875   C943    1.086   .     S
C876   C1084   1.340   .     S
C876   N1086   1.446   .     S
H878   C1084   1.086   .     S
N879   O881    1.302   .     A
O880   N1086   1.301   .     S
O882   C883    1.412   .     S
C883   H884    1.115   .     S
C883   H885    1.114   .     S
C883   C886    1.521   .     S
C886   H889    1.111   .     S
C886   H887    1.111   .     S
C886   H888    1.109   .     S
O890   C891    1.414   .     S
C891   H893    1.112   .     S
C891   H892    1.117   .     S
C891   C480    1.521   1_556 S
C894   H896    1.111   .     S
C894   H895    1.110   .     S
H897   C1101   1.111   .     S
Zn898  O902    1.956   .     S
Zn898  O910    1.930   .     S
Zn898  O911    1.927   .     S
Zn898  O904    1.925   .     S
Zn899  O913    1.929   .     S
Zn899  O902    1.934   .     S
Zn899  O905    1.938   .     S
Zn899  O907    1.934   .     S
Zn900  O906    1.933   .     S
Zn900  O909    1.932   .     S
Zn900  O914    1.933   .     S
Zn900  O902    1.939   .     S
Zn901  O908    1.939   .     S
Zn901  O912    1.932   .     S
Zn901  O903    1.927   .     S
Zn901  O902    1.939   .     S
O903   C915    1.270   .     A
O904   C916    1.279   .     A
O905   C917    1.277   .     A
O906   C918    1.271   .     A
O907   C919    1.267   .     A
O908   C920    1.282   .     A
O909   C919    1.279   .     A
O910   C920    1.286   .     A
O911   C917    1.270   .     A
O912   C918    1.279   .     A
O913   C915    1.269   .     A
O914   C916    1.282   .     A
C915   C943    1.436   .     S
C916   C941    1.453   .     S
C917   C946    1.436   .     S
C918   C945    1.460   .     S
C919   C925    1.454   .     S
C920   C937    1.476   .     S
C921   H924    1.084   .     S
C921   C936    1.385   .     A
H922   C936    1.084   .     S
H923   C933    1.085   .     S
C925   C935    1.392   .     A
C925   C936    1.397   .     A
C926   H939    1.083   .     S
C926   C927    1.398   .     A
C926   C937    1.399   .     A
C927   O959    1.389   .     S
C927   C307    1.402   1_556 S
C928   O951    1.381   .     S
C929   C930    1.425   .     A
C929   C307    1.432   1_556 S
C929   C310    1.433   1_556 S
C930   C937    1.414   .     A
C930   C934    1.409   .     A
C931   C935    1.413   .     A
C932   C933    1.389   .     A
C932   C310    1.426   1_556 S
C932   C300    1.400   1_556 S
C933   C934    1.380   .     A
C934   H940    1.080   .     S
C935   H938    1.074   .     S
C941   H1011   1.086   .     S
C941   C1012   1.334   .     S
H944   C1012   1.086   .     S
C945   C1153   1.340   .     S
C945   N1155   1.446   .     S
H947   C1153   1.086   .     S
N948   O950    1.302   .     A
O949   N1155   1.301   .     S
O951   C952    1.412   .     S
C952   H953    1.115   .     S
C952   H954    1.114   .     S
C952   C955    1.521   .     S
C955   H958    1.111   .     S
C955   H956    1.111   .     S
C955   H957    1.109   .     S
O959   C960    1.414   .     S
C960   H962    1.112   .     S
C960   H961    1.117   .     S
C960   C549    1.521   1_556 S
C963   H965    1.111   .     S
C963   H964    1.110   .     S
H966   C1170   1.111   .     S
Zn967  O971    1.956   .     S
Zn967  O979    1.930   .     S
Zn967  O980    1.927   .     S
Zn967  O973    1.925   .     S
Zn968  O982    1.929   .     S
Zn968  O971    1.934   .     S
Zn968  O974    1.938   .     S
Zn968  O976    1.934   .     S
Zn969  O975    1.933   .     S
Zn969  O978    1.932   .     S
Zn969  O983    1.933   .     S
Zn969  O971    1.939   .     S
Zn970  O977    1.939   .     S
Zn970  O981    1.932   .     S
Zn970  O972    1.927   .     S
Zn970  O971    1.939   .     S
O972   C984    1.270   .     A
O973   C985    1.279   .     A
O974   C986    1.277   .     A
O975   C987    1.271   .     A
O976   C988    1.267   .     A
O977   C989    1.282   .     A
O978   C988    1.279   .     A
O979   C989    1.286   .     A
O980   C986    1.270   .     A
O981   C987    1.279   .     A
O982   C984    1.269   .     A
O983   C985    1.282   .     A
C984   C1012   1.436   .     S
C985   C1010   1.453   .     S
C986   C1015   1.436   .     S
C987   C1014   1.460   .     S
C988   C994    1.454   .     S
C989   C1006   1.476   .     S
C990   H993    1.084   .     S
C990   C1005   1.385   .     A
H991   C1005   1.084   .     S
H992   C1002   1.085   .     S
C994   C1004   1.392   .     A
C994   C1005   1.397   .     A
C995   H1008   1.083   .     S
C995   C996    1.398   .     A
C995   C1006   1.399   .     A
C996   O1028   1.389   .     S
C996   C376    1.402   1_556 S
C997   O1020   1.381   .     S
C998   C999    1.425   .     A
C998   C376    1.432   1_556 S
C998   C379    1.433   1_556 S
C999   C1006   1.414   .     A
C999   C1003   1.409   .     A
C1000  C1004   1.413   .     A
C1001  C1002   1.389   .     A
C1001  C379    1.426   1_556 S
C1001  C369    1.400   1_556 S
C1002  C1003   1.380   .     A
C1003  H1009   1.080   .     S
C1004  H1007   1.074   .     S
C1010  H873    1.086   1_655 S
C1010  C874    1.334   1_655 S
H1013  C874    1.086   1_655 S
C1014  C1222   1.340   .     S
C1014  N1224   1.446   .     S
H1016  C1222   1.086   .     S
N1017  O1019   1.302   .     A
O1018  N1224   1.301   .     S
O1020  C1021   1.412   .     S
C1021  H1022   1.115   .     S
C1021  H1023   1.114   .     S
C1021  C1024   1.521   .     S
C1024  H1027   1.111   .     S
C1024  H1025   1.111   .     S
C1024  H1026   1.109   .     S
O1028  C1029   1.414   .     S
C1029  H1031   1.112   .     S
C1029  H1030   1.117   .     S
C1029  C618    1.521   1_556 S
C1032  H1034   1.111   .     S
C1032  H1033   1.110   .     S
H1035  C1239   1.111   .     S
Zn1036 O1040   1.956   .     S
Zn1036 O1048   1.930   .     S
Zn1036 O1049   1.927   .     S
Zn1036 O1042   1.925   .     S
Zn1037 O1051   1.929   .     S
Zn1037 O1040   1.934   .     S
Zn1037 O1043   1.938   .     S
Zn1037 O1045   1.934   .     S
Zn1038 O1044   1.933   .     S
Zn1038 O1047   1.932   .     S
Zn1038 O1052   1.933   .     S
Zn1038 O1040   1.939   .     S
Zn1039 O1046   1.939   .     S
Zn1039 O1050   1.932   .     S
Zn1039 O1041   1.927   .     S
Zn1039 O1040   1.939   .     S
O1041  C1053   1.270   .     A
O1042  C1054   1.279   .     A
O1043  C1055   1.277   .     A
O1044  C1056   1.271   .     A
O1045  C1057   1.267   .     A
O1046  C1058   1.282   .     A
O1047  C1057   1.279   .     A
O1048  C1058   1.286   .     A
O1049  C1055   1.270   .     A
O1050  C1056   1.279   .     A
O1051  C1053   1.269   .     A
O1052  C1054   1.282   .     A
C1053  C1081   1.436   .     S
C1054  C1079   1.453   .     S
C1055  C1084   1.436   .     S
C1056  C1083   1.460   .     S
C1057  C1063   1.454   .     S
C1058  C1075   1.476   .     S
C1059  H1062   1.084   .     S
C1059  C1074   1.385   .     A
H1060  C1074   1.084   .     S
H1061  C1071   1.085   .     S
C1063  C1073   1.392   .     A
C1063  C1074   1.397   .     A
C1064  H1077   1.083   .     S
C1064  C1065   1.398   .     A
C1064  C1075   1.399   .     A
C1065  O1097   1.389   .     S
C1065  C445    1.402   1_556 S
C1066  O1089   1.381   .     S
C1067  C1068   1.425   .     A
C1067  C445    1.432   1_556 S
C1067  C448    1.433   1_556 S
C1068  C1075   1.414   .     A
C1068  C1072   1.409   .     A
C1069  C1073   1.413   .     A
C1070  C1071   1.389   .     A
C1070  C448    1.426   1_556 S
C1070  C438    1.400   1_556 S
C1071  C1072   1.380   .     A
C1072  H1078   1.080   .     S
C1073  H1076   1.074   .     S
C1079  H1149   1.086   .     S
C1079  C1150   1.334   .     S
H1080  C1217   1.086   1_455 S
C1081  C1217   1.334   1_455 S
C1081  H1220   1.086   1_455 S
H1082  C1150   1.086   .     S
C1083  C670    1.340   1_565 S
C1083  N672    1.446   1_565 S
H1085  C670    1.086   1_565 S
N1086  O1088   1.302   .     A
O1087  N672    1.301   1_565 S
O1089  C1090   1.412   .     S
C1090  H1091   1.115   .     S
C1090  H1092   1.114   .     S
C1090  C1093   1.521   .     S
C1093  H1096   1.111   .     S
C1093  H1094   1.111   .     S
C1093  H1095   1.109   .     S
O1097  C1098   1.414   .     S
C1098  H1100   1.112   .     S
C1098  H1099   1.117   .     S
C1098  C66     1.521   1_566 S
C1101  H1103   1.111   .     S
C1101  H1102   1.110   .     S
H1104  C687    1.111   1_565 S
Zn1105 O1109   1.956   .     S
Zn1105 O1117   1.930   .     S
Zn1105 O1118   1.927   .     S
Zn1105 O1111   1.925   .     S
Zn1106 O1120   1.929   .     S
Zn1106 O1109   1.934   .     S
Zn1106 O1112   1.938   .     S
Zn1106 O1114   1.934   .     S
Zn1107 O1113   1.933   .     S
Zn1107 O1116   1.932   .     S
Zn1107 O1121   1.933   .     S
Zn1107 O1109   1.939   .     S
Zn1108 O1115   1.939   .     S
Zn1108 O1119   1.932   .     S
Zn1108 O1110   1.927   .     S
Zn1108 O1109   1.939   .     S
O1110  C1122   1.270   .     A
O1111  C1123   1.279   .     A
O1112  C1124   1.277   .     A
O1113  C1125   1.271   .     A
O1114  C1126   1.267   .     A
O1115  C1127   1.282   .     A
O1116  C1126   1.279   .     A
O1117  C1127   1.286   .     A
O1118  C1124   1.270   .     A
O1119  C1125   1.279   .     A
O1120  C1122   1.269   .     A
O1121  C1123   1.282   .     A
C1122  C1150   1.436   .     S
C1123  C1148   1.453   .     S
C1124  C1153   1.436   .     S
C1125  C1152   1.460   .     S
C1126  C1132   1.454   .     S
C1127  C1144   1.476   .     S
C1128  H1131   1.084   .     S
C1128  C1143   1.385   .     A
H1129  C1143   1.084   .     S
H1130  C1140   1.085   .     S
C1132  C1142   1.392   .     A
C1132  C1143   1.397   .     A
C1133  H1146   1.083   .     S
C1133  C1134   1.398   .     A
C1133  C1144   1.399   .     A
C1134  O1166   1.389   .     S
C1134  C514    1.402   1_556 S
C1135  O1158   1.381   .     S
C1136  C1137   1.425   .     A
C1136  C514    1.432   1_556 S
C1136  C517    1.433   1_556 S
C1137  C1144   1.414   .     A
C1137  C1141   1.409   .     A
C1138  C1142   1.413   .     A
C1139  C1140   1.389   .     A
C1139  C517    1.426   1_556 S
C1139  C507    1.400   1_556 S
C1140  C1141   1.380   .     A
C1141  H1147   1.080   .     S
C1142  H1145   1.074   .     S
C1148  H1218   1.086   .     S
C1148  C1219   1.334   .     S
H1151  C1219   1.086   .     S
C1152  C739    1.340   1_565 S
C1152  N741    1.446   1_565 S
H1154  C739    1.086   1_565 S
N1155  O1157   1.302   .     A
O1156  N741    1.301   1_565 S
O1158  C1159   1.412   .     S
C1159  H1160   1.115   .     S
C1159  H1161   1.114   .     S
C1159  C1162   1.521   .     S
C1162  H1165   1.111   .     S
C1162  H1163   1.111   .     S
C1162  H1164   1.109   .     S
O1166  C1167   1.414   .     S
C1167  H1169   1.112   .     S
C1167  H1168   1.117   .     S
C1167  C135    1.521   1_566 S
C1170  H1172   1.111   .     S
C1170  H1171   1.110   .     S
H1173  C756    1.111   1_565 S
Zn1174 O1178   1.956   .     S
Zn1174 O1186   1.930   .     S
Zn1174 O1187   1.927   .     S
Zn1174 O1180   1.925   .     S
Zn1175 O1189   1.929   .     S
Zn1175 O1178   1.934   .     S
Zn1175 O1181   1.938   .     S
Zn1175 O1183   1.934   .     S
Zn1176 O1182   1.933   .     S
Zn1176 O1185   1.932   .     S
Zn1176 O1190   1.933   .     S
Zn1176 O1178   1.939   .     S
Zn1177 O1184   1.939   .     S
Zn1177 O1188   1.932   .     S
Zn1177 O1179   1.927   .     S
Zn1177 O1178   1.939   .     S
O1179  C1191   1.270   .     A
O1180  C1192   1.279   .     A
O1181  C1193   1.277   .     A
O1182  C1194   1.271   .     A
O1183  C1195   1.267   .     A
O1184  C1196   1.282   .     A
O1185  C1195   1.279   .     A
O1186  C1196   1.286   .     A
O1187  C1193   1.270   .     A
O1188  C1194   1.279   .     A
O1189  C1191   1.269   .     A
O1190  C1192   1.282   .     A
C1191  C1219   1.436   .     S
C1192  C1217   1.453   .     S
C1193  C1222   1.436   .     S
C1194  C1221   1.460   .     S
C1195  C1201   1.454   .     S
C1196  C1213   1.476   .     S
C1197  H1200   1.084   .     S
C1197  C1212   1.385   .     A
H1198  C1212   1.084   .     S
H1199  C1209   1.085   .     S
C1201  C1211   1.392   .     A
C1201  C1212   1.397   .     A
C1202  H1215   1.083   .     S
C1202  C1203   1.398   .     A
C1202  C1213   1.399   .     A
C1203  O1235   1.389   .     S
C1203  C583    1.402   1_556 S
C1204  O1227   1.381   .     S
C1205  C1206   1.425   .     A
C1205  C583    1.432   1_556 S
C1205  C586    1.433   1_556 S
C1206  C1213   1.414   .     A
C1206  C1210   1.409   .     A
C1207  C1211   1.413   .     A
C1208  C1209   1.389   .     A
C1208  C586    1.426   1_556 S
C1208  C576    1.400   1_556 S
C1209  C1210   1.380   .     A
C1210  H1216   1.080   .     S
C1211  H1214   1.074   .     S
C1217  H1080   1.086   1_655 S
C1217  C1081   1.334   1_655 S
H1220  C1081   1.086   1_655 S
C1221  C808    1.340   1_565 S
C1221  N810    1.446   1_565 S
H1223  C808    1.086   1_565 S
N1224  O1226   1.302   .     A
O1225  N810    1.301   1_565 S
O1227  C1228   1.412   .     S
C1228  H1229   1.115   .     S
C1228  H1230   1.114   .     S
C1228  C1231   1.521   .     S
C1231  H1234   1.111   .     S
C1231  H1232   1.111   .     S
C1231  H1233   1.109   .     S
O1235  C1236   1.414   .     S
C1236  H1238   1.112   .     S
C1236  H1237   1.117   .     S
C1236  C204    1.521   1_566 S
C1239  H1241   1.111   .     S
C1239  H1240   1.110   .     S
H1242  C825    1.111   1_565 S
