data_str_m3_o10_o17_pcu_sym.165
_audit_creation_date              2020-01-03
_audit_creation_method            'Materials Studio'
_symmetry_space_group_name_H-M    'P1'
_symmetry_Int_Tables_number       1
_symmetry_cell_setting            triclinic
loop_
_symmetry_equiv_pos_as_xyz
  x,y,z
_cell_length_a                    23.5118
_cell_length_b                    25.7040
_cell_length_c                    29.7844
_cell_angle_alpha                 92.0902
_cell_angle_beta                  84.5668
_cell_angle_gamma                 93.7915
loop_
_atom_site_label
_atom_site_type_symbol
_atom_site_fract_x
_atom_site_fract_y
_atom_site_fract_z
_atom_site_U_iso_or_equiv
_atom_site_adp_type
_atom_site_occupancy
C1     C     0.18163   0.26473   0.24978   0.00000  Uiso   1.00
C2     C     0.15170   0.06860   0.25022   0.00000  Uiso   1.00
C3     C     0.21714   0.25489   0.47746   0.00000  Uiso   1.00
C4     C     0.11619   0.07845   0.02254   0.00000  Uiso   1.00
C5     C     0.18763   0.31932   0.25655   0.00000  Uiso   1.00
C6     C     0.14571   0.01401   0.24345   0.00000  Uiso   1.00
C7     C     0.16685   0.16717   0.33623   0.00000  Uiso   1.00
C8     C     0.16649   0.16617   0.16377   0.00000  Uiso   1.00
C9     C     0.14724   0.11879   0.09326   0.00000  Uiso   1.00
C10    C     0.18609   0.21455   0.40674   0.00000  Uiso   1.00
C11    C     0.16605   0.16432   0.11617   0.00000  Uiso   1.00
C12    C     0.16729   0.16901   0.38383   0.00000  Uiso   1.00
C13    C     0.18487   0.20940   0.09418   0.00000  Uiso   1.00
C14    C     0.14846   0.12394   0.40582   0.00000  Uiso   1.00
C15    C     0.18826   0.21046   0.04748   0.00000  Uiso   1.00
C16    C     0.14506   0.12288   0.45252   0.00000  Uiso   1.00
C17    C     0.16611   0.16611   0.02346   0.00000  Uiso   1.00
C18    C     0.16722   0.16723   0.47654   0.00000  Uiso   1.00
C19    C     0.14244   0.12083   0.04664   0.00000  Uiso   1.00
C20    C     0.19089   0.21251   0.45336   0.00000  Uiso   1.00
C21    C     0.21340   0.25489   0.02482   0.00000  Uiso   1.00
C22    C     0.11993   0.07845   0.47519   0.00000  Uiso   1.00
H23    H     0.19788   0.24326   0.11437   0.00000  Uiso   1.00
H24    H     0.13545   0.09008   0.38563   0.00000  Uiso   1.00
N25    N     0.31678   0.15265   0.23783   0.00000  Uiso   1.00
N26    N     0.01656   0.18068   0.26217   0.00000  Uiso   1.00
O27    O     0.12975   0.24619   0.25299   0.00000  Uiso   1.00
O28    O     0.20358   0.08714   0.24702   0.00000  Uiso   1.00
O29    O     0.22613   0.23721   0.24519   0.00000  Uiso   1.00
O30    O     0.10720   0.09613   0.25482   0.00000  Uiso   1.00
O31    O     0.11847   0.17117   0.31998   0.00000  Uiso   1.00
O32    O     0.21486   0.16216   0.18003   0.00000  Uiso   1.00
O33    O     0.21485   0.16219   0.31218   0.00000  Uiso   1.00
O34    O     0.11848   0.17115   0.18783   0.00000  Uiso   1.00
Zn35   Zn    0.10231   0.17266   0.25521   0.00000  Uiso   1.00
Zn36   Zn    0.23102   0.16067   0.24479   0.00000  Uiso   1.00
O37    O     0.13617   0.07179   0.11487   0.00000  Uiso   1.00
H38    H     0.14947   0.07402   0.14543   0.00000  Uiso   1.00
O39    O     0.19718   0.26154   0.38513   0.00000  Uiso   1.00
H40    H     0.18391   0.25931   0.35456   0.00000  Uiso   1.00
C41    C     0.23976   0.29968   0.05051   0.00000  Uiso   1.00
H42    H     0.26820   0.29276   0.07601   0.00000  Uiso   1.00
O43    O     0.22871   0.01107   0.04415   0.00000  Uiso   1.00
C44    C     0.09357   0.03366   0.44949   0.00000  Uiso   1.00
H45    H     0.06512   0.04058   0.42399   0.00000  Uiso   1.00
O46    O     0.10461   0.32227   0.45585   0.00000  Uiso   1.00
C47    C     0.25470   0.29622   0.45383   0.00000  Uiso   1.00
H48    H     0.24816   0.00380   0.46115   0.00000  Uiso   1.00
O49    O     0.29432   0.28447   0.42664   0.00000  Uiso   1.00
C50    C     0.07862   0.03711   0.04617   0.00000  Uiso   1.00
H51    H     0.08516   0.32954   0.03885   0.00000  Uiso   1.00
O52    O     0.03901   0.04887   0.07337   0.00000  Uiso   1.00
O53    O     0.23063   0.00828   0.28138   0.00000  Uiso   1.00
H54    H     0.25251   0.31382   0.29239   0.00000  Uiso   1.00
O55    O     0.10270   0.32505   0.21862   0.00000  Uiso   1.00
H56    H     0.08080   0.01951   0.20764   0.00000  Uiso   1.00
C57    C     0.00325   0.10444   0.22124   0.00000  Uiso   1.00
H58    H     0.00519   0.07293   0.24418   0.00000  Uiso   1.00
O59    O     0.01470   0.09709   0.18079   0.00000  Uiso   1.00
C60    C     0.33011   0.22892   0.27874   0.00000  Uiso   1.00
H61    H     0.32802   0.26036   0.25576   0.00000  Uiso   1.00
O62    O     0.31890   0.23638   0.31919   0.00000  Uiso   1.00
C63    C     0.51497   0.26473   0.24978   0.00000  Uiso   1.00
C64    C     0.48503   0.06860   0.25022   0.00000  Uiso   1.00
C65    C     0.55047   0.25489   0.47746   0.00000  Uiso   1.00
C66    C     0.44952   0.07845   0.02254   0.00000  Uiso   1.00
C67    C     0.52096   0.31932   0.25655   0.00000  Uiso   1.00
C68    C     0.47904   0.01401   0.24345   0.00000  Uiso   1.00
C69    C     0.50018   0.16717   0.33623   0.00000  Uiso   1.00
C70    C     0.49982   0.16617   0.16377   0.00000  Uiso   1.00
C71    C     0.48058   0.11879   0.09326   0.00000  Uiso   1.00
C72    C     0.51943   0.21455   0.40674   0.00000  Uiso   1.00
C73    C     0.49938   0.16432   0.11617   0.00000  Uiso   1.00
C74    C     0.50062   0.16901   0.38383   0.00000  Uiso   1.00
C75    C     0.51820   0.20940   0.09418   0.00000  Uiso   1.00
C76    C     0.48179   0.12394   0.40582   0.00000  Uiso   1.00
C77    C     0.52160   0.21046   0.04748   0.00000  Uiso   1.00
C78    C     0.47840   0.12288   0.45252   0.00000  Uiso   1.00
C79    C     0.49944   0.16611   0.02346   0.00000  Uiso   1.00
C80    C     0.50055   0.16723   0.47654   0.00000  Uiso   1.00
C81    C     0.47577   0.12083   0.04664   0.00000  Uiso   1.00
C82    C     0.52422   0.21251   0.45336   0.00000  Uiso   1.00
C83    C     0.54673   0.25489   0.02482   0.00000  Uiso   1.00
C84    C     0.45326   0.07845   0.47519   0.00000  Uiso   1.00
H85    H     0.53121   0.24326   0.11437   0.00000  Uiso   1.00
H86    H     0.46878   0.09008   0.38563   0.00000  Uiso   1.00
N87    N     0.65011   0.15265   0.23783   0.00000  Uiso   1.00
N88    N     0.34989   0.18068   0.26217   0.00000  Uiso   1.00
O89    O     0.46308   0.24619   0.25299   0.00000  Uiso   1.00
O90    O     0.53692   0.08714   0.24702   0.00000  Uiso   1.00
O91    O     0.55946   0.23721   0.24519   0.00000  Uiso   1.00
O92    O     0.44054   0.09613   0.25482   0.00000  Uiso   1.00
O93    O     0.45181   0.17117   0.31998   0.00000  Uiso   1.00
O94    O     0.54819   0.16216   0.18003   0.00000  Uiso   1.00
O95    O     0.54819   0.16219   0.31218   0.00000  Uiso   1.00
O96    O     0.45181   0.17115   0.18783   0.00000  Uiso   1.00
Zn97   Zn    0.43565   0.17266   0.25521   0.00000  Uiso   1.00
Zn98   Zn    0.56435   0.16067   0.24479   0.00000  Uiso   1.00
O99    O     0.46950   0.07179   0.11487   0.00000  Uiso   1.00
H100   H     0.48280   0.07402   0.14543   0.00000  Uiso   1.00
O101   O     0.53051   0.26154   0.38513   0.00000  Uiso   1.00
H102   H     0.51725   0.25931   0.35456   0.00000  Uiso   1.00
C103   C     0.57309   0.29968   0.05051   0.00000  Uiso   1.00
H104   H     0.60154   0.29276   0.07601   0.00000  Uiso   1.00
O105   O     0.56204   0.01107   0.04415   0.00000  Uiso   1.00
C106   C     0.42690   0.03366   0.44949   0.00000  Uiso   1.00
H107   H     0.39845   0.04058   0.42399   0.00000  Uiso   1.00
O108   O     0.43794   0.32227   0.45585   0.00000  Uiso   1.00
C109   C     0.58804   0.29622   0.45383   0.00000  Uiso   1.00
H110   H     0.58149   0.00380   0.46115   0.00000  Uiso   1.00
O111   O     0.62766   0.28447   0.42664   0.00000  Uiso   1.00
C112   C     0.41196   0.03711   0.04617   0.00000  Uiso   1.00
H113   H     0.41849   0.32954   0.03885   0.00000  Uiso   1.00
O114   O     0.37234   0.04887   0.07337   0.00000  Uiso   1.00
O115   O     0.56396   0.00828   0.28138   0.00000  Uiso   1.00
H116   H     0.58585   0.31382   0.29239   0.00000  Uiso   1.00
O117   O     0.43603   0.32505   0.21862   0.00000  Uiso   1.00
H118   H     0.41413   0.01951   0.20764   0.00000  Uiso   1.00
C119   C     0.33658   0.10444   0.22124   0.00000  Uiso   1.00
H120   H     0.33852   0.07293   0.24418   0.00000  Uiso   1.00
O121   O     0.34803   0.09709   0.18079   0.00000  Uiso   1.00
C122   C     0.66345   0.22892   0.27874   0.00000  Uiso   1.00
H123   H     0.66136   0.26036   0.25576   0.00000  Uiso   1.00
O124   O     0.65223   0.23638   0.31919   0.00000  Uiso   1.00
C125   C     0.84830   0.26473   0.24978   0.00000  Uiso   1.00
C126   C     0.81837   0.06860   0.25022   0.00000  Uiso   1.00
C127   C     0.88380   0.25489   0.47746   0.00000  Uiso   1.00
C128   C     0.78286   0.07845   0.02254   0.00000  Uiso   1.00
C129   C     0.85429   0.31932   0.25655   0.00000  Uiso   1.00
C130   C     0.81237   0.01401   0.24345   0.00000  Uiso   1.00
C131   C     0.83351   0.16717   0.33623   0.00000  Uiso   1.00
C132   C     0.83315   0.16617   0.16377   0.00000  Uiso   1.00
C133   C     0.81391   0.11879   0.09326   0.00000  Uiso   1.00
C134   C     0.85276   0.21455   0.40674   0.00000  Uiso   1.00
C135   C     0.83271   0.16432   0.11617   0.00000  Uiso   1.00
C136   C     0.83395   0.16901   0.38383   0.00000  Uiso   1.00
C137   C     0.85154   0.20940   0.09418   0.00000  Uiso   1.00
C138   C     0.81512   0.12394   0.40582   0.00000  Uiso   1.00
C139   C     0.85493   0.21046   0.04748   0.00000  Uiso   1.00
C140   C     0.81173   0.12288   0.45252   0.00000  Uiso   1.00
C141   C     0.83278   0.16611   0.02346   0.00000  Uiso   1.00
C142   C     0.83388   0.16723   0.47654   0.00000  Uiso   1.00
C143   C     0.80911   0.12083   0.04664   0.00000  Uiso   1.00
C144   C     0.85755   0.21251   0.45336   0.00000  Uiso   1.00
C145   C     0.88006   0.25489   0.02482   0.00000  Uiso   1.00
C146   C     0.78659   0.07845   0.47519   0.00000  Uiso   1.00
H147   H     0.86454   0.24326   0.11437   0.00000  Uiso   1.00
H148   H     0.80212   0.09008   0.38563   0.00000  Uiso   1.00
N149   N     0.98344   0.15265   0.23783   0.00000  Uiso   1.00
N150   N     0.68322   0.18068   0.26217   0.00000  Uiso   1.00
O151   O     0.79642   0.24619   0.25299   0.00000  Uiso   1.00
O152   O     0.87025   0.08714   0.24702   0.00000  Uiso   1.00
O153   O     0.89280   0.23721   0.24519   0.00000  Uiso   1.00
O154   O     0.77387   0.09613   0.25482   0.00000  Uiso   1.00
O155   O     0.78514   0.17117   0.31998   0.00000  Uiso   1.00
O156   O     0.88153   0.16216   0.18003   0.00000  Uiso   1.00
O157   O     0.88152   0.16219   0.31218   0.00000  Uiso   1.00
O158   O     0.78515   0.17115   0.18783   0.00000  Uiso   1.00
Zn159  Zn    0.76898   0.17266   0.25521   0.00000  Uiso   1.00
Zn160  Zn    0.89769   0.16067   0.24479   0.00000  Uiso   1.00
O161   O     0.80283   0.07179   0.11487   0.00000  Uiso   1.00
H162   H     0.81614   0.07402   0.14543   0.00000  Uiso   1.00
O163   O     0.86384   0.26154   0.38513   0.00000  Uiso   1.00
H164   H     0.85058   0.25931   0.35456   0.00000  Uiso   1.00
C165   C     0.90642   0.29968   0.05051   0.00000  Uiso   1.00
H166   H     0.93487   0.29276   0.07601   0.00000  Uiso   1.00
O167   O     0.89538   0.01107   0.04415   0.00000  Uiso   1.00
C168   C     0.76023   0.03366   0.44949   0.00000  Uiso   1.00
H169   H     0.73178   0.04058   0.42399   0.00000  Uiso   1.00
O170   O     0.77128   0.32227   0.45585   0.00000  Uiso   1.00
C171   C     0.92137   0.29622   0.45383   0.00000  Uiso   1.00
H172   H     0.91483   0.00380   0.46115   0.00000  Uiso   1.00
O173   O     0.96099   0.28447   0.42664   0.00000  Uiso   1.00
C174   C     0.74529   0.03711   0.04617   0.00000  Uiso   1.00
H175   H     0.75183   0.32954   0.03885   0.00000  Uiso   1.00
O176   O     0.70567   0.04887   0.07337   0.00000  Uiso   1.00
O177   O     0.89730   0.00828   0.28138   0.00000  Uiso   1.00
H178   H     0.91918   0.31382   0.29239   0.00000  Uiso   1.00
O179   O     0.76937   0.32505   0.21862   0.00000  Uiso   1.00
H180   H     0.74746   0.01951   0.20764   0.00000  Uiso   1.00
C181   C     0.66991   0.10444   0.22124   0.00000  Uiso   1.00
H182   H     0.67186   0.07293   0.24418   0.00000  Uiso   1.00
O183   O     0.68137   0.09709   0.18079   0.00000  Uiso   1.00
C184   C     0.99678   0.22892   0.27874   0.00000  Uiso   1.00
H185   H     0.99469   0.26036   0.25576   0.00000  Uiso   1.00
O186   O     0.98557   0.23638   0.31919   0.00000  Uiso   1.00
C187   C     0.18163   0.59807   0.24978   0.00000  Uiso   1.00
C188   C     0.15170   0.40193   0.25022   0.00000  Uiso   1.00
C189   C     0.21714   0.58823   0.47746   0.00000  Uiso   1.00
C190   C     0.11619   0.41178   0.02254   0.00000  Uiso   1.00
C191   C     0.18763   0.65265   0.25655   0.00000  Uiso   1.00
C192   C     0.14571   0.34735   0.24345   0.00000  Uiso   1.00
C193   C     0.16685   0.50050   0.33623   0.00000  Uiso   1.00
C194   C     0.16649   0.49950   0.16377   0.00000  Uiso   1.00
C195   C     0.14724   0.45212   0.09326   0.00000  Uiso   1.00
C196   C     0.18609   0.54788   0.40674   0.00000  Uiso   1.00
C197   C     0.16605   0.49766   0.11617   0.00000  Uiso   1.00
C198   C     0.16729   0.50235   0.38383   0.00000  Uiso   1.00
C199   C     0.18487   0.54273   0.09418   0.00000  Uiso   1.00
C200   C     0.14846   0.45727   0.40582   0.00000  Uiso   1.00
C201   C     0.18826   0.54380   0.04748   0.00000  Uiso   1.00
C202   C     0.14506   0.45621   0.45252   0.00000  Uiso   1.00
C203   C     0.16611   0.49944   0.02346   0.00000  Uiso   1.00
C204   C     0.16722   0.50056   0.47654   0.00000  Uiso   1.00
C205   C     0.14244   0.45417   0.04664   0.00000  Uiso   1.00
C206   C     0.19089   0.54584   0.45336   0.00000  Uiso   1.00
C207   C     0.21340   0.58822   0.02482   0.00000  Uiso   1.00
C208   C     0.11993   0.41179   0.47519   0.00000  Uiso   1.00
H209   H     0.19788   0.57659   0.11437   0.00000  Uiso   1.00
H210   H     0.13545   0.42342   0.38563   0.00000  Uiso   1.00
N211   N     0.31678   0.48598   0.23783   0.00000  Uiso   1.00
N212   N     0.01656   0.51402   0.26217   0.00000  Uiso   1.00
O213   O     0.12975   0.57952   0.25299   0.00000  Uiso   1.00
O214   O     0.20358   0.42048   0.24702   0.00000  Uiso   1.00
O215   O     0.22613   0.57054   0.24519   0.00000  Uiso   1.00
O216   O     0.10720   0.42946   0.25482   0.00000  Uiso   1.00
O217   O     0.11847   0.50450   0.31998   0.00000  Uiso   1.00
O218   O     0.21486   0.49550   0.18003   0.00000  Uiso   1.00
O219   O     0.21485   0.49552   0.31218   0.00000  Uiso   1.00
O220   O     0.11848   0.50448   0.18783   0.00000  Uiso   1.00
Zn221  Zn    0.10231   0.50600   0.25521   0.00000  Uiso   1.00
Zn222  Zn    0.23102   0.49400   0.24479   0.00000  Uiso   1.00
O223   O     0.13617   0.40513   0.11487   0.00000  Uiso   1.00
H224   H     0.14947   0.40735   0.14543   0.00000  Uiso   1.00
O225   O     0.19718   0.59488   0.38513   0.00000  Uiso   1.00
H226   H     0.18391   0.59264   0.35456   0.00000  Uiso   1.00
C227   C     0.23976   0.63301   0.05051   0.00000  Uiso   1.00
H228   H     0.26820   0.62610   0.07601   0.00000  Uiso   1.00
O229   O     0.22871   0.34441   0.04415   0.00000  Uiso   1.00
C230   C     0.09357   0.36700   0.44949   0.00000  Uiso   1.00
H231   H     0.06512   0.37391   0.42399   0.00000  Uiso   1.00
O232   O     0.10461   0.65560   0.45585   0.00000  Uiso   1.00
C233   C     0.25470   0.62956   0.45383   0.00000  Uiso   1.00
H234   H     0.24816   0.33713   0.46115   0.00000  Uiso   1.00
O235   O     0.29432   0.61780   0.42664   0.00000  Uiso   1.00
C236   C     0.07862   0.37045   0.04617   0.00000  Uiso   1.00
H237   H     0.08516   0.66287   0.03885   0.00000  Uiso   1.00
O238   O     0.03901   0.38220   0.07337   0.00000  Uiso   1.00
O239   O     0.23063   0.34162   0.28138   0.00000  Uiso   1.00
H240   H     0.25251   0.64716   0.29239   0.00000  Uiso   1.00
O241   O     0.10270   0.65838   0.21862   0.00000  Uiso   1.00
H242   H     0.08080   0.35284   0.20764   0.00000  Uiso   1.00
C243   C     0.00325   0.43777   0.22124   0.00000  Uiso   1.00
H244   H     0.00519   0.40626   0.24418   0.00000  Uiso   1.00
O245   O     0.01470   0.43042   0.18079   0.00000  Uiso   1.00
C246   C     0.33011   0.56225   0.27874   0.00000  Uiso   1.00
H247   H     0.32802   0.59369   0.25576   0.00000  Uiso   1.00
O248   O     0.31890   0.56971   0.31919   0.00000  Uiso   1.00
C249   C     0.51497   0.59807   0.24978   0.00000  Uiso   1.00
C250   C     0.48503   0.40193   0.25022   0.00000  Uiso   1.00
C251   C     0.55047   0.58823   0.47746   0.00000  Uiso   1.00
C252   C     0.44952   0.41178   0.02254   0.00000  Uiso   1.00
C253   C     0.52096   0.65265   0.25655   0.00000  Uiso   1.00
C254   C     0.47904   0.34735   0.24345   0.00000  Uiso   1.00
C255   C     0.50018   0.50050   0.33623   0.00000  Uiso   1.00
C256   C     0.49982   0.49950   0.16377   0.00000  Uiso   1.00
C257   C     0.48058   0.45212   0.09326   0.00000  Uiso   1.00
C258   C     0.51943   0.54788   0.40674   0.00000  Uiso   1.00
C259   C     0.49938   0.49766   0.11617   0.00000  Uiso   1.00
C260   C     0.50062   0.50235   0.38383   0.00000  Uiso   1.00
C261   C     0.51820   0.54273   0.09418   0.00000  Uiso   1.00
C262   C     0.48179   0.45727   0.40582   0.00000  Uiso   1.00
C263   C     0.52160   0.54380   0.04748   0.00000  Uiso   1.00
C264   C     0.47840   0.45621   0.45252   0.00000  Uiso   1.00
C265   C     0.49944   0.49944   0.02346   0.00000  Uiso   1.00
C266   C     0.50055   0.50056   0.47654   0.00000  Uiso   1.00
C267   C     0.47577   0.45417   0.04664   0.00000  Uiso   1.00
C268   C     0.52422   0.54584   0.45336   0.00000  Uiso   1.00
C269   C     0.54673   0.58822   0.02482   0.00000  Uiso   1.00
C270   C     0.45326   0.41179   0.47519   0.00000  Uiso   1.00
H271   H     0.53121   0.57659   0.11437   0.00000  Uiso   1.00
H272   H     0.46878   0.42342   0.38563   0.00000  Uiso   1.00
N273   N     0.65011   0.48598   0.23783   0.00000  Uiso   1.00
N274   N     0.34989   0.51402   0.26217   0.00000  Uiso   1.00
O275   O     0.46308   0.57952   0.25299   0.00000  Uiso   1.00
O276   O     0.53692   0.42048   0.24702   0.00000  Uiso   1.00
O277   O     0.55946   0.57054   0.24519   0.00000  Uiso   1.00
O278   O     0.44054   0.42946   0.25482   0.00000  Uiso   1.00
O279   O     0.45181   0.50450   0.31998   0.00000  Uiso   1.00
O280   O     0.54819   0.49550   0.18003   0.00000  Uiso   1.00
O281   O     0.54819   0.49552   0.31218   0.00000  Uiso   1.00
O282   O     0.45181   0.50448   0.18783   0.00000  Uiso   1.00
Zn283  Zn    0.43565   0.50600   0.25521   0.00000  Uiso   1.00
Zn284  Zn    0.56435   0.49400   0.24479   0.00000  Uiso   1.00
O285   O     0.46950   0.40513   0.11487   0.00000  Uiso   1.00
H286   H     0.48280   0.40735   0.14543   0.00000  Uiso   1.00
O287   O     0.53051   0.59488   0.38513   0.00000  Uiso   1.00
H288   H     0.51725   0.59264   0.35456   0.00000  Uiso   1.00
C289   C     0.57309   0.63301   0.05051   0.00000  Uiso   1.00
H290   H     0.60154   0.62610   0.07601   0.00000  Uiso   1.00
O291   O     0.56204   0.34441   0.04415   0.00000  Uiso   1.00
C292   C     0.42690   0.36700   0.44949   0.00000  Uiso   1.00
H293   H     0.39845   0.37391   0.42399   0.00000  Uiso   1.00
O294   O     0.43794   0.65560   0.45585   0.00000  Uiso   1.00
C295   C     0.58804   0.62956   0.45383   0.00000  Uiso   1.00
H296   H     0.58149   0.33713   0.46115   0.00000  Uiso   1.00
O297   O     0.62766   0.61780   0.42664   0.00000  Uiso   1.00
C298   C     0.41196   0.37045   0.04617   0.00000  Uiso   1.00
H299   H     0.41849   0.66287   0.03885   0.00000  Uiso   1.00
O300   O     0.37234   0.38220   0.07337   0.00000  Uiso   1.00
O301   O     0.56396   0.34162   0.28138   0.00000  Uiso   1.00
H302   H     0.58585   0.64716   0.29239   0.00000  Uiso   1.00
O303   O     0.43603   0.65838   0.21862   0.00000  Uiso   1.00
H304   H     0.41413   0.35284   0.20764   0.00000  Uiso   1.00
C305   C     0.33658   0.43777   0.22124   0.00000  Uiso   1.00
H306   H     0.33852   0.40626   0.24418   0.00000  Uiso   1.00
O307   O     0.34803   0.43042   0.18079   0.00000  Uiso   1.00
C308   C     0.66345   0.56225   0.27874   0.00000  Uiso   1.00
H309   H     0.66136   0.59369   0.25576   0.00000  Uiso   1.00
O310   O     0.65223   0.56971   0.31919   0.00000  Uiso   1.00
C311   C     0.84830   0.59807   0.24978   0.00000  Uiso   1.00
C312   C     0.81837   0.40193   0.25022   0.00000  Uiso   1.00
C313   C     0.88380   0.58823   0.47746   0.00000  Uiso   1.00
C314   C     0.78286   0.41178   0.02254   0.00000  Uiso   1.00
C315   C     0.85429   0.65265   0.25655   0.00000  Uiso   1.00
C316   C     0.81237   0.34735   0.24345   0.00000  Uiso   1.00
C317   C     0.83351   0.50050   0.33623   0.00000  Uiso   1.00
C318   C     0.83315   0.49950   0.16377   0.00000  Uiso   1.00
C319   C     0.81391   0.45212   0.09326   0.00000  Uiso   1.00
C320   C     0.85276   0.54788   0.40674   0.00000  Uiso   1.00
C321   C     0.83271   0.49766   0.11617   0.00000  Uiso   1.00
C322   C     0.83395   0.50235   0.38383   0.00000  Uiso   1.00
C323   C     0.85154   0.54273   0.09418   0.00000  Uiso   1.00
C324   C     0.81512   0.45727   0.40582   0.00000  Uiso   1.00
C325   C     0.85493   0.54380   0.04748   0.00000  Uiso   1.00
C326   C     0.81173   0.45621   0.45252   0.00000  Uiso   1.00
C327   C     0.83278   0.49944   0.02346   0.00000  Uiso   1.00
C328   C     0.83388   0.50056   0.47654   0.00000  Uiso   1.00
C329   C     0.80911   0.45417   0.04664   0.00000  Uiso   1.00
C330   C     0.85755   0.54584   0.45336   0.00000  Uiso   1.00
C331   C     0.88006   0.58822   0.02482   0.00000  Uiso   1.00
C332   C     0.78659   0.41179   0.47519   0.00000  Uiso   1.00
H333   H     0.86454   0.57659   0.11437   0.00000  Uiso   1.00
H334   H     0.80212   0.42342   0.38563   0.00000  Uiso   1.00
N335   N     0.98344   0.48598   0.23783   0.00000  Uiso   1.00
N336   N     0.68322   0.51402   0.26217   0.00000  Uiso   1.00
O337   O     0.79642   0.57952   0.25299   0.00000  Uiso   1.00
O338   O     0.87025   0.42048   0.24702   0.00000  Uiso   1.00
O339   O     0.89280   0.57054   0.24519   0.00000  Uiso   1.00
O340   O     0.77387   0.42946   0.25482   0.00000  Uiso   1.00
O341   O     0.78514   0.50450   0.31998   0.00000  Uiso   1.00
O342   O     0.88153   0.49550   0.18003   0.00000  Uiso   1.00
O343   O     0.88152   0.49552   0.31218   0.00000  Uiso   1.00
O344   O     0.78515   0.50448   0.18783   0.00000  Uiso   1.00
Zn345  Zn    0.76898   0.50600   0.25521   0.00000  Uiso   1.00
Zn346  Zn    0.89769   0.49400   0.24479   0.00000  Uiso   1.00
O347   O     0.80283   0.40513   0.11487   0.00000  Uiso   1.00
H348   H     0.81614   0.40735   0.14543   0.00000  Uiso   1.00
O349   O     0.86384   0.59488   0.38513   0.00000  Uiso   1.00
H350   H     0.85058   0.59264   0.35456   0.00000  Uiso   1.00
C351   C     0.90642   0.63301   0.05051   0.00000  Uiso   1.00
H352   H     0.93487   0.62610   0.07601   0.00000  Uiso   1.00
O353   O     0.89538   0.34441   0.04415   0.00000  Uiso   1.00
C354   C     0.76023   0.36700   0.44949   0.00000  Uiso   1.00
H355   H     0.73178   0.37391   0.42399   0.00000  Uiso   1.00
O356   O     0.77128   0.65560   0.45585   0.00000  Uiso   1.00
C357   C     0.92137   0.62956   0.45383   0.00000  Uiso   1.00
H358   H     0.91483   0.33713   0.46115   0.00000  Uiso   1.00
O359   O     0.96099   0.61780   0.42664   0.00000  Uiso   1.00
C360   C     0.74529   0.37045   0.04617   0.00000  Uiso   1.00
H361   H     0.75183   0.66287   0.03885   0.00000  Uiso   1.00
O362   O     0.70567   0.38220   0.07337   0.00000  Uiso   1.00
O363   O     0.89730   0.34162   0.28138   0.00000  Uiso   1.00
H364   H     0.91918   0.64716   0.29239   0.00000  Uiso   1.00
O365   O     0.76937   0.65838   0.21862   0.00000  Uiso   1.00
H366   H     0.74746   0.35284   0.20764   0.00000  Uiso   1.00
C367   C     0.66991   0.43777   0.22124   0.00000  Uiso   1.00
H368   H     0.67186   0.40626   0.24418   0.00000  Uiso   1.00
O369   O     0.68137   0.43042   0.18079   0.00000  Uiso   1.00
C370   C     0.99678   0.56225   0.27874   0.00000  Uiso   1.00
H371   H     0.99469   0.59369   0.25576   0.00000  Uiso   1.00
O372   O     0.98557   0.56971   0.31919   0.00000  Uiso   1.00
C373   C     0.18163   0.93140   0.24978   0.00000  Uiso   1.00
C374   C     0.15170   0.73527   0.25022   0.00000  Uiso   1.00
C375   C     0.21714   0.92156   0.47746   0.00000  Uiso   1.00
C376   C     0.11619   0.74511   0.02254   0.00000  Uiso   1.00
C377   C     0.18763   0.98599   0.25655   0.00000  Uiso   1.00
C378   C     0.14571   0.68068   0.24345   0.00000  Uiso   1.00
C379   C     0.16685   0.83383   0.33623   0.00000  Uiso   1.00
C380   C     0.16649   0.83283   0.16377   0.00000  Uiso   1.00
C381   C     0.14724   0.78545   0.09326   0.00000  Uiso   1.00
C382   C     0.18609   0.88122   0.40674   0.00000  Uiso   1.00
C383   C     0.16605   0.83099   0.11617   0.00000  Uiso   1.00
C384   C     0.16729   0.83568   0.38383   0.00000  Uiso   1.00
C385   C     0.18487   0.87606   0.09418   0.00000  Uiso   1.00
C386   C     0.14846   0.79061   0.40582   0.00000  Uiso   1.00
C387   C     0.18826   0.87713   0.04748   0.00000  Uiso   1.00
C388   C     0.14506   0.78954   0.45252   0.00000  Uiso   1.00
C389   C     0.16611   0.83278   0.02346   0.00000  Uiso   1.00
C390   C     0.16722   0.83390   0.47654   0.00000  Uiso   1.00
C391   C     0.14244   0.78750   0.04664   0.00000  Uiso   1.00
C392   C     0.19089   0.87917   0.45336   0.00000  Uiso   1.00
C393   C     0.21340   0.92155   0.02482   0.00000  Uiso   1.00
C394   C     0.11993   0.74512   0.47519   0.00000  Uiso   1.00
H395   H     0.19788   0.90992   0.11437   0.00000  Uiso   1.00
H396   H     0.13545   0.75675   0.38563   0.00000  Uiso   1.00
N397   N     0.31678   0.81932   0.23783   0.00000  Uiso   1.00
N398   N     0.01656   0.84735   0.26217   0.00000  Uiso   1.00
O399   O     0.12975   0.91286   0.25299   0.00000  Uiso   1.00
O400   O     0.20358   0.75381   0.24702   0.00000  Uiso   1.00
O401   O     0.22613   0.90387   0.24519   0.00000  Uiso   1.00
O402   O     0.10720   0.76279   0.25482   0.00000  Uiso   1.00
O403   O     0.11847   0.83784   0.31998   0.00000  Uiso   1.00
O404   O     0.21486   0.82883   0.18003   0.00000  Uiso   1.00
O405   O     0.21485   0.82885   0.31218   0.00000  Uiso   1.00
O406   O     0.11848   0.83781   0.18783   0.00000  Uiso   1.00
Zn407  Zn    0.10231   0.83933   0.25521   0.00000  Uiso   1.00
Zn408  Zn    0.23102   0.82734   0.24479   0.00000  Uiso   1.00
O409   O     0.13617   0.73846   0.11487   0.00000  Uiso   1.00
H410   H     0.14947   0.74069   0.14543   0.00000  Uiso   1.00
O411   O     0.19718   0.92821   0.38513   0.00000  Uiso   1.00
H412   H     0.18391   0.92597   0.35456   0.00000  Uiso   1.00
C413   C     0.23976   0.96634   0.05051   0.00000  Uiso   1.00
H414   H     0.26820   0.95943   0.07601   0.00000  Uiso   1.00
O415   O     0.22871   0.67774   0.04415   0.00000  Uiso   1.00
C416   C     0.09357   0.70033   0.44949   0.00000  Uiso   1.00
H417   H     0.06512   0.70725   0.42399   0.00000  Uiso   1.00
O418   O     0.10461   0.98893   0.45585   0.00000  Uiso   1.00
C419   C     0.25470   0.96289   0.45383   0.00000  Uiso   1.00
H420   H     0.24816   0.67047   0.46115   0.00000  Uiso   1.00
O421   O     0.29432   0.95114   0.42664   0.00000  Uiso   1.00
C422   C     0.07862   0.70378   0.04617   0.00000  Uiso   1.00
H423   H     0.08516   0.99621   0.03885   0.00000  Uiso   1.00
O424   O     0.03901   0.71554   0.07337   0.00000  Uiso   1.00
O425   O     0.23063   0.67495   0.28138   0.00000  Uiso   1.00
H426   H     0.25251   0.98049   0.29239   0.00000  Uiso   1.00
O427   O     0.10270   0.99172   0.21862   0.00000  Uiso   1.00
H428   H     0.08080   0.68618   0.20764   0.00000  Uiso   1.00
C429   C     0.00325   0.77110   0.22124   0.00000  Uiso   1.00
H430   H     0.00519   0.73959   0.24418   0.00000  Uiso   1.00
O431   O     0.01470   0.76375   0.18079   0.00000  Uiso   1.00
C432   C     0.33011   0.89559   0.27874   0.00000  Uiso   1.00
H433   H     0.32802   0.92702   0.25576   0.00000  Uiso   1.00
O434   O     0.31890   0.90305   0.31919   0.00000  Uiso   1.00
C435   C     0.51497   0.93140   0.24978   0.00000  Uiso   1.00
C436   C     0.48503   0.73527   0.25022   0.00000  Uiso   1.00
C437   C     0.55047   0.92156   0.47746   0.00000  Uiso   1.00
C438   C     0.44952   0.74511   0.02254   0.00000  Uiso   1.00
C439   C     0.52096   0.98599   0.25655   0.00000  Uiso   1.00
C440   C     0.47904   0.68068   0.24345   0.00000  Uiso   1.00
C441   C     0.50018   0.83383   0.33623   0.00000  Uiso   1.00
C442   C     0.49982   0.83283   0.16377   0.00000  Uiso   1.00
C443   C     0.48058   0.78545   0.09326   0.00000  Uiso   1.00
C444   C     0.51943   0.88122   0.40674   0.00000  Uiso   1.00
C445   C     0.49938   0.83099   0.11617   0.00000  Uiso   1.00
C446   C     0.50062   0.83568   0.38383   0.00000  Uiso   1.00
C447   C     0.51820   0.87606   0.09418   0.00000  Uiso   1.00
C448   C     0.48179   0.79061   0.40582   0.00000  Uiso   1.00
C449   C     0.52160   0.87713   0.04748   0.00000  Uiso   1.00
C450   C     0.47840   0.78954   0.45252   0.00000  Uiso   1.00
C451   C     0.49944   0.83278   0.02346   0.00000  Uiso   1.00
C452   C     0.50055   0.83390   0.47654   0.00000  Uiso   1.00
C453   C     0.47577   0.78750   0.04664   0.00000  Uiso   1.00
C454   C     0.52422   0.87917   0.45336   0.00000  Uiso   1.00
C455   C     0.54673   0.92155   0.02482   0.00000  Uiso   1.00
C456   C     0.45326   0.74512   0.47519   0.00000  Uiso   1.00
H457   H     0.53121   0.90992   0.11437   0.00000  Uiso   1.00
H458   H     0.46878   0.75675   0.38563   0.00000  Uiso   1.00
N459   N     0.65011   0.81932   0.23783   0.00000  Uiso   1.00
N460   N     0.34989   0.84735   0.26217   0.00000  Uiso   1.00
O461   O     0.46308   0.91286   0.25299   0.00000  Uiso   1.00
O462   O     0.53692   0.75381   0.24702   0.00000  Uiso   1.00
O463   O     0.55946   0.90387   0.24519   0.00000  Uiso   1.00
O464   O     0.44054   0.76279   0.25482   0.00000  Uiso   1.00
O465   O     0.45181   0.83784   0.31998   0.00000  Uiso   1.00
O466   O     0.54819   0.82883   0.18003   0.00000  Uiso   1.00
O467   O     0.54819   0.82885   0.31218   0.00000  Uiso   1.00
O468   O     0.45181   0.83781   0.18783   0.00000  Uiso   1.00
Zn469  Zn    0.43565   0.83933   0.25521   0.00000  Uiso   1.00
Zn470  Zn    0.56435   0.82734   0.24479   0.00000  Uiso   1.00
O471   O     0.46950   0.73846   0.11487   0.00000  Uiso   1.00
H472   H     0.48280   0.74069   0.14543   0.00000  Uiso   1.00
O473   O     0.53051   0.92821   0.38513   0.00000  Uiso   1.00
H474   H     0.51725   0.92597   0.35456   0.00000  Uiso   1.00
C475   C     0.57309   0.96634   0.05051   0.00000  Uiso   1.00
H476   H     0.60154   0.95943   0.07601   0.00000  Uiso   1.00
O477   O     0.56204   0.67774   0.04415   0.00000  Uiso   1.00
C478   C     0.42690   0.70033   0.44949   0.00000  Uiso   1.00
H479   H     0.39845   0.70725   0.42399   0.00000  Uiso   1.00
O480   O     0.43794   0.98893   0.45585   0.00000  Uiso   1.00
C481   C     0.58804   0.96289   0.45383   0.00000  Uiso   1.00
H482   H     0.58149   0.67047   0.46115   0.00000  Uiso   1.00
O483   O     0.62766   0.95114   0.42664   0.00000  Uiso   1.00
C484   C     0.41196   0.70378   0.04617   0.00000  Uiso   1.00
H485   H     0.41849   0.99621   0.03885   0.00000  Uiso   1.00
O486   O     0.37234   0.71554   0.07337   0.00000  Uiso   1.00
O487   O     0.56396   0.67495   0.28138   0.00000  Uiso   1.00
H488   H     0.58585   0.98049   0.29239   0.00000  Uiso   1.00
O489   O     0.43603   0.99172   0.21862   0.00000  Uiso   1.00
H490   H     0.41413   0.68618   0.20764   0.00000  Uiso   1.00
C491   C     0.33658   0.77110   0.22124   0.00000  Uiso   1.00
H492   H     0.33852   0.73959   0.24418   0.00000  Uiso   1.00
O493   O     0.34803   0.76375   0.18079   0.00000  Uiso   1.00
C494   C     0.66345   0.89559   0.27874   0.00000  Uiso   1.00
H495   H     0.66136   0.92702   0.25576   0.00000  Uiso   1.00
O496   O     0.65223   0.90305   0.31919   0.00000  Uiso   1.00
C497   C     0.84830   0.93140   0.24978   0.00000  Uiso   1.00
C498   C     0.81837   0.73527   0.25022   0.00000  Uiso   1.00
C499   C     0.88380   0.92156   0.47746   0.00000  Uiso   1.00
C500   C     0.78286   0.74511   0.02254   0.00000  Uiso   1.00
C501   C     0.85429   0.98599   0.25655   0.00000  Uiso   1.00
C502   C     0.81237   0.68068   0.24345   0.00000  Uiso   1.00
C503   C     0.83351   0.83383   0.33623   0.00000  Uiso   1.00
C504   C     0.83315   0.83283   0.16377   0.00000  Uiso   1.00
C505   C     0.81391   0.78545   0.09326   0.00000  Uiso   1.00
C506   C     0.85276   0.88122   0.40674   0.00000  Uiso   1.00
C507   C     0.83271   0.83099   0.11617   0.00000  Uiso   1.00
C508   C     0.83395   0.83568   0.38383   0.00000  Uiso   1.00
C509   C     0.85154   0.87606   0.09418   0.00000  Uiso   1.00
C510   C     0.81512   0.79061   0.40582   0.00000  Uiso   1.00
C511   C     0.85493   0.87713   0.04748   0.00000  Uiso   1.00
C512   C     0.81173   0.78954   0.45252   0.00000  Uiso   1.00
C513   C     0.83278   0.83278   0.02346   0.00000  Uiso   1.00
C514   C     0.83388   0.83390   0.47654   0.00000  Uiso   1.00
C515   C     0.80911   0.78750   0.04664   0.00000  Uiso   1.00
C516   C     0.85755   0.87917   0.45336   0.00000  Uiso   1.00
C517   C     0.88006   0.92155   0.02482   0.00000  Uiso   1.00
C518   C     0.78659   0.74512   0.47519   0.00000  Uiso   1.00
H519   H     0.86454   0.90992   0.11437   0.00000  Uiso   1.00
H520   H     0.80212   0.75675   0.38563   0.00000  Uiso   1.00
N521   N     0.98344   0.81932   0.23783   0.00000  Uiso   1.00
N522   N     0.68322   0.84735   0.26217   0.00000  Uiso   1.00
O523   O     0.79642   0.91286   0.25299   0.00000  Uiso   1.00
O524   O     0.87025   0.75381   0.24702   0.00000  Uiso   1.00
O525   O     0.89280   0.90387   0.24519   0.00000  Uiso   1.00
O526   O     0.77387   0.76279   0.25482   0.00000  Uiso   1.00
O527   O     0.78514   0.83784   0.31998   0.00000  Uiso   1.00
O528   O     0.88153   0.82883   0.18003   0.00000  Uiso   1.00
O529   O     0.88152   0.82885   0.31218   0.00000  Uiso   1.00
O530   O     0.78515   0.83781   0.18783   0.00000  Uiso   1.00
Zn531  Zn    0.76898   0.83933   0.25521   0.00000  Uiso   1.00
Zn532  Zn    0.89769   0.82734   0.24479   0.00000  Uiso   1.00
O533   O     0.80283   0.73846   0.11487   0.00000  Uiso   1.00
H534   H     0.81614   0.74069   0.14543   0.00000  Uiso   1.00
O535   O     0.86384   0.92821   0.38513   0.00000  Uiso   1.00
H536   H     0.85058   0.92597   0.35456   0.00000  Uiso   1.00
C537   C     0.90642   0.96634   0.05051   0.00000  Uiso   1.00
H538   H     0.93487   0.95943   0.07601   0.00000  Uiso   1.00
O539   O     0.89538   0.67774   0.04415   0.00000  Uiso   1.00
C540   C     0.76023   0.70033   0.44949   0.00000  Uiso   1.00
H541   H     0.73178   0.70725   0.42399   0.00000  Uiso   1.00
O542   O     0.77128   0.98893   0.45585   0.00000  Uiso   1.00
C543   C     0.92137   0.96289   0.45383   0.00000  Uiso   1.00
H544   H     0.91483   0.67047   0.46115   0.00000  Uiso   1.00
O545   O     0.96099   0.95114   0.42664   0.00000  Uiso   1.00
C546   C     0.74529   0.70378   0.04617   0.00000  Uiso   1.00
H547   H     0.75183   0.99621   0.03885   0.00000  Uiso   1.00
O548   O     0.70567   0.71554   0.07337   0.00000  Uiso   1.00
O549   O     0.89730   0.67495   0.28138   0.00000  Uiso   1.00
H550   H     0.91918   0.98049   0.29239   0.00000  Uiso   1.00
O551   O     0.76937   0.99172   0.21862   0.00000  Uiso   1.00
H552   H     0.74746   0.68618   0.20764   0.00000  Uiso   1.00
C553   C     0.66991   0.77110   0.22124   0.00000  Uiso   1.00
H554   H     0.67186   0.73959   0.24418   0.00000  Uiso   1.00
O555   O     0.68137   0.76375   0.18079   0.00000  Uiso   1.00
C556   C     0.99678   0.89559   0.27874   0.00000  Uiso   1.00
H557   H     0.99469   0.92702   0.25576   0.00000  Uiso   1.00
O558   O     0.98557   0.90305   0.31919   0.00000  Uiso   1.00
C559   C     0.18163   0.26473   0.74978   0.00000  Uiso   1.00
C560   C     0.15170   0.06860   0.75022   0.00000  Uiso   1.00
C561   C     0.21714   0.25489   0.97746   0.00000  Uiso   1.00
C562   C     0.11619   0.07845   0.52254   0.00000  Uiso   1.00
C563   C     0.18763   0.31932   0.75655   0.00000  Uiso   1.00
C564   C     0.14571   0.01401   0.74345   0.00000  Uiso   1.00
C565   C     0.16685   0.16717   0.83623   0.00000  Uiso   1.00
C566   C     0.16649   0.16617   0.66377   0.00000  Uiso   1.00
C567   C     0.14724   0.11879   0.59326   0.00000  Uiso   1.00
C568   C     0.18609   0.21455   0.90674   0.00000  Uiso   1.00
C569   C     0.16605   0.16432   0.61617   0.00000  Uiso   1.00
C570   C     0.16729   0.16901   0.88383   0.00000  Uiso   1.00
C571   C     0.18487   0.20940   0.59418   0.00000  Uiso   1.00
C572   C     0.14846   0.12394   0.90582   0.00000  Uiso   1.00
C573   C     0.18826   0.21046   0.54748   0.00000  Uiso   1.00
C574   C     0.14506   0.12288   0.95252   0.00000  Uiso   1.00
C575   C     0.16611   0.16611   0.52346   0.00000  Uiso   1.00
C576   C     0.16722   0.16723   0.97654   0.00000  Uiso   1.00
C577   C     0.14244   0.12083   0.54664   0.00000  Uiso   1.00
C578   C     0.19089   0.21251   0.95336   0.00000  Uiso   1.00
C579   C     0.21340   0.25489   0.52482   0.00000  Uiso   1.00
C580   C     0.11993   0.07845   0.97519   0.00000  Uiso   1.00
H581   H     0.19788   0.24326   0.61437   0.00000  Uiso   1.00
H582   H     0.13545   0.09008   0.88563   0.00000  Uiso   1.00
N583   N     0.31678   0.15265   0.73783   0.00000  Uiso   1.00
N584   N     0.01656   0.18068   0.76217   0.00000  Uiso   1.00
O585   O     0.12975   0.24619   0.75299   0.00000  Uiso   1.00
O586   O     0.20358   0.08714   0.74702   0.00000  Uiso   1.00
O587   O     0.22613   0.23721   0.74519   0.00000  Uiso   1.00
O588   O     0.10720   0.09613   0.75482   0.00000  Uiso   1.00
O589   O     0.11847   0.17117   0.81998   0.00000  Uiso   1.00
O590   O     0.21486   0.16216   0.68003   0.00000  Uiso   1.00
O591   O     0.21485   0.16219   0.81218   0.00000  Uiso   1.00
O592   O     0.11848   0.17115   0.68783   0.00000  Uiso   1.00
Zn593  Zn    0.10231   0.17266   0.75521   0.00000  Uiso   1.00
Zn594  Zn    0.23102   0.16067   0.74479   0.00000  Uiso   1.00
O595   O     0.13617   0.07179   0.61487   0.00000  Uiso   1.00
H596   H     0.14947   0.07402   0.64543   0.00000  Uiso   1.00
O597   O     0.19718   0.26154   0.88513   0.00000  Uiso   1.00
H598   H     0.18391   0.25931   0.85456   0.00000  Uiso   1.00
C599   C     0.23976   0.29968   0.55051   0.00000  Uiso   1.00
H600   H     0.26820   0.29276   0.57601   0.00000  Uiso   1.00
O601   O     0.22871   0.01107   0.54415   0.00000  Uiso   1.00
C602   C     0.09357   0.03366   0.94949   0.00000  Uiso   1.00
H603   H     0.06512   0.04058   0.92399   0.00000  Uiso   1.00
O604   O     0.10461   0.32227   0.95585   0.00000  Uiso   1.00
C605   C     0.25470   0.29622   0.95383   0.00000  Uiso   1.00
H606   H     0.24816   0.00380   0.96115   0.00000  Uiso   1.00
O607   O     0.29432   0.28447   0.92664   0.00000  Uiso   1.00
C608   C     0.07862   0.03711   0.54617   0.00000  Uiso   1.00
H609   H     0.08516   0.32954   0.53885   0.00000  Uiso   1.00
O610   O     0.03901   0.04887   0.57337   0.00000  Uiso   1.00
O611   O     0.23063   0.00828   0.78138   0.00000  Uiso   1.00
H612   H     0.25251   0.31382   0.79239   0.00000  Uiso   1.00
O613   O     0.10270   0.32505   0.71862   0.00000  Uiso   1.00
H614   H     0.08080   0.01951   0.70764   0.00000  Uiso   1.00
C615   C     0.00325   0.10444   0.72124   0.00000  Uiso   1.00
H616   H     0.00519   0.07293   0.74418   0.00000  Uiso   1.00
O617   O     0.01470   0.09709   0.68079   0.00000  Uiso   1.00
C618   C     0.33011   0.22892   0.77874   0.00000  Uiso   1.00
H619   H     0.32802   0.26036   0.75576   0.00000  Uiso   1.00
O620   O     0.31890   0.23638   0.81919   0.00000  Uiso   1.00
C621   C     0.51497   0.26473   0.74978   0.00000  Uiso   1.00
C622   C     0.48503   0.06860   0.75022   0.00000  Uiso   1.00
C623   C     0.55047   0.25489   0.97746   0.00000  Uiso   1.00
C624   C     0.44952   0.07845   0.52254   0.00000  Uiso   1.00
C625   C     0.52096   0.31932   0.75655   0.00000  Uiso   1.00
C626   C     0.47904   0.01401   0.74345   0.00000  Uiso   1.00
C627   C     0.50018   0.16717   0.83623   0.00000  Uiso   1.00
C628   C     0.49982   0.16617   0.66377   0.00000  Uiso   1.00
C629   C     0.48058   0.11879   0.59326   0.00000  Uiso   1.00
C630   C     0.51943   0.21455   0.90674   0.00000  Uiso   1.00
C631   C     0.49938   0.16432   0.61617   0.00000  Uiso   1.00
C632   C     0.50062   0.16901   0.88383   0.00000  Uiso   1.00
C633   C     0.51820   0.20940   0.59418   0.00000  Uiso   1.00
C634   C     0.48179   0.12394   0.90582   0.00000  Uiso   1.00
C635   C     0.52160   0.21046   0.54748   0.00000  Uiso   1.00
C636   C     0.47840   0.12288   0.95252   0.00000  Uiso   1.00
C637   C     0.49944   0.16611   0.52346   0.00000  Uiso   1.00
C638   C     0.50055   0.16723   0.97654   0.00000  Uiso   1.00
C639   C     0.47577   0.12083   0.54664   0.00000  Uiso   1.00
C640   C     0.52422   0.21251   0.95336   0.00000  Uiso   1.00
C641   C     0.54673   0.25489   0.52482   0.00000  Uiso   1.00
C642   C     0.45326   0.07845   0.97519   0.00000  Uiso   1.00
H643   H     0.53121   0.24326   0.61437   0.00000  Uiso   1.00
H644   H     0.46878   0.09008   0.88563   0.00000  Uiso   1.00
N645   N     0.65011   0.15265   0.73783   0.00000  Uiso   1.00
N646   N     0.34989   0.18068   0.76217   0.00000  Uiso   1.00
O647   O     0.46308   0.24619   0.75299   0.00000  Uiso   1.00
O648   O     0.53692   0.08714   0.74702   0.00000  Uiso   1.00
O649   O     0.55946   0.23721   0.74519   0.00000  Uiso   1.00
O650   O     0.44054   0.09613   0.75482   0.00000  Uiso   1.00
O651   O     0.45181   0.17117   0.81998   0.00000  Uiso   1.00
O652   O     0.54819   0.16216   0.68003   0.00000  Uiso   1.00
O653   O     0.54819   0.16219   0.81218   0.00000  Uiso   1.00
O654   O     0.45181   0.17115   0.68783   0.00000  Uiso   1.00
Zn655  Zn    0.43565   0.17266   0.75521   0.00000  Uiso   1.00
Zn656  Zn    0.56435   0.16067   0.74479   0.00000  Uiso   1.00
O657   O     0.46950   0.07179   0.61487   0.00000  Uiso   1.00
H658   H     0.48280   0.07402   0.64543   0.00000  Uiso   1.00
O659   O     0.53051   0.26154   0.88513   0.00000  Uiso   1.00
H660   H     0.51725   0.25931   0.85456   0.00000  Uiso   1.00
C661   C     0.57309   0.29968   0.55051   0.00000  Uiso   1.00
H662   H     0.60154   0.29276   0.57601   0.00000  Uiso   1.00
O663   O     0.56204   0.01107   0.54415   0.00000  Uiso   1.00
C664   C     0.42690   0.03366   0.94949   0.00000  Uiso   1.00
H665   H     0.39845   0.04058   0.92399   0.00000  Uiso   1.00
O666   O     0.43794   0.32227   0.95585   0.00000  Uiso   1.00
C667   C     0.58804   0.29622   0.95383   0.00000  Uiso   1.00
H668   H     0.58149   0.00380   0.96115   0.00000  Uiso   1.00
O669   O     0.62766   0.28447   0.92664   0.00000  Uiso   1.00
C670   C     0.41196   0.03711   0.54617   0.00000  Uiso   1.00
H671   H     0.41849   0.32954   0.53885   0.00000  Uiso   1.00
O672   O     0.37234   0.04887   0.57337   0.00000  Uiso   1.00
O673   O     0.56396   0.00828   0.78138   0.00000  Uiso   1.00
H674   H     0.58585   0.31382   0.79239   0.00000  Uiso   1.00
O675   O     0.43603   0.32505   0.71862   0.00000  Uiso   1.00
H676   H     0.41413   0.01951   0.70764   0.00000  Uiso   1.00
C677   C     0.33658   0.10444   0.72124   0.00000  Uiso   1.00
H678   H     0.33852   0.07293   0.74418   0.00000  Uiso   1.00
O679   O     0.34803   0.09709   0.68079   0.00000  Uiso   1.00
C680   C     0.66345   0.22892   0.77874   0.00000  Uiso   1.00
H681   H     0.66136   0.26036   0.75576   0.00000  Uiso   1.00
O682   O     0.65223   0.23638   0.81919   0.00000  Uiso   1.00
C683   C     0.84830   0.26473   0.74978   0.00000  Uiso   1.00
C684   C     0.81837   0.06860   0.75022   0.00000  Uiso   1.00
C685   C     0.88380   0.25489   0.97746   0.00000  Uiso   1.00
C686   C     0.78286   0.07845   0.52254   0.00000  Uiso   1.00
C687   C     0.85429   0.31932   0.75655   0.00000  Uiso   1.00
C688   C     0.81237   0.01401   0.74345   0.00000  Uiso   1.00
C689   C     0.83351   0.16717   0.83623   0.00000  Uiso   1.00
C690   C     0.83315   0.16617   0.66377   0.00000  Uiso   1.00
C691   C     0.81391   0.11879   0.59326   0.00000  Uiso   1.00
C692   C     0.85276   0.21455   0.90674   0.00000  Uiso   1.00
C693   C     0.83271   0.16432   0.61617   0.00000  Uiso   1.00
C694   C     0.83395   0.16901   0.88383   0.00000  Uiso   1.00
C695   C     0.85154   0.20940   0.59418   0.00000  Uiso   1.00
C696   C     0.81512   0.12394   0.90582   0.00000  Uiso   1.00
C697   C     0.85493   0.21046   0.54748   0.00000  Uiso   1.00
C698   C     0.81173   0.12288   0.95252   0.00000  Uiso   1.00
C699   C     0.83278   0.16611   0.52346   0.00000  Uiso   1.00
C700   C     0.83388   0.16723   0.97654   0.00000  Uiso   1.00
C701   C     0.80911   0.12083   0.54664   0.00000  Uiso   1.00
C702   C     0.85755   0.21251   0.95336   0.00000  Uiso   1.00
C703   C     0.88006   0.25489   0.52482   0.00000  Uiso   1.00
C704   C     0.78659   0.07845   0.97519   0.00000  Uiso   1.00
H705   H     0.86454   0.24326   0.61437   0.00000  Uiso   1.00
H706   H     0.80212   0.09008   0.88563   0.00000  Uiso   1.00
N707   N     0.98344   0.15265   0.73783   0.00000  Uiso   1.00
N708   N     0.68322   0.18068   0.76217   0.00000  Uiso   1.00
O709   O     0.79642   0.24619   0.75299   0.00000  Uiso   1.00
O710   O     0.87025   0.08714   0.74702   0.00000  Uiso   1.00
O711   O     0.89280   0.23721   0.74519   0.00000  Uiso   1.00
O712   O     0.77387   0.09613   0.75482   0.00000  Uiso   1.00
O713   O     0.78514   0.17117   0.81998   0.00000  Uiso   1.00
O714   O     0.88153   0.16216   0.68003   0.00000  Uiso   1.00
O715   O     0.88152   0.16219   0.81218   0.00000  Uiso   1.00
O716   O     0.78515   0.17115   0.68783   0.00000  Uiso   1.00
Zn717  Zn    0.76898   0.17266   0.75521   0.00000  Uiso   1.00
Zn718  Zn    0.89769   0.16067   0.74479   0.00000  Uiso   1.00
O719   O     0.80283   0.07179   0.61487   0.00000  Uiso   1.00
H720   H     0.81614   0.07402   0.64543   0.00000  Uiso   1.00
O721   O     0.86384   0.26154   0.88513   0.00000  Uiso   1.00
H722   H     0.85058   0.25931   0.85456   0.00000  Uiso   1.00
C723   C     0.90642   0.29968   0.55051   0.00000  Uiso   1.00
H724   H     0.93487   0.29276   0.57601   0.00000  Uiso   1.00
O725   O     0.89538   0.01107   0.54415   0.00000  Uiso   1.00
C726   C     0.76023   0.03366   0.94949   0.00000  Uiso   1.00
H727   H     0.73178   0.04058   0.92399   0.00000  Uiso   1.00
O728   O     0.77128   0.32227   0.95585   0.00000  Uiso   1.00
C729   C     0.92137   0.29622   0.95383   0.00000  Uiso   1.00
H730   H     0.91483   0.00380   0.96115   0.00000  Uiso   1.00
O731   O     0.96099   0.28447   0.92664   0.00000  Uiso   1.00
C732   C     0.74529   0.03711   0.54617   0.00000  Uiso   1.00
H733   H     0.75183   0.32954   0.53885   0.00000  Uiso   1.00
O734   O     0.70567   0.04887   0.57337   0.00000  Uiso   1.00
O735   O     0.89730   0.00828   0.78138   0.00000  Uiso   1.00
H736   H     0.91918   0.31382   0.79239   0.00000  Uiso   1.00
O737   O     0.76937   0.32505   0.71862   0.00000  Uiso   1.00
H738   H     0.74746   0.01951   0.70764   0.00000  Uiso   1.00
C739   C     0.66991   0.10444   0.72124   0.00000  Uiso   1.00
H740   H     0.67186   0.07293   0.74418   0.00000  Uiso   1.00
O741   O     0.68137   0.09709   0.68079   0.00000  Uiso   1.00
C742   C     0.99678   0.22892   0.77874   0.00000  Uiso   1.00
H743   H     0.99469   0.26036   0.75576   0.00000  Uiso   1.00
O744   O     0.98557   0.23638   0.81919   0.00000  Uiso   1.00
C745   C     0.18163   0.59807   0.74978   0.00000  Uiso   1.00
C746   C     0.15170   0.40193   0.75022   0.00000  Uiso   1.00
C747   C     0.21714   0.58823   0.97746   0.00000  Uiso   1.00
C748   C     0.11619   0.41178   0.52254   0.00000  Uiso   1.00
C749   C     0.18763   0.65265   0.75655   0.00000  Uiso   1.00
C750   C     0.14571   0.34735   0.74345   0.00000  Uiso   1.00
C751   C     0.16685   0.50050   0.83623   0.00000  Uiso   1.00
C752   C     0.16649   0.49950   0.66377   0.00000  Uiso   1.00
C753   C     0.14724   0.45212   0.59326   0.00000  Uiso   1.00
C754   C     0.18609   0.54788   0.90674   0.00000  Uiso   1.00
C755   C     0.16605   0.49766   0.61617   0.00000  Uiso   1.00
C756   C     0.16729   0.50235   0.88383   0.00000  Uiso   1.00
C757   C     0.18487   0.54273   0.59418   0.00000  Uiso   1.00
C758   C     0.14846   0.45727   0.90582   0.00000  Uiso   1.00
C759   C     0.18826   0.54380   0.54748   0.00000  Uiso   1.00
C760   C     0.14506   0.45621   0.95252   0.00000  Uiso   1.00
C761   C     0.16611   0.49944   0.52346   0.00000  Uiso   1.00
C762   C     0.16722   0.50056   0.97654   0.00000  Uiso   1.00
C763   C     0.14244   0.45417   0.54664   0.00000  Uiso   1.00
C764   C     0.19089   0.54584   0.95336   0.00000  Uiso   1.00
C765   C     0.21340   0.58822   0.52482   0.00000  Uiso   1.00
C766   C     0.11993   0.41179   0.97519   0.00000  Uiso   1.00
H767   H     0.19788   0.57659   0.61437   0.00000  Uiso   1.00
H768   H     0.13545   0.42342   0.88563   0.00000  Uiso   1.00
N769   N     0.31678   0.48598   0.73783   0.00000  Uiso   1.00
N770   N     0.01656   0.51402   0.76217   0.00000  Uiso   1.00
O771   O     0.12975   0.57952   0.75299   0.00000  Uiso   1.00
O772   O     0.20358   0.42048   0.74702   0.00000  Uiso   1.00
O773   O     0.22613   0.57054   0.74519   0.00000  Uiso   1.00
O774   O     0.10720   0.42946   0.75482   0.00000  Uiso   1.00
O775   O     0.11847   0.50450   0.81998   0.00000  Uiso   1.00
O776   O     0.21486   0.49550   0.68003   0.00000  Uiso   1.00
O777   O     0.21485   0.49552   0.81218   0.00000  Uiso   1.00
O778   O     0.11848   0.50448   0.68783   0.00000  Uiso   1.00
Zn779  Zn    0.10231   0.50600   0.75521   0.00000  Uiso   1.00
Zn780  Zn    0.23102   0.49400   0.74479   0.00000  Uiso   1.00
O781   O     0.13617   0.40513   0.61487   0.00000  Uiso   1.00
H782   H     0.14947   0.40735   0.64543   0.00000  Uiso   1.00
O783   O     0.19718   0.59488   0.88513   0.00000  Uiso   1.00
H784   H     0.18391   0.59264   0.85456   0.00000  Uiso   1.00
C785   C     0.23976   0.63301   0.55051   0.00000  Uiso   1.00
H786   H     0.26820   0.62610   0.57601   0.00000  Uiso   1.00
O787   O     0.22871   0.34441   0.54415   0.00000  Uiso   1.00
C788   C     0.09357   0.36700   0.94949   0.00000  Uiso   1.00
H789   H     0.06512   0.37391   0.92399   0.00000  Uiso   1.00
O790   O     0.10461   0.65560   0.95585   0.00000  Uiso   1.00
C791   C     0.25470   0.62956   0.95383   0.00000  Uiso   1.00
H792   H     0.24816   0.33713   0.96115   0.00000  Uiso   1.00
O793   O     0.29432   0.61780   0.92664   0.00000  Uiso   1.00
C794   C     0.07862   0.37045   0.54617   0.00000  Uiso   1.00
H795   H     0.08516   0.66287   0.53885   0.00000  Uiso   1.00
O796   O     0.03901   0.38220   0.57337   0.00000  Uiso   1.00
O797   O     0.23063   0.34162   0.78138   0.00000  Uiso   1.00
H798   H     0.25251   0.64716   0.79239   0.00000  Uiso   1.00
O799   O     0.10270   0.65838   0.71862   0.00000  Uiso   1.00
H800   H     0.08080   0.35284   0.70764   0.00000  Uiso   1.00
C801   C     0.00325   0.43777   0.72124   0.00000  Uiso   1.00
H802   H     0.00519   0.40626   0.74418   0.00000  Uiso   1.00
O803   O     0.01470   0.43042   0.68079   0.00000  Uiso   1.00
C804   C     0.33011   0.56225   0.77874   0.00000  Uiso   1.00
H805   H     0.32802   0.59369   0.75576   0.00000  Uiso   1.00
O806   O     0.31890   0.56971   0.81919   0.00000  Uiso   1.00
C807   C     0.51497   0.59807   0.74978   0.00000  Uiso   1.00
C808   C     0.48503   0.40193   0.75022   0.00000  Uiso   1.00
C809   C     0.55047   0.58823   0.97746   0.00000  Uiso   1.00
C810   C     0.44952   0.41178   0.52254   0.00000  Uiso   1.00
C811   C     0.52096   0.65265   0.75655   0.00000  Uiso   1.00
C812   C     0.47904   0.34735   0.74345   0.00000  Uiso   1.00
C813   C     0.50018   0.50050   0.83623   0.00000  Uiso   1.00
C814   C     0.49982   0.49950   0.66377   0.00000  Uiso   1.00
C815   C     0.48058   0.45212   0.59326   0.00000  Uiso   1.00
C816   C     0.51943   0.54788   0.90674   0.00000  Uiso   1.00
C817   C     0.49938   0.49766   0.61617   0.00000  Uiso   1.00
C818   C     0.50062   0.50235   0.88383   0.00000  Uiso   1.00
C819   C     0.51820   0.54273   0.59418   0.00000  Uiso   1.00
C820   C     0.48179   0.45727   0.90582   0.00000  Uiso   1.00
C821   C     0.52160   0.54380   0.54748   0.00000  Uiso   1.00
C822   C     0.47840   0.45621   0.95252   0.00000  Uiso   1.00
C823   C     0.49944   0.49944   0.52346   0.00000  Uiso   1.00
C824   C     0.50055   0.50056   0.97654   0.00000  Uiso   1.00
C825   C     0.47577   0.45417   0.54664   0.00000  Uiso   1.00
C826   C     0.52422   0.54584   0.95336   0.00000  Uiso   1.00
C827   C     0.54673   0.58822   0.52482   0.00000  Uiso   1.00
C828   C     0.45326   0.41179   0.97519   0.00000  Uiso   1.00
H829   H     0.53121   0.57659   0.61437   0.00000  Uiso   1.00
H830   H     0.46878   0.42342   0.88563   0.00000  Uiso   1.00
N831   N     0.65011   0.48598   0.73783   0.00000  Uiso   1.00
N832   N     0.34989   0.51402   0.76217   0.00000  Uiso   1.00
O833   O     0.46308   0.57952   0.75299   0.00000  Uiso   1.00
O834   O     0.53692   0.42048   0.74702   0.00000  Uiso   1.00
O835   O     0.55946   0.57054   0.74519   0.00000  Uiso   1.00
O836   O     0.44054   0.42946   0.75482   0.00000  Uiso   1.00
O837   O     0.45181   0.50450   0.81998   0.00000  Uiso   1.00
O838   O     0.54819   0.49550   0.68003   0.00000  Uiso   1.00
O839   O     0.54819   0.49552   0.81218   0.00000  Uiso   1.00
O840   O     0.45181   0.50448   0.68783   0.00000  Uiso   1.00
Zn841  Zn    0.43565   0.50600   0.75521   0.00000  Uiso   1.00
Zn842  Zn    0.56435   0.49400   0.74479   0.00000  Uiso   1.00
O843   O     0.46950   0.40513   0.61487   0.00000  Uiso   1.00
H844   H     0.48280   0.40735   0.64543   0.00000  Uiso   1.00
O845   O     0.53051   0.59488   0.88513   0.00000  Uiso   1.00
H846   H     0.51725   0.59264   0.85456   0.00000  Uiso   1.00
C847   C     0.57309   0.63301   0.55051   0.00000  Uiso   1.00
H848   H     0.60154   0.62610   0.57601   0.00000  Uiso   1.00
O849   O     0.56204   0.34441   0.54415   0.00000  Uiso   1.00
C850   C     0.42690   0.36700   0.94949   0.00000  Uiso   1.00
H851   H     0.39845   0.37391   0.92399   0.00000  Uiso   1.00
O852   O     0.43794   0.65560   0.95585   0.00000  Uiso   1.00
C853   C     0.58804   0.62956   0.95383   0.00000  Uiso   1.00
H854   H     0.58149   0.33713   0.96115   0.00000  Uiso   1.00
O855   O     0.62766   0.61780   0.92664   0.00000  Uiso   1.00
C856   C     0.41196   0.37045   0.54617   0.00000  Uiso   1.00
H857   H     0.41849   0.66287   0.53885   0.00000  Uiso   1.00
O858   O     0.37234   0.38220   0.57337   0.00000  Uiso   1.00
O859   O     0.56396   0.34162   0.78138   0.00000  Uiso   1.00
H860   H     0.58585   0.64716   0.79239   0.00000  Uiso   1.00
O861   O     0.43603   0.65838   0.71862   0.00000  Uiso   1.00
H862   H     0.41413   0.35284   0.70764   0.00000  Uiso   1.00
C863   C     0.33658   0.43777   0.72124   0.00000  Uiso   1.00
H864   H     0.33852   0.40626   0.74418   0.00000  Uiso   1.00
O865   O     0.34803   0.43042   0.68079   0.00000  Uiso   1.00
C866   C     0.66345   0.56225   0.77874   0.00000  Uiso   1.00
H867   H     0.66136   0.59369   0.75576   0.00000  Uiso   1.00
O868   O     0.65223   0.56971   0.81919   0.00000  Uiso   1.00
C869   C     0.84830   0.59807   0.74978   0.00000  Uiso   1.00
C870   C     0.81837   0.40193   0.75022   0.00000  Uiso   1.00
C871   C     0.88380   0.58823   0.97746   0.00000  Uiso   1.00
C872   C     0.78286   0.41178   0.52254   0.00000  Uiso   1.00
C873   C     0.85429   0.65265   0.75655   0.00000  Uiso   1.00
C874   C     0.81237   0.34735   0.74345   0.00000  Uiso   1.00
C875   C     0.83351   0.50050   0.83623   0.00000  Uiso   1.00
C876   C     0.83315   0.49950   0.66377   0.00000  Uiso   1.00
C877   C     0.81391   0.45212   0.59326   0.00000  Uiso   1.00
C878   C     0.85276   0.54788   0.90674   0.00000  Uiso   1.00
C879   C     0.83271   0.49766   0.61617   0.00000  Uiso   1.00
C880   C     0.83395   0.50235   0.88383   0.00000  Uiso   1.00
C881   C     0.85154   0.54273   0.59418   0.00000  Uiso   1.00
C882   C     0.81512   0.45727   0.90582   0.00000  Uiso   1.00
C883   C     0.85493   0.54380   0.54748   0.00000  Uiso   1.00
C884   C     0.81173   0.45621   0.95252   0.00000  Uiso   1.00
C885   C     0.83278   0.49944   0.52346   0.00000  Uiso   1.00
C886   C     0.83388   0.50056   0.97654   0.00000  Uiso   1.00
C887   C     0.80911   0.45417   0.54664   0.00000  Uiso   1.00
C888   C     0.85755   0.54584   0.95336   0.00000  Uiso   1.00
C889   C     0.88006   0.58822   0.52482   0.00000  Uiso   1.00
C890   C     0.78659   0.41179   0.97519   0.00000  Uiso   1.00
H891   H     0.86454   0.57659   0.61437   0.00000  Uiso   1.00
H892   H     0.80212   0.42342   0.88563   0.00000  Uiso   1.00
N893   N     0.98344   0.48598   0.73783   0.00000  Uiso   1.00
N894   N     0.68322   0.51402   0.76217   0.00000  Uiso   1.00
O895   O     0.79642   0.57952   0.75299   0.00000  Uiso   1.00
O896   O     0.87025   0.42048   0.74702   0.00000  Uiso   1.00
O897   O     0.89280   0.57054   0.74519   0.00000  Uiso   1.00
O898   O     0.77387   0.42946   0.75482   0.00000  Uiso   1.00
O899   O     0.78514   0.50450   0.81998   0.00000  Uiso   1.00
O900   O     0.88153   0.49550   0.68003   0.00000  Uiso   1.00
O901   O     0.88152   0.49552   0.81218   0.00000  Uiso   1.00
O902   O     0.78515   0.50448   0.68783   0.00000  Uiso   1.00
Zn903  Zn    0.76898   0.50600   0.75521   0.00000  Uiso   1.00
Zn904  Zn    0.89769   0.49400   0.74479   0.00000  Uiso   1.00
O905   O     0.80283   0.40513   0.61487   0.00000  Uiso   1.00
H906   H     0.81614   0.40735   0.64543   0.00000  Uiso   1.00
O907   O     0.86384   0.59488   0.88513   0.00000  Uiso   1.00
H908   H     0.85058   0.59264   0.85456   0.00000  Uiso   1.00
C909   C     0.90642   0.63301   0.55051   0.00000  Uiso   1.00
H910   H     0.93487   0.62610   0.57601   0.00000  Uiso   1.00
O911   O     0.89538   0.34441   0.54415   0.00000  Uiso   1.00
C912   C     0.76023   0.36700   0.94949   0.00000  Uiso   1.00
H913   H     0.73178   0.37391   0.92399   0.00000  Uiso   1.00
O914   O     0.77128   0.65560   0.95585   0.00000  Uiso   1.00
C915   C     0.92137   0.62956   0.95383   0.00000  Uiso   1.00
H916   H     0.91483   0.33713   0.96115   0.00000  Uiso   1.00
O917   O     0.96099   0.61780   0.92664   0.00000  Uiso   1.00
C918   C     0.74529   0.37045   0.54617   0.00000  Uiso   1.00
H919   H     0.75183   0.66287   0.53885   0.00000  Uiso   1.00
O920   O     0.70567   0.38220   0.57337   0.00000  Uiso   1.00
O921   O     0.89730   0.34162   0.78138   0.00000  Uiso   1.00
H922   H     0.91918   0.64716   0.79239   0.00000  Uiso   1.00
O923   O     0.76937   0.65838   0.71862   0.00000  Uiso   1.00
H924   H     0.74746   0.35284   0.70764   0.00000  Uiso   1.00
C925   C     0.66991   0.43777   0.72124   0.00000  Uiso   1.00
H926   H     0.67186   0.40626   0.74418   0.00000  Uiso   1.00
O927   O     0.68137   0.43042   0.68079   0.00000  Uiso   1.00
C928   C     0.99678   0.56225   0.77874   0.00000  Uiso   1.00
H929   H     0.99469   0.59369   0.75576   0.00000  Uiso   1.00
O930   O     0.98557   0.56971   0.81919   0.00000  Uiso   1.00
C931   C     0.18163   0.93140   0.74978   0.00000  Uiso   1.00
C932   C     0.15170   0.73527   0.75022   0.00000  Uiso   1.00
C933   C     0.21714   0.92156   0.97746   0.00000  Uiso   1.00
C934   C     0.11619   0.74511   0.52254   0.00000  Uiso   1.00
C935   C     0.18763   0.98599   0.75655   0.00000  Uiso   1.00
C936   C     0.14571   0.68068   0.74345   0.00000  Uiso   1.00
C937   C     0.16685   0.83383   0.83623   0.00000  Uiso   1.00
C938   C     0.16649   0.83283   0.66377   0.00000  Uiso   1.00
C939   C     0.14724   0.78545   0.59326   0.00000  Uiso   1.00
C940   C     0.18609   0.88122   0.90674   0.00000  Uiso   1.00
C941   C     0.16605   0.83099   0.61617   0.00000  Uiso   1.00
C942   C     0.16729   0.83568   0.88383   0.00000  Uiso   1.00
C943   C     0.18487   0.87606   0.59418   0.00000  Uiso   1.00
C944   C     0.14846   0.79061   0.90582   0.00000  Uiso   1.00
C945   C     0.18826   0.87713   0.54748   0.00000  Uiso   1.00
C946   C     0.14506   0.78954   0.95252   0.00000  Uiso   1.00
C947   C     0.16611   0.83278   0.52346   0.00000  Uiso   1.00
C948   C     0.16722   0.83390   0.97654   0.00000  Uiso   1.00
C949   C     0.14244   0.78750   0.54664   0.00000  Uiso   1.00
C950   C     0.19089   0.87917   0.95336   0.00000  Uiso   1.00
C951   C     0.21340   0.92155   0.52482   0.00000  Uiso   1.00
C952   C     0.11993   0.74512   0.97519   0.00000  Uiso   1.00
H953   H     0.19788   0.90992   0.61437   0.00000  Uiso   1.00
H954   H     0.13545   0.75675   0.88563   0.00000  Uiso   1.00
N955   N     0.31678   0.81932   0.73783   0.00000  Uiso   1.00
N956   N     0.01656   0.84735   0.76217   0.00000  Uiso   1.00
O957   O     0.12975   0.91286   0.75299   0.00000  Uiso   1.00
O958   O     0.20358   0.75381   0.74702   0.00000  Uiso   1.00
O959   O     0.22613   0.90387   0.74519   0.00000  Uiso   1.00
O960   O     0.10720   0.76279   0.75482   0.00000  Uiso   1.00
O961   O     0.11847   0.83784   0.81998   0.00000  Uiso   1.00
O962   O     0.21486   0.82883   0.68003   0.00000  Uiso   1.00
O963   O     0.21485   0.82885   0.81218   0.00000  Uiso   1.00
O964   O     0.11848   0.83781   0.68783   0.00000  Uiso   1.00
Zn965  Zn    0.10231   0.83933   0.75521   0.00000  Uiso   1.00
Zn966  Zn    0.23102   0.82734   0.74479   0.00000  Uiso   1.00
O967   O     0.13617   0.73846   0.61487   0.00000  Uiso   1.00
H968   H     0.14947   0.74069   0.64543   0.00000  Uiso   1.00
O969   O     0.19718   0.92821   0.88513   0.00000  Uiso   1.00
H970   H     0.18391   0.92597   0.85456   0.00000  Uiso   1.00
C971   C     0.23976   0.96634   0.55051   0.00000  Uiso   1.00
H972   H     0.26820   0.95943   0.57601   0.00000  Uiso   1.00
O973   O     0.22871   0.67774   0.54415   0.00000  Uiso   1.00
C974   C     0.09357   0.70033   0.94949   0.00000  Uiso   1.00
H975   H     0.06512   0.70725   0.92399   0.00000  Uiso   1.00
O976   O     0.10461   0.98893   0.95585   0.00000  Uiso   1.00
C977   C     0.25470   0.96289   0.95383   0.00000  Uiso   1.00
H978   H     0.24816   0.67047   0.96115   0.00000  Uiso   1.00
O979   O     0.29432   0.95114   0.92664   0.00000  Uiso   1.00
C980   C     0.07862   0.70378   0.54617   0.00000  Uiso   1.00
H981   H     0.08516   0.99621   0.53885   0.00000  Uiso   1.00
O982   O     0.03901   0.71554   0.57337   0.00000  Uiso   1.00
O983   O     0.23063   0.67495   0.78138   0.00000  Uiso   1.00
H984   H     0.25251   0.98049   0.79239   0.00000  Uiso   1.00
O985   O     0.10270   0.99172   0.71862   0.00000  Uiso   1.00
H986   H     0.08080   0.68618   0.70764   0.00000  Uiso   1.00
C987   C     0.00325   0.77110   0.72124   0.00000  Uiso   1.00
H988   H     0.00519   0.73959   0.74418   0.00000  Uiso   1.00
O989   O     0.01470   0.76375   0.68079   0.00000  Uiso   1.00
C990   C     0.33011   0.89559   0.77874   0.00000  Uiso   1.00
H991   H     0.32802   0.92702   0.75576   0.00000  Uiso   1.00
O992   O     0.31890   0.90305   0.81919   0.00000  Uiso   1.00
C993   C     0.51497   0.93140   0.74978   0.00000  Uiso   1.00
C994   C     0.48503   0.73527   0.75022   0.00000  Uiso   1.00
C995   C     0.55047   0.92156   0.97746   0.00000  Uiso   1.00
C996   C     0.44952   0.74511   0.52254   0.00000  Uiso   1.00
C997   C     0.52096   0.98599   0.75655   0.00000  Uiso   1.00
C998   C     0.47904   0.68068   0.74345   0.00000  Uiso   1.00
C999   C     0.50018   0.83383   0.83623   0.00000  Uiso   1.00
C1000  C     0.49982   0.83283   0.66377   0.00000  Uiso   1.00
C1001  C     0.48058   0.78545   0.59326   0.00000  Uiso   1.00
C1002  C     0.51943   0.88122   0.90674   0.00000  Uiso   1.00
C1003  C     0.49938   0.83099   0.61617   0.00000  Uiso   1.00
C1004  C     0.50062   0.83568   0.88383   0.00000  Uiso   1.00
C1005  C     0.51820   0.87606   0.59418   0.00000  Uiso   1.00
C1006  C     0.48179   0.79061   0.90582   0.00000  Uiso   1.00
C1007  C     0.52160   0.87713   0.54748   0.00000  Uiso   1.00
C1008  C     0.47840   0.78954   0.95252   0.00000  Uiso   1.00
C1009  C     0.49944   0.83278   0.52346   0.00000  Uiso   1.00
C1010  C     0.50055   0.83390   0.97654   0.00000  Uiso   1.00
C1011  C     0.47577   0.78750   0.54664   0.00000  Uiso   1.00
C1012  C     0.52422   0.87917   0.95336   0.00000  Uiso   1.00
C1013  C     0.54673   0.92155   0.52482   0.00000  Uiso   1.00
C1014  C     0.45326   0.74512   0.97519   0.00000  Uiso   1.00
H1015  H     0.53121   0.90992   0.61437   0.00000  Uiso   1.00
H1016  H     0.46878   0.75675   0.88563   0.00000  Uiso   1.00
N1017  N     0.65011   0.81932   0.73783   0.00000  Uiso   1.00
N1018  N     0.34989   0.84735   0.76217   0.00000  Uiso   1.00
O1019  O     0.46308   0.91286   0.75299   0.00000  Uiso   1.00
O1020  O     0.53692   0.75381   0.74702   0.00000  Uiso   1.00
O1021  O     0.55946   0.90387   0.74519   0.00000  Uiso   1.00
O1022  O     0.44054   0.76279   0.75482   0.00000  Uiso   1.00
O1023  O     0.45181   0.83784   0.81998   0.00000  Uiso   1.00
O1024  O     0.54819   0.82883   0.68003   0.00000  Uiso   1.00
O1025  O     0.54819   0.82885   0.81218   0.00000  Uiso   1.00
O1026  O     0.45181   0.83781   0.68783   0.00000  Uiso   1.00
Zn1027 Zn    0.43565   0.83933   0.75521   0.00000  Uiso   1.00
Zn1028 Zn    0.56435   0.82734   0.74479   0.00000  Uiso   1.00
O1029  O     0.46950   0.73846   0.61487   0.00000  Uiso   1.00
H1030  H     0.48280   0.74069   0.64543   0.00000  Uiso   1.00
O1031  O     0.53051   0.92821   0.88513   0.00000  Uiso   1.00
H1032  H     0.51725   0.92597   0.85456   0.00000  Uiso   1.00
C1033  C     0.57309   0.96634   0.55051   0.00000  Uiso   1.00
H1034  H     0.60154   0.95943   0.57601   0.00000  Uiso   1.00
O1035  O     0.56204   0.67774   0.54415   0.00000  Uiso   1.00
C1036  C     0.42690   0.70033   0.94949   0.00000  Uiso   1.00
H1037  H     0.39845   0.70725   0.92399   0.00000  Uiso   1.00
O1038  O     0.43794   0.98893   0.95585   0.00000  Uiso   1.00
C1039  C     0.58804   0.96289   0.95383   0.00000  Uiso   1.00
H1040  H     0.58149   0.67047   0.96115   0.00000  Uiso   1.00
O1041  O     0.62766   0.95114   0.92664   0.00000  Uiso   1.00
C1042  C     0.41196   0.70378   0.54617   0.00000  Uiso   1.00
H1043  H     0.41849   0.99621   0.53885   0.00000  Uiso   1.00
O1044  O     0.37234   0.71554   0.57337   0.00000  Uiso   1.00
O1045  O     0.56396   0.67495   0.78138   0.00000  Uiso   1.00
H1046  H     0.58585   0.98049   0.79239   0.00000  Uiso   1.00
O1047  O     0.43603   0.99172   0.71862   0.00000  Uiso   1.00
H1048  H     0.41413   0.68618   0.70764   0.00000  Uiso   1.00
C1049  C     0.33658   0.77110   0.72124   0.00000  Uiso   1.00
H1050  H     0.33852   0.73959   0.74418   0.00000  Uiso   1.00
O1051  O     0.34803   0.76375   0.68079   0.00000  Uiso   1.00
C1052  C     0.66345   0.89559   0.77874   0.00000  Uiso   1.00
H1053  H     0.66136   0.92702   0.75576   0.00000  Uiso   1.00
O1054  O     0.65223   0.90305   0.81919   0.00000  Uiso   1.00
C1055  C     0.84830   0.93140   0.74978   0.00000  Uiso   1.00
C1056  C     0.81837   0.73527   0.75022   0.00000  Uiso   1.00
C1057  C     0.88380   0.92156   0.97746   0.00000  Uiso   1.00
C1058  C     0.78286   0.74511   0.52254   0.00000  Uiso   1.00
C1059  C     0.85429   0.98599   0.75655   0.00000  Uiso   1.00
C1060  C     0.81237   0.68068   0.74345   0.00000  Uiso   1.00
C1061  C     0.83351   0.83383   0.83623   0.00000  Uiso   1.00
C1062  C     0.83315   0.83283   0.66377   0.00000  Uiso   1.00
C1063  C     0.81391   0.78545   0.59326   0.00000  Uiso   1.00
C1064  C     0.85276   0.88122   0.90674   0.00000  Uiso   1.00
C1065  C     0.83271   0.83099   0.61617   0.00000  Uiso   1.00
C1066  C     0.83395   0.83568   0.88383   0.00000  Uiso   1.00
C1067  C     0.85154   0.87606   0.59418   0.00000  Uiso   1.00
C1068  C     0.81512   0.79061   0.90582   0.00000  Uiso   1.00
C1069  C     0.85493   0.87713   0.54748   0.00000  Uiso   1.00
C1070  C     0.81173   0.78954   0.95252   0.00000  Uiso   1.00
C1071  C     0.83278   0.83278   0.52346   0.00000  Uiso   1.00
C1072  C     0.83388   0.83390   0.97654   0.00000  Uiso   1.00
C1073  C     0.80911   0.78750   0.54664   0.00000  Uiso   1.00
C1074  C     0.85755   0.87917   0.95336   0.00000  Uiso   1.00
C1075  C     0.88006   0.92155   0.52482   0.00000  Uiso   1.00
C1076  C     0.78659   0.74512   0.97519   0.00000  Uiso   1.00
H1077  H     0.86454   0.90992   0.61437   0.00000  Uiso   1.00
H1078  H     0.80212   0.75675   0.88563   0.00000  Uiso   1.00
N1079  N     0.98344   0.81932   0.73783   0.00000  Uiso   1.00
N1080  N     0.68322   0.84735   0.76217   0.00000  Uiso   1.00
O1081  O     0.79642   0.91286   0.75299   0.00000  Uiso   1.00
O1082  O     0.87025   0.75381   0.74702   0.00000  Uiso   1.00
O1083  O     0.89280   0.90387   0.74519   0.00000  Uiso   1.00
O1084  O     0.77387   0.76279   0.75482   0.00000  Uiso   1.00
O1085  O     0.78514   0.83784   0.81998   0.00000  Uiso   1.00
O1086  O     0.88153   0.82883   0.68003   0.00000  Uiso   1.00
O1087  O     0.88152   0.82885   0.81218   0.00000  Uiso   1.00
O1088  O     0.78515   0.83781   0.68783   0.00000  Uiso   1.00
Zn1089 Zn    0.76898   0.83933   0.75521   0.00000  Uiso   1.00
Zn1090 Zn    0.89769   0.82734   0.74479   0.00000  Uiso   1.00
O1091  O     0.80283   0.73846   0.61487   0.00000  Uiso   1.00
H1092  H     0.81614   0.74069   0.64543   0.00000  Uiso   1.00
O1093  O     0.86384   0.92821   0.88513   0.00000  Uiso   1.00
H1094  H     0.85058   0.92597   0.85456   0.00000  Uiso   1.00
C1095  C     0.90642   0.96634   0.55051   0.00000  Uiso   1.00
H1096  H     0.93487   0.95943   0.57601   0.00000  Uiso   1.00
O1097  O     0.89538   0.67774   0.54415   0.00000  Uiso   1.00
C1098  C     0.76023   0.70033   0.94949   0.00000  Uiso   1.00
H1099  H     0.73178   0.70725   0.92399   0.00000  Uiso   1.00
O1100  O     0.77128   0.98893   0.95585   0.00000  Uiso   1.00
C1101  C     0.92137   0.96289   0.95383   0.00000  Uiso   1.00
H1102  H     0.91483   0.67047   0.96115   0.00000  Uiso   1.00
O1103  O     0.96099   0.95114   0.92664   0.00000  Uiso   1.00
C1104  C     0.74529   0.70378   0.54617   0.00000  Uiso   1.00
H1105  H     0.75183   0.99621   0.53885   0.00000  Uiso   1.00
O1106  O     0.70567   0.71554   0.57337   0.00000  Uiso   1.00
O1107  O     0.89730   0.67495   0.78138   0.00000  Uiso   1.00
H1108  H     0.91918   0.98049   0.79239   0.00000  Uiso   1.00
O1109  O     0.76937   0.99172   0.71862   0.00000  Uiso   1.00
H1110  H     0.74746   0.68618   0.70764   0.00000  Uiso   1.00
C1111  C     0.66991   0.77110   0.72124   0.00000  Uiso   1.00
H1112  H     0.67186   0.73959   0.74418   0.00000  Uiso   1.00
O1113  O     0.68137   0.76375   0.68079   0.00000  Uiso   1.00
C1114  C     0.99678   0.89559   0.77874   0.00000  Uiso   1.00
H1115  H     0.99469   0.92702   0.75576   0.00000  Uiso   1.00
O1116  O     0.98557   0.90305   0.81919   0.00000  Uiso   1.00
loop_
_geom_bond_atom_site_label_1
_geom_bond_atom_site_label_2
_geom_bond_distance
_geom_bond_site_symmetry_2
_ccdc_geom_bond_type
C1     C5      1.410   .     S
C1     O29     1.295   .     A
C1     O27     1.276   .     A
C2     O30     1.295   .     A
C2     C6      1.410   .     S
C2     O28     1.276   .     A
C3     C20     1.422   .     A
C3     C47     1.489   .     S
C3     C579    1.405   .     S
C4     C50     1.489   .     S
C4     C19     1.422   .     A
C4     C580    1.405   1_554 S
C5     C192    1.353   .     S
C5     O239    1.390   .     S
C6     C377    1.353   1_545 S
C6     O427    1.390   1_545 S
C7     C12     1.418   .     S
C7     O31     1.289   .     A
C7     O33     1.290   .     A
C8     O34     1.290   .     A
C8     C11     1.418   .     S
C8     O32     1.289   .     A
C9     O37     1.387   .     S
C9     C11     1.401   .     A
C9     C19     1.407   .     A
C10    C12     1.401   .     A
C10    O39     1.387   .     S
C10    C20     1.407   .     A
C11    C13     1.378   .     A
C12    C14     1.378   .     A
C13    C15     1.387   .     A
C13    H23     1.084   .     S
C14    C16     1.387   .     A
C14    H24     1.084   .     S
C15    C17     1.420   .     A
C15    C21     1.414   .     A
C16    C22     1.414   .     A
C16    C18     1.420   .     A
C17    C19     1.429   .     A
C17    C576    1.397   1_554 S
C18    C20     1.429   .     A
C18    C575    1.397   .     S
C21    C41     1.492   .     S
C21    C561    1.405   1_554 S
C22    C44     1.492   .     S
C22    C562    1.405   .     S
N25    Zn36    2.031   .     S
N25    N88     1.283   .     S
N25    C119    1.409   .     S
N26    Zn35    2.031   .     S
N26    N149    1.283   1_455 S
N26    C184    1.409   1_455 S
O27    Zn35    1.958   .     S
O28    Zn36    1.958   .     S
O29    Zn36    1.978   .     S
O30    Zn35    1.978   .     S
O31    Zn35    2.003   .     S
O32    Zn36    2.003   .     S
O33    Zn36    2.006   .     S
O34    Zn35    2.006   .     S
O37    H38     0.989   .     S
O39    H40     0.988   .     S
C41    H42     1.085   .     S
C41    O229    1.221   .     S
O43    C413    1.221   1_545 S
C44    H45     1.085   .     S
C44    O418    1.221   1_545 S
O46    C230    1.221   .     S
C47    O49     1.221   .     D
C47    H234    1.084   .     S
H48    C419    1.084   1_545 S
C50    O52     1.221   .     D
C50    H423    1.084   1_545 S
H51    C236    1.084   .     S
O53    C377    1.390   1_545 S
O53    H426    0.990   1_545 S
H54    O239    0.990   .     S
O55    C192    1.390   .     S
O55    H242    0.990   .     S
H56    O427    0.990   1_545 S
C57    H58     1.085   .     S
C57    O59     1.220   .     D
C57    N149    1.409   1_455 S
C60    O62     1.220   .     D
C60    H61     1.084   .     S
C60    N88     1.409   .     S
C63    C67     1.410   .     S
C63    O91     1.295   .     A
C63    O89     1.276   .     A
C64    O92     1.295   .     A
C64    C68     1.410   .     S
C64    O90     1.276   .     A
C65    C82     1.422   .     A
C65    C109    1.489   .     S
C65    C641    1.405   .     S
C66    C112    1.489   .     S
C66    C81     1.422   .     A
C66    C642    1.405   1_554 S
C67    C254    1.353   .     S
C67    O301    1.390   .     S
C68    C439    1.353   1_545 S
C68    O489    1.390   1_545 S
C69    C74     1.418   .     S
C69    O93     1.289   .     A
C69    O95     1.290   .     A
C70    O96     1.290   .     A
C70    C73     1.418   .     S
C70    O94     1.289   .     A
C71    O99     1.387   .     S
C71    C73     1.401   .     A
C71    C81     1.407   .     A
C72    C74     1.401   .     A
C72    O101    1.387   .     S
C72    C82     1.407   .     A
C73    C75     1.378   .     A
C74    C76     1.378   .     A
C75    C77     1.387   .     A
C75    H85     1.084   .     S
C76    C78     1.387   .     A
C76    H86     1.084   .     S
C77    C79     1.420   .     A
C77    C83     1.414   .     A
C78    C84     1.414   .     A
C78    C80     1.420   .     A
C79    C81     1.429   .     A
C79    C638    1.397   1_554 S
C80    C82     1.429   .     A
C80    C637    1.397   .     S
C83    C103    1.492   .     S
C83    C623    1.405   1_554 S
C84    C106    1.492   .     S
C84    C624    1.405   .     S
N87    Zn98    2.031   .     S
N87    N150    1.283   .     S
N87    C181    1.409   .     S
N88    Zn97    2.031   .     S
O89    Zn97    1.958   .     S
O90    Zn98    1.958   .     S
O91    Zn98    1.978   .     S
O92    Zn97    1.978   .     S
O93    Zn97    2.003   .     S
O94    Zn98    2.003   .     S
O95    Zn98    2.006   .     S
O96    Zn97    2.006   .     S
O99    H100    0.989   .     S
O101   H102    0.988   .     S
C103   H104    1.085   .     S
C103   O291    1.221   .     S
O105   C475    1.221   1_545 S
C106   H107    1.085   .     S
C106   O480    1.221   1_545 S
O108   C292    1.221   .     S
C109   O111    1.221   .     D
C109   H296    1.084   .     S
H110   C481    1.084   1_545 S
C112   O114    1.221   .     D
C112   H485    1.084   1_545 S
H113   C298    1.084   .     S
O115   C439    1.390   1_545 S
O115   H488    0.990   1_545 S
H116   O301    0.990   .     S
O117   C254    1.390   .     S
O117   H304    0.990   .     S
H118   O489    0.990   1_545 S
C119   H120    1.085   .     S
C119   O121    1.220   .     D
C122   O124    1.220   .     D
C122   H123    1.084   .     S
C122   N150    1.409   .     S
C125   C129    1.410   .     S
C125   O153    1.295   .     A
C125   O151    1.276   .     A
C126   O154    1.295   .     A
C126   C130    1.410   .     S
C126   O152    1.276   .     A
C127   C144    1.422   .     A
C127   C171    1.489   .     S
C127   C703    1.405   .     S
C128   C174    1.489   .     S
C128   C143    1.422   .     A
C128   C704    1.405   1_554 S
C129   C316    1.353   .     S
C129   O363    1.390   .     S
C130   C501    1.353   1_545 S
C130   O551    1.390   1_545 S
C131   C136    1.418   .     S
C131   O155    1.289   .     A
C131   O157    1.290   .     A
C132   O158    1.290   .     A
C132   C135    1.418   .     S
C132   O156    1.289   .     A
C133   O161    1.387   .     S
C133   C135    1.401   .     A
C133   C143    1.407   .     A
C134   C136    1.401   .     A
C134   O163    1.387   .     S
C134   C144    1.407   .     A
C135   C137    1.378   .     A
C136   C138    1.378   .     A
C137   C139    1.387   .     A
C137   H147    1.084   .     S
C138   C140    1.387   .     A
C138   H148    1.084   .     S
C139   C141    1.420   .     A
C139   C145    1.414   .     A
C140   C146    1.414   .     A
C140   C142    1.420   .     A
C141   C143    1.429   .     A
C141   C700    1.397   1_554 S
C142   C144    1.429   .     A
C142   C699    1.397   .     S
C145   C165    1.492   .     S
C145   C685    1.405   1_554 S
C146   C168    1.492   .     S
C146   C686    1.405   .     S
N149   Zn160   2.031   .     S
N149   N26     1.283   1_655 S
N149   C57     1.409   1_655 S
N150   Zn159   2.031   .     S
O151   Zn159   1.958   .     S
O152   Zn160   1.958   .     S
O153   Zn160   1.978   .     S
O154   Zn159   1.978   .     S
O155   Zn159   2.003   .     S
O156   Zn160   2.003   .     S
O157   Zn160   2.006   .     S
O158   Zn159   2.006   .     S
O161   H162    0.989   .     S
O163   H164    0.988   .     S
C165   H166    1.085   .     S
C165   O353    1.221   .     S
O167   C537    1.221   1_545 S
C168   H169    1.085   .     S
C168   O542    1.221   1_545 S
O170   C354    1.221   .     S
C171   O173    1.221   .     D
C171   H358    1.084   .     S
H172   C543    1.084   1_545 S
C174   O176    1.221   .     D
C174   H547    1.084   1_545 S
H175   C360    1.084   .     S
O177   C501    1.390   1_545 S
O177   H550    0.990   1_545 S
H178   O363    0.990   .     S
O179   C316    1.390   .     S
O179   H366    0.990   .     S
H180   O551    0.990   1_545 S
C181   H182    1.085   .     S
C181   O183    1.220   .     D
C184   O186    1.220   .     D
C184   H185    1.084   .     S
C184   N26     1.409   1_655 S
C187   C191    1.410   .     S
C187   O215    1.295   .     A
C187   O213    1.276   .     A
C188   O216    1.295   .     A
C188   C192    1.410   .     S
C188   O214    1.276   .     A
C189   C206    1.422   .     A
C189   C233    1.489   .     S
C189   C765    1.405   .     S
C190   C236    1.489   .     S
C190   C205    1.422   .     A
C190   C766    1.405   1_554 S
C191   C378    1.353   .     S
C191   O425    1.390   .     S
C193   C198    1.418   .     S
C193   O217    1.289   .     A
C193   O219    1.290   .     A
C194   O220    1.290   .     A
C194   C197    1.418   .     S
C194   O218    1.289   .     A
C195   O223    1.387   .     S
C195   C197    1.401   .     A
C195   C205    1.407   .     A
C196   C198    1.401   .     A
C196   O225    1.387   .     S
C196   C206    1.407   .     A
C197   C199    1.378   .     A
C198   C200    1.378   .     A
C199   C201    1.387   .     A
C199   H209    1.084   .     S
C200   C202    1.387   .     A
C200   H210    1.084   .     S
C201   C203    1.420   .     A
C201   C207    1.414   .     A
C202   C208    1.414   .     A
C202   C204    1.420   .     A
C203   C205    1.429   .     A
C203   C762    1.397   1_554 S
C204   C206    1.429   .     A
C204   C761    1.397   .     S
C207   C227    1.492   .     S
C207   C747    1.405   1_554 S
C208   C230    1.492   .     S
C208   C748    1.405   .     S
N211   Zn222   2.031   .     S
N211   N274    1.283   .     S
N211   C305    1.409   .     S
N212   Zn221   2.031   .     S
N212   N335    1.283   1_455 S
N212   C370    1.409   1_455 S
O213   Zn221   1.958   .     S
O214   Zn222   1.958   .     S
O215   Zn222   1.978   .     S
O216   Zn221   1.978   .     S
O217   Zn221   2.003   .     S
O218   Zn222   2.003   .     S
O219   Zn222   2.006   .     S
O220   Zn221   2.006   .     S
O223   H224    0.989   .     S
O225   H226    0.988   .     S
C227   H228    1.085   .     S
C227   O415    1.221   .     S
C230   H231    1.085   .     S
O232   C416    1.221   .     S
C233   O235    1.221   .     D
C233   H420    1.084   .     S
C236   O238    1.221   .     D
H237   C422    1.084   .     S
H240   O425    0.990   .     S
O241   C378    1.390   .     S
O241   H428    0.990   .     S
C243   H244    1.085   .     S
C243   O245    1.220   .     D
C243   N335    1.409   1_455 S
C246   O248    1.220   .     D
C246   H247    1.084   .     S
C246   N274    1.409   .     S
C249   C253    1.410   .     S
C249   O277    1.295   .     A
C249   O275    1.276   .     A
C250   O278    1.295   .     A
C250   C254    1.410   .     S
C250   O276    1.276   .     A
C251   C268    1.422   .     A
C251   C295    1.489   .     S
C251   C827    1.405   .     S
C252   C298    1.489   .     S
C252   C267    1.422   .     A
C252   C828    1.405   1_554 S
C253   C440    1.353   .     S
C253   O487    1.390   .     S
C255   C260    1.418   .     S
C255   O279    1.289   .     A
C255   O281    1.290   .     A
C256   O282    1.290   .     A
C256   C259    1.418   .     S
C256   O280    1.289   .     A
C257   O285    1.387   .     S
C257   C259    1.401   .     A
C257   C267    1.407   .     A
C258   C260    1.401   .     A
C258   O287    1.387   .     S
C258   C268    1.407   .     A
C259   C261    1.378   .     A
C260   C262    1.378   .     A
C261   C263    1.387   .     A
C261   H271    1.084   .     S
C262   C264    1.387   .     A
C262   H272    1.084   .     S
C263   C265    1.420   .     A
C263   C269    1.414   .     A
C264   C270    1.414   .     A
C264   C266    1.420   .     A
C265   C267    1.429   .     A
C265   C824    1.397   1_554 S
C266   C268    1.429   .     A
C266   C823    1.397   .     S
C269   C289    1.492   .     S
C269   C809    1.405   1_554 S
C270   C292    1.492   .     S
C270   C810    1.405   .     S
N273   Zn284   2.031   .     S
N273   N336    1.283   .     S
N273   C367    1.409   .     S
N274   Zn283   2.031   .     S
O275   Zn283   1.958   .     S
O276   Zn284   1.958   .     S
O277   Zn284   1.978   .     S
O278   Zn283   1.978   .     S
O279   Zn283   2.003   .     S
O280   Zn284   2.003   .     S
O281   Zn284   2.006   .     S
O282   Zn283   2.006   .     S
O285   H286    0.989   .     S
O287   H288    0.988   .     S
C289   H290    1.085   .     S
C289   O477    1.221   .     S
C292   H293    1.085   .     S
O294   C478    1.221   .     S
C295   O297    1.221   .     D
C295   H482    1.084   .     S
C298   O300    1.221   .     D
H299   C484    1.084   .     S
H302   O487    0.990   .     S
O303   C440    1.390   .     S
O303   H490    0.990   .     S
C305   H306    1.085   .     S
C305   O307    1.220   .     D
C308   O310    1.220   .     D
C308   H309    1.084   .     S
C308   N336    1.409   .     S
C311   C315    1.410   .     S
C311   O339    1.295   .     A
C311   O337    1.276   .     A
C312   O340    1.295   .     A
C312   C316    1.410   .     S
C312   O338    1.276   .     A
C313   C330    1.422   .     A
C313   C357    1.489   .     S
C313   C889    1.405   .     S
C314   C360    1.489   .     S
C314   C329    1.422   .     A
C314   C890    1.405   1_554 S
C315   C502    1.353   .     S
C315   O549    1.390   .     S
C317   C322    1.418   .     S
C317   O341    1.289   .     A
C317   O343    1.290   .     A
C318   O344    1.290   .     A
C318   C321    1.418   .     S
C318   O342    1.289   .     A
C319   O347    1.387   .     S
C319   C321    1.401   .     A
C319   C329    1.407   .     A
C320   C322    1.401   .     A
C320   O349    1.387   .     S
C320   C330    1.407   .     A
C321   C323    1.378   .     A
C322   C324    1.378   .     A
C323   C325    1.387   .     A
C323   H333    1.084   .     S
C324   C326    1.387   .     A
C324   H334    1.084   .     S
C325   C327    1.420   .     A
C325   C331    1.414   .     A
C326   C332    1.414   .     A
C326   C328    1.420   .     A
C327   C329    1.429   .     A
C327   C886    1.397   1_554 S
C328   C330    1.429   .     A
C328   C885    1.397   .     S
C331   C351    1.492   .     S
C331   C871    1.405   1_554 S
C332   C354    1.492   .     S
C332   C872    1.405   .     S
N335   Zn346   2.031   .     S
N335   N212    1.283   1_655 S
N335   C243    1.409   1_655 S
N336   Zn345   2.031   .     S
O337   Zn345   1.958   .     S
O338   Zn346   1.958   .     S
O339   Zn346   1.978   .     S
O340   Zn345   1.978   .     S
O341   Zn345   2.003   .     S
O342   Zn346   2.003   .     S
O343   Zn346   2.006   .     S
O344   Zn345   2.006   .     S
O347   H348    0.989   .     S
O349   H350    0.988   .     S
C351   H352    1.085   .     S
C351   O539    1.221   .     S
C354   H355    1.085   .     S
O356   C540    1.221   .     S
C357   O359    1.221   .     D
C357   H544    1.084   .     S
C360   O362    1.221   .     D
H361   C546    1.084   .     S
H364   O549    0.990   .     S
O365   C502    1.390   .     S
O365   H552    0.990   .     S
C367   H368    1.085   .     S
C367   O369    1.220   .     D
C370   O372    1.220   .     D
C370   H371    1.084   .     S
C370   N212    1.409   1_655 S
C373   C377    1.410   .     S
C373   O401    1.295   .     A
C373   O399    1.276   .     A
C374   O402    1.295   .     A
C374   C378    1.410   .     S
C374   O400    1.276   .     A
C375   C392    1.422   .     A
C375   C419    1.489   .     S
C375   C951    1.405   .     S
C376   C422    1.489   .     S
C376   C391    1.422   .     A
C376   C952    1.405   1_554 S
C377   C6      1.353   1_565 S
C377   O53     1.390   1_565 S
C379   C384    1.418   .     S
C379   O403    1.289   .     A
C379   O405    1.290   .     A
C380   O406    1.290   .     A
C380   C383    1.418   .     S
C380   O404    1.289   .     A
C381   O409    1.387   .     S
C381   C383    1.401   .     A
C381   C391    1.407   .     A
C382   C384    1.401   .     A
C382   O411    1.387   .     S
C382   C392    1.407   .     A
C383   C385    1.378   .     A
C384   C386    1.378   .     A
C385   C387    1.387   .     A
C385   H395    1.084   .     S
C386   C388    1.387   .     A
C386   H396    1.084   .     S
C387   C389    1.420   .     A
C387   C393    1.414   .     A
C388   C394    1.414   .     A
C388   C390    1.420   .     A
C389   C391    1.429   .     A
C389   C948    1.397   1_554 S
C390   C392    1.429   .     A
C390   C947    1.397   .     S
C393   C413    1.492   .     S
C393   C933    1.405   1_554 S
C394   C416    1.492   .     S
C394   C934    1.405   .     S
N397   Zn408   2.031   .     S
N397   N460    1.283   .     S
N397   C491    1.409   .     S
N398   Zn407   2.031   .     S
N398   N521    1.283   1_455 S
N398   C556    1.409   1_455 S
O399   Zn407   1.958   .     S
O400   Zn408   1.958   .     S
O401   Zn408   1.978   .     S
O402   Zn407   1.978   .     S
O403   Zn407   2.003   .     S
O404   Zn408   2.003   .     S
O405   Zn408   2.006   .     S
O406   Zn407   2.006   .     S
O409   H410    0.989   .     S
O411   H412    0.988   .     S
C413   H414    1.085   .     S
C413   O43     1.221   1_565 S
C416   H417    1.085   .     S
O418   C44     1.221   1_565 S
C419   O421    1.221   .     D
C419   H48     1.084   1_565 S
C422   O424    1.221   .     D
H423   C50     1.084   1_565 S
H426   O53     0.990   1_565 S
O427   C6      1.390   1_565 S
O427   H56     0.990   1_565 S
C429   H430    1.085   .     S
C429   O431    1.220   .     D
C429   N521    1.409   1_455 S
C432   O434    1.220   .     D
C432   H433    1.084   .     S
C432   N460    1.409   .     S
C435   C439    1.410   .     S
C435   O463    1.295   .     A
C435   O461    1.276   .     A
C436   O464    1.295   .     A
C436   C440    1.410   .     S
C436   O462    1.276   .     A
C437   C454    1.422   .     A
C437   C481    1.489   .     S
C437   C1013   1.405   .     S
C438   C484    1.489   .     S
C438   C453    1.422   .     A
C438   C1014   1.405   1_554 S
C439   C68     1.353   1_565 S
C439   O115    1.390   1_565 S
C441   C446    1.418   .     S
C441   O465    1.289   .     A
C441   O467    1.290   .     A
C442   O468    1.290   .     A
C442   C445    1.418   .     S
C442   O466    1.289   .     A
C443   O471    1.387   .     S
C443   C445    1.401   .     A
C443   C453    1.407   .     A
C444   C446    1.401   .     A
C444   O473    1.387   .     S
C444   C454    1.407   .     A
C445   C447    1.378   .     A
C446   C448    1.378   .     A
C447   C449    1.387   .     A
C447   H457    1.084   .     S
C448   C450    1.387   .     A
C448   H458    1.084   .     S
C449   C451    1.420   .     A
C449   C455    1.414   .     A
C450   C456    1.414   .     A
C450   C452    1.420   .     A
C451   C453    1.429   .     A
C451   C1010   1.397   1_554 S
C452   C454    1.429   .     A
C452   C1009   1.397   .     S
C455   C475    1.492   .     S
C455   C995    1.405   1_554 S
C456   C478    1.492   .     S
C456   C996    1.405   .     S
N459   Zn470   2.031   .     S
N459   N522    1.283   .     S
N459   C553    1.409   .     S
N460   Zn469   2.031   .     S
O461   Zn469   1.958   .     S
O462   Zn470   1.958   .     S
O463   Zn470   1.978   .     S
O464   Zn469   1.978   .     S
O465   Zn469   2.003   .     S
O466   Zn470   2.003   .     S
O467   Zn470   2.006   .     S
O468   Zn469   2.006   .     S
O471   H472    0.989   .     S
O473   H474    0.988   .     S
C475   H476    1.085   .     S
C475   O105    1.221   1_565 S
C478   H479    1.085   .     S
O480   C106    1.221   1_565 S
C481   O483    1.221   .     D
C481   H110    1.084   1_565 S
C484   O486    1.221   .     D
H485   C112    1.084   1_565 S
H488   O115    0.990   1_565 S
O489   C68     1.390   1_565 S
O489   H118    0.990   1_565 S
C491   H492    1.085   .     S
C491   O493    1.220   .     D
C494   O496    1.220   .     D
C494   H495    1.084   .     S
C494   N522    1.409   .     S
C497   C501    1.410   .     S
C497   O525    1.295   .     A
C497   O523    1.276   .     A
C498   O526    1.295   .     A
C498   C502    1.410   .     S
C498   O524    1.276   .     A
C499   C516    1.422   .     A
C499   C543    1.489   .     S
C499   C1075   1.405   .     S
C500   C546    1.489   .     S
C500   C515    1.422   .     A
C500   C1076   1.405   1_554 S
C501   C130    1.353   1_565 S
C501   O177    1.390   1_565 S
C503   C508    1.418   .     S
C503   O527    1.289   .     A
C503   O529    1.290   .     A
C504   O530    1.290   .     A
C504   C507    1.418   .     S
C504   O528    1.289   .     A
C505   O533    1.387   .     S
C505   C507    1.401   .     A
C505   C515    1.407   .     A
C506   C508    1.401   .     A
C506   O535    1.387   .     S
C506   C516    1.407   .     A
C507   C509    1.378   .     A
C508   C510    1.378   .     A
C509   C511    1.387   .     A
C509   H519    1.084   .     S
C510   C512    1.387   .     A
C510   H520    1.084   .     S
C511   C513    1.420   .     A
C511   C517    1.414   .     A
C512   C518    1.414   .     A
C512   C514    1.420   .     A
C513   C515    1.429   .     A
C513   C1072   1.397   1_554 S
C514   C516    1.429   .     A
C514   C1071   1.397   .     S
C517   C537    1.492   .     S
C517   C1057   1.405   1_554 S
C518   C540    1.492   .     S
C518   C1058   1.405   .     S
N521   Zn532   2.031   .     S
N521   N398    1.283   1_655 S
N521   C429    1.409   1_655 S
N522   Zn531   2.031   .     S
O523   Zn531   1.958   .     S
O524   Zn532   1.958   .     S
O525   Zn532   1.978   .     S
O526   Zn531   1.978   .     S
O527   Zn531   2.003   .     S
O528   Zn532   2.003   .     S
O529   Zn532   2.006   .     S
O530   Zn531   2.006   .     S
O533   H534    0.989   .     S
O535   H536    0.988   .     S
C537   H538    1.085   .     S
C537   O167    1.221   1_565 S
C540   H541    1.085   .     S
O542   C168    1.221   1_565 S
C543   O545    1.221   .     D
C543   H172    1.084   1_565 S
C546   O548    1.221   .     D
H547   C174    1.084   1_565 S
H550   O177    0.990   1_565 S
O551   C130    1.390   1_565 S
O551   H180    0.990   1_565 S
C553   H554    1.085   .     S
C553   O555    1.220   .     D
C556   O558    1.220   .     D
C556   H557    1.084   .     S
C556   N398    1.409   1_655 S
C559   C563    1.410   .     S
C559   O587    1.295   .     A
C559   O585    1.276   .     A
C560   O588    1.295   .     A
C560   C564    1.410   .     S
C560   O586    1.276   .     A
C561   C578    1.422   .     A
C561   C605    1.489   .     S
C561   C21     1.405   1_556 S
C562   C608    1.489   .     S
C562   C577    1.422   .     A
C563   C750    1.353   .     S
C563   O797    1.390   .     S
C564   C935    1.353   1_545 S
C564   O985    1.390   1_545 S
C565   C570    1.418   .     S
C565   O589    1.289   .     A
C565   O591    1.290   .     A
C566   O592    1.290   .     A
C566   C569    1.418   .     S
C566   O590    1.289   .     A
C567   O595    1.387   .     S
C567   C569    1.401   .     A
C567   C577    1.407   .     A
C568   C570    1.401   .     A
C568   O597    1.387   .     S
C568   C578    1.407   .     A
C569   C571    1.378   .     A
C570   C572    1.378   .     A
C571   C573    1.387   .     A
C571   H581    1.084   .     S
C572   C574    1.387   .     A
C572   H582    1.084   .     S
C573   C575    1.420   .     A
C573   C579    1.414   .     A
C574   C580    1.414   .     A
C574   C576    1.420   .     A
C575   C577    1.429   .     A
C576   C578    1.429   .     A
C576   C17     1.397   1_556 S
C579   C599    1.492   .     S
C580   C602    1.492   .     S
C580   C4      1.405   1_556 S
N583   Zn594   2.031   .     S
N583   N646    1.283   .     S
N583   C677    1.409   .     S
N584   Zn593   2.031   .     S
N584   N707    1.283   1_455 S
N584   C742    1.409   1_455 S
O585   Zn593   1.958   .     S
O586   Zn594   1.958   .     S
O587   Zn594   1.978   .     S
O588   Zn593   1.978   .     S
O589   Zn593   2.003   .     S
O590   Zn594   2.003   .     S
O591   Zn594   2.006   .     S
O592   Zn593   2.006   .     S
O595   H596    0.989   .     S
O597   H598    0.988   .     S
C599   H600    1.085   .     S
C599   O787    1.221   .     S
O601   C971    1.221   1_545 S
C602   H603    1.085   .     S
C602   O976    1.221   1_545 S
O604   C788    1.221   .     S
C605   O607    1.221   .     D
C605   H792    1.084   .     S
H606   C977    1.084   1_545 S
C608   O610    1.221   .     D
C608   H981    1.084   1_545 S
H609   C794    1.084   .     S
O611   C935    1.390   1_545 S
O611   H984    0.990   1_545 S
H612   O797    0.990   .     S
O613   C750    1.390   .     S
O613   H800    0.990   .     S
H614   O985    0.990   1_545 S
C615   H616    1.085   .     S
C615   O617    1.220   .     D
C615   N707    1.409   1_455 S
C618   O620    1.220   .     D
C618   H619    1.084   .     S
C618   N646    1.409   .     S
C621   C625    1.410   .     S
C621   O649    1.295   .     A
C621   O647    1.276   .     A
C622   O650    1.295   .     A
C622   C626    1.410   .     S
C622   O648    1.276   .     A
C623   C640    1.422   .     A
C623   C667    1.489   .     S
C623   C83     1.405   1_556 S
C624   C670    1.489   .     S
C624   C639    1.422   .     A
C625   C812    1.353   .     S
C625   O859    1.390   .     S
C626   C997    1.353   1_545 S
C626   O1047   1.390   1_545 S
C627   C632    1.418   .     S
C627   O651    1.289   .     A
C627   O653    1.290   .     A
C628   O654    1.290   .     A
C628   C631    1.418   .     S
C628   O652    1.289   .     A
C629   O657    1.387   .     S
C629   C631    1.401   .     A
C629   C639    1.407   .     A
C630   C632    1.401   .     A
C630   O659    1.387   .     S
C630   C640    1.407   .     A
C631   C633    1.378   .     A
C632   C634    1.378   .     A
C633   C635    1.387   .     A
C633   H643    1.084   .     S
C634   C636    1.387   .     A
C634   H644    1.084   .     S
C635   C637    1.420   .     A
C635   C641    1.414   .     A
C636   C642    1.414   .     A
C636   C638    1.420   .     A
C637   C639    1.429   .     A
C638   C640    1.429   .     A
C638   C79     1.397   1_556 S
C641   C661    1.492   .     S
C642   C664    1.492   .     S
C642   C66     1.405   1_556 S
N645   Zn656   2.031   .     S
N645   N708    1.283   .     S
N645   C739    1.409   .     S
N646   Zn655   2.031   .     S
O647   Zn655   1.958   .     S
O648   Zn656   1.958   .     S
O649   Zn656   1.978   .     S
O650   Zn655   1.978   .     S
O651   Zn655   2.003   .     S
O652   Zn656   2.003   .     S
O653   Zn656   2.006   .     S
O654   Zn655   2.006   .     S
O657   H658    0.989   .     S
O659   H660    0.988   .     S
C661   H662    1.085   .     S
C661   O849    1.221   .     S
O663   C1033   1.221   1_545 S
C664   H665    1.085   .     S
C664   O1038   1.221   1_545 S
O666   C850    1.221   .     S
C667   O669    1.221   .     D
C667   H854    1.084   .     S
H668   C1039   1.084   1_545 S
C670   O672    1.221   .     D
C670   H1043   1.084   1_545 S
H671   C856    1.084   .     S
O673   C997    1.390   1_545 S
O673   H1046   0.990   1_545 S
H674   O859    0.990   .     S
O675   C812    1.390   .     S
O675   H862    0.990   .     S
H676   O1047   0.990   1_545 S
C677   H678    1.085   .     S
C677   O679    1.220   .     D
C680   O682    1.220   .     D
C680   H681    1.084   .     S
C680   N708    1.409   .     S
C683   C687    1.410   .     S
C683   O711    1.295   .     A
C683   O709    1.276   .     A
C684   O712    1.295   .     A
C684   C688    1.410   .     S
C684   O710    1.276   .     A
C685   C702    1.422   .     A
C685   C729    1.489   .     S
C685   C145    1.405   1_556 S
C686   C732    1.489   .     S
C686   C701    1.422   .     A
C687   C874    1.353   .     S
C687   O921    1.390   .     S
C688   C1059   1.353   1_545 S
C688   O1109   1.390   1_545 S
C689   C694    1.418   .     S
C689   O713    1.289   .     A
C689   O715    1.290   .     A
C690   O716    1.290   .     A
C690   C693    1.418   .     S
C690   O714    1.289   .     A
C691   O719    1.387   .     S
C691   C693    1.401   .     A
C691   C701    1.407   .     A
C692   C694    1.401   .     A
C692   O721    1.387   .     S
C692   C702    1.407   .     A
C693   C695    1.378   .     A
C694   C696    1.378   .     A
C695   C697    1.387   .     A
C695   H705    1.084   .     S
C696   C698    1.387   .     A
C696   H706    1.084   .     S
C697   C699    1.420   .     A
C697   C703    1.414   .     A
C698   C704    1.414   .     A
C698   C700    1.420   .     A
C699   C701    1.429   .     A
C700   C702    1.429   .     A
C700   C141    1.397   1_556 S
C703   C723    1.492   .     S
C704   C726    1.492   .     S
C704   C128    1.405   1_556 S
N707   Zn718   2.031   .     S
N707   N584    1.283   1_655 S
N707   C615    1.409   1_655 S
N708   Zn717   2.031   .     S
O709   Zn717   1.958   .     S
O710   Zn718   1.958   .     S
O711   Zn718   1.978   .     S
O712   Zn717   1.978   .     S
O713   Zn717   2.003   .     S
O714   Zn718   2.003   .     S
O715   Zn718   2.006   .     S
O716   Zn717   2.006   .     S
O719   H720    0.989   .     S
O721   H722    0.988   .     S
C723   H724    1.085   .     S
C723   O911    1.221   .     S
O725   C1095   1.221   1_545 S
C726   H727    1.085   .     S
C726   O1100   1.221   1_545 S
O728   C912    1.221   .     S
C729   O731    1.221   .     D
C729   H916    1.084   .     S
H730   C1101   1.084   1_545 S
C732   O734    1.221   .     D
C732   H1105   1.084   1_545 S
H733   C918    1.084   .     S
O735   C1059   1.390   1_545 S
O735   H1108   0.990   1_545 S
H736   O921    0.990   .     S
O737   C874    1.390   .     S
O737   H924    0.990   .     S
H738   O1109   0.990   1_545 S
C739   H740    1.085   .     S
C739   O741    1.220   .     D
C742   O744    1.220   .     D
C742   H743    1.084   .     S
C742   N584    1.409   1_655 S
C745   C749    1.410   .     S
C745   O773    1.295   .     A
C745   O771    1.276   .     A
C746   O774    1.295   .     A
C746   C750    1.410   .     S
C746   O772    1.276   .     A
C747   C764    1.422   .     A
C747   C791    1.489   .     S
C747   C207    1.405   1_556 S
C748   C794    1.489   .     S
C748   C763    1.422   .     A
C749   C936    1.353   .     S
C749   O983    1.390   .     S
C751   C756    1.418   .     S
C751   O775    1.289   .     A
C751   O777    1.290   .     A
C752   O778    1.290   .     A
C752   C755    1.418   .     S
C752   O776    1.289   .     A
C753   O781    1.387   .     S
C753   C755    1.401   .     A
C753   C763    1.407   .     A
C754   C756    1.401   .     A
C754   O783    1.387   .     S
C754   C764    1.407   .     A
C755   C757    1.378   .     A
C756   C758    1.378   .     A
C757   C759    1.387   .     A
C757   H767    1.084   .     S
C758   C760    1.387   .     A
C758   H768    1.084   .     S
C759   C761    1.420   .     A
C759   C765    1.414   .     A
C760   C766    1.414   .     A
C760   C762    1.420   .     A
C761   C763    1.429   .     A
C762   C764    1.429   .     A
C762   C203    1.397   1_556 S
C765   C785    1.492   .     S
C766   C788    1.492   .     S
C766   C190    1.405   1_556 S
N769   Zn780   2.031   .     S
N769   N832    1.283   .     S
N769   C863    1.409   .     S
N770   Zn779   2.031   .     S
N770   N893    1.283   1_455 S
N770   C928    1.409   1_455 S
O771   Zn779   1.958   .     S
O772   Zn780   1.958   .     S
O773   Zn780   1.978   .     S
O774   Zn779   1.978   .     S
O775   Zn779   2.003   .     S
O776   Zn780   2.003   .     S
O777   Zn780   2.006   .     S
O778   Zn779   2.006   .     S
O781   H782    0.989   .     S
O783   H784    0.988   .     S
C785   H786    1.085   .     S
C785   O973    1.221   .     S
C788   H789    1.085   .     S
O790   C974    1.221   .     S
C791   O793    1.221   .     D
C791   H978    1.084   .     S
C794   O796    1.221   .     D
H795   C980    1.084   .     S
H798   O983    0.990   .     S
O799   C936    1.390   .     S
O799   H986    0.990   .     S
C801   H802    1.085   .     S
C801   O803    1.220   .     D
C801   N893    1.409   1_455 S
C804   O806    1.220   .     D
C804   H805    1.084   .     S
C804   N832    1.409   .     S
C807   C811    1.410   .     S
C807   O835    1.295   .     A
C807   O833    1.276   .     A
C808   O836    1.295   .     A
C808   C812    1.410   .     S
C808   O834    1.276   .     A
C809   C826    1.422   .     A
C809   C853    1.489   .     S
C809   C269    1.405   1_556 S
C810   C856    1.489   .     S
C810   C825    1.422   .     A
C811   C998    1.353   .     S
C811   O1045   1.390   .     S
C813   C818    1.418   .     S
C813   O837    1.289   .     A
C813   O839    1.290   .     A
C814   O840    1.290   .     A
C814   C817    1.418   .     S
C814   O838    1.289   .     A
C815   O843    1.387   .     S
C815   C817    1.401   .     A
C815   C825    1.407   .     A
C816   C818    1.401   .     A
C816   O845    1.387   .     S
C816   C826    1.407   .     A
C817   C819    1.378   .     A
C818   C820    1.378   .     A
C819   C821    1.387   .     A
C819   H829    1.084   .     S
C820   C822    1.387   .     A
C820   H830    1.084   .     S
C821   C823    1.420   .     A
C821   C827    1.414   .     A
C822   C828    1.414   .     A
C822   C824    1.420   .     A
C823   C825    1.429   .     A
C824   C826    1.429   .     A
C824   C265    1.397   1_556 S
C827   C847    1.492   .     S
C828   C850    1.492   .     S
C828   C252    1.405   1_556 S
N831   Zn842   2.031   .     S
N831   N894    1.283   .     S
N831   C925    1.409   .     S
N832   Zn841   2.031   .     S
O833   Zn841   1.958   .     S
O834   Zn842   1.958   .     S
O835   Zn842   1.978   .     S
O836   Zn841   1.978   .     S
O837   Zn841   2.003   .     S
O838   Zn842   2.003   .     S
O839   Zn842   2.006   .     S
O840   Zn841   2.006   .     S
O843   H844    0.989   .     S
O845   H846    0.988   .     S
C847   H848    1.085   .     S
C847   O1035   1.221   .     S
C850   H851    1.085   .     S
O852   C1036   1.221   .     S
C853   O855    1.221   .     D
C853   H1040   1.084   .     S
C856   O858    1.221   .     D
H857   C1042   1.084   .     S
H860   O1045   0.990   .     S
O861   C998    1.390   .     S
O861   H1048   0.990   .     S
C863   H864    1.085   .     S
C863   O865    1.220   .     D
C866   O868    1.220   .     D
C866   H867    1.084   .     S
C866   N894    1.409   .     S
C869   C873    1.410   .     S
C869   O897    1.295   .     A
C869   O895    1.276   .     A
C870   O898    1.295   .     A
C870   C874    1.410   .     S
C870   O896    1.276   .     A
C871   C888    1.422   .     A
C871   C915    1.489   .     S
C871   C331    1.405   1_556 S
C872   C918    1.489   .     S
C872   C887    1.422   .     A
C873   C1060   1.353   .     S
C873   O1107   1.390   .     S
C875   C880    1.418   .     S
C875   O899    1.289   .     A
C875   O901    1.290   .     A
C876   O902    1.290   .     A
C876   C879    1.418   .     S
C876   O900    1.289   .     A
C877   O905    1.387   .     S
C877   C879    1.401   .     A
C877   C887    1.407   .     A
C878   C880    1.401   .     A
C878   O907    1.387   .     S
C878   C888    1.407   .     A
C879   C881    1.378   .     A
C880   C882    1.378   .     A
C881   C883    1.387   .     A
C881   H891    1.084   .     S
C882   C884    1.387   .     A
C882   H892    1.084   .     S
C883   C885    1.420   .     A
C883   C889    1.414   .     A
C884   C890    1.414   .     A
C884   C886    1.420   .     A
C885   C887    1.429   .     A
C886   C888    1.429   .     A
C886   C327    1.397   1_556 S
C889   C909    1.492   .     S
C890   C912    1.492   .     S
C890   C314    1.405   1_556 S
N893   Zn904   2.031   .     S
N893   N770    1.283   1_655 S
N893   C801    1.409   1_655 S
N894   Zn903   2.031   .     S
O895   Zn903   1.958   .     S
O896   Zn904   1.958   .     S
O897   Zn904   1.978   .     S
O898   Zn903   1.978   .     S
O899   Zn903   2.003   .     S
O900   Zn904   2.003   .     S
O901   Zn904   2.006   .     S
O902   Zn903   2.006   .     S
O905   H906    0.989   .     S
O907   H908    0.988   .     S
C909   H910    1.085   .     S
C909   O1097   1.221   .     S
C912   H913    1.085   .     S
O914   C1098   1.221   .     S
C915   O917    1.221   .     D
C915   H1102   1.084   .     S
C918   O920    1.221   .     D
H919   C1104   1.084   .     S
H922   O1107   0.990   .     S
O923   C1060   1.390   .     S
O923   H1110   0.990   .     S
C925   H926    1.085   .     S
C925   O927    1.220   .     D
C928   O930    1.220   .     D
C928   H929    1.084   .     S
C928   N770    1.409   1_655 S
C931   C935    1.410   .     S
C931   O959    1.295   .     A
C931   O957    1.276   .     A
C932   O960    1.295   .     A
C932   C936    1.410   .     S
C932   O958    1.276   .     A
C933   C950    1.422   .     A
C933   C977    1.489   .     S
C933   C393    1.405   1_556 S
C934   C980    1.489   .     S
C934   C949    1.422   .     A
C935   C564    1.353   1_565 S
C935   O611    1.390   1_565 S
C937   C942    1.418   .     S
C937   O961    1.289   .     A
C937   O963    1.290   .     A
C938   O964    1.290   .     A
C938   C941    1.418   .     S
C938   O962    1.289   .     A
C939   O967    1.387   .     S
C939   C941    1.401   .     A
C939   C949    1.407   .     A
C940   C942    1.401   .     A
C940   O969    1.387   .     S
C940   C950    1.407   .     A
C941   C943    1.378   .     A
C942   C944    1.378   .     A
C943   C945    1.387   .     A
C943   H953    1.084   .     S
C944   C946    1.387   .     A
C944   H954    1.084   .     S
C945   C947    1.420   .     A
C945   C951    1.414   .     A
C946   C952    1.414   .     A
C946   C948    1.420   .     A
C947   C949    1.429   .     A
C948   C950    1.429   .     A
C948   C389    1.397   1_556 S
C951   C971    1.492   .     S
C952   C974    1.492   .     S
C952   C376    1.405   1_556 S
N955   Zn966   2.031   .     S
N955   N1018   1.283   .     S
N955   C1049   1.409   .     S
N956   Zn965   2.031   .     S
N956   N1079   1.283   1_455 S
N956   C1114   1.409   1_455 S
O957   Zn965   1.958   .     S
O958   Zn966   1.958   .     S
O959   Zn966   1.978   .     S
O960   Zn965   1.978   .     S
O961   Zn965   2.003   .     S
O962   Zn966   2.003   .     S
O963   Zn966   2.006   .     S
O964   Zn965   2.006   .     S
O967   H968    0.989   .     S
O969   H970    0.988   .     S
C971   H972    1.085   .     S
C971   O601    1.221   1_565 S
C974   H975    1.085   .     S
O976   C602    1.221   1_565 S
C977   O979    1.221   .     D
C977   H606    1.084   1_565 S
C980   O982    1.221   .     D
H981   C608    1.084   1_565 S
H984   O611    0.990   1_565 S
O985   C564    1.390   1_565 S
O985   H614    0.990   1_565 S
C987   H988    1.085   .     S
C987   O989    1.220   .     D
C987   N1079   1.409   1_455 S
C990   O992    1.220   .     D
C990   H991    1.084   .     S
C990   N1018   1.409   .     S
C993   C997    1.410   .     S
C993   O1021   1.295   .     A
C993   O1019   1.276   .     A
C994   O1022   1.295   .     A
C994   C998    1.410   .     S
C994   O1020   1.276   .     A
C995   C1012   1.422   .     A
C995   C1039   1.489   .     S
C995   C455    1.405   1_556 S
C996   C1042   1.489   .     S
C996   C1011   1.422   .     A
C997   C626    1.353   1_565 S
C997   O673    1.390   1_565 S
C999   C1004   1.418   .     S
C999   O1023   1.289   .     A
C999   O1025   1.290   .     A
C1000  O1026   1.290   .     A
C1000  C1003   1.418   .     S
C1000  O1024   1.289   .     A
C1001  O1029   1.387   .     S
C1001  C1003   1.401   .     A
C1001  C1011   1.407   .     A
C1002  C1004   1.401   .     A
C1002  O1031   1.387   .     S
C1002  C1012   1.407   .     A
C1003  C1005   1.378   .     A
C1004  C1006   1.378   .     A
C1005  C1007   1.387   .     A
C1005  H1015   1.084   .     S
C1006  C1008   1.387   .     A
C1006  H1016   1.084   .     S
C1007  C1009   1.420   .     A
C1007  C1013   1.414   .     A
C1008  C1014   1.414   .     A
C1008  C1010   1.420   .     A
C1009  C1011   1.429   .     A
C1010  C1012   1.429   .     A
C1010  C451    1.397   1_556 S
C1013  C1033   1.492   .     S
C1014  C1036   1.492   .     S
C1014  C438    1.405   1_556 S
N1017  Zn1028  2.031   .     S
N1017  N1080   1.283   .     S
N1017  C1111   1.409   .     S
N1018  Zn1027  2.031   .     S
O1019  Zn1027  1.958   .     S
O1020  Zn1028  1.958   .     S
O1021  Zn1028  1.978   .     S
O1022  Zn1027  1.978   .     S
O1023  Zn1027  2.003   .     S
O1024  Zn1028  2.003   .     S
O1025  Zn1028  2.006   .     S
O1026  Zn1027  2.006   .     S
O1029  H1030   0.989   .     S
O1031  H1032   0.988   .     S
C1033  H1034   1.085   .     S
C1033  O663    1.221   1_565 S
C1036  H1037   1.085   .     S
O1038  C664    1.221   1_565 S
C1039  O1041   1.221   .     D
C1039  H668    1.084   1_565 S
C1042  O1044   1.221   .     D
H1043  C670    1.084   1_565 S
H1046  O673    0.990   1_565 S
O1047  C626    1.390   1_565 S
O1047  H676    0.990   1_565 S
C1049  H1050   1.085   .     S
C1049  O1051   1.220   .     D
C1052  O1054   1.220   .     D
C1052  H1053   1.084   .     S
C1052  N1080   1.409   .     S
C1055  C1059   1.410   .     S
C1055  O1083   1.295   .     A
C1055  O1081   1.276   .     A
C1056  O1084   1.295   .     A
C1056  C1060   1.410   .     S
C1056  O1082   1.276   .     A
C1057  C1074   1.422   .     A
C1057  C1101   1.489   .     S
C1057  C517    1.405   1_556 S
C1058  C1104   1.489   .     S
C1058  C1073   1.422   .     A
C1059  C688    1.353   1_565 S
C1059  O735    1.390   1_565 S
C1061  C1066   1.418   .     S
C1061  O1085   1.289   .     A
C1061  O1087   1.290   .     A
C1062  O1088   1.290   .     A
C1062  C1065   1.418   .     S
C1062  O1086   1.289   .     A
C1063  O1091   1.387   .     S
C1063  C1065   1.401   .     A
C1063  C1073   1.407   .     A
C1064  C1066   1.401   .     A
C1064  O1093   1.387   .     S
C1064  C1074   1.407   .     A
C1065  C1067   1.378   .     A
C1066  C1068   1.378   .     A
C1067  C1069   1.387   .     A
C1067  H1077   1.084   .     S
C1068  C1070   1.387   .     A
C1068  H1078   1.084   .     S
C1069  C1071   1.420   .     A
C1069  C1075   1.414   .     A
C1070  C1076   1.414   .     A
C1070  C1072   1.420   .     A
C1071  C1073   1.429   .     A
C1072  C1074   1.429   .     A
C1072  C513    1.397   1_556 S
C1075  C1095   1.492   .     S
C1076  C1098   1.492   .     S
C1076  C500    1.405   1_556 S
N1079  Zn1090  2.031   .     S
N1079  N956    1.283   1_655 S
N1079  C987    1.409   1_655 S
N1080  Zn1089  2.031   .     S
O1081  Zn1089  1.958   .     S
O1082  Zn1090  1.958   .     S
O1083  Zn1090  1.978   .     S
O1084  Zn1089  1.978   .     S
O1085  Zn1089  2.003   .     S
O1086  Zn1090  2.003   .     S
O1087  Zn1090  2.006   .     S
O1088  Zn1089  2.006   .     S
O1091  H1092   0.989   .     S
O1093  H1094   0.988   .     S
C1095  H1096   1.085   .     S
C1095  O725    1.221   1_565 S
C1098  H1099   1.085   .     S
O1100  C726    1.221   1_565 S
C1101  O1103   1.221   .     D
C1101  H730    1.084   1_565 S
C1104  O1106   1.221   .     D
H1105  C732    1.084   1_565 S
H1108  O735    0.990   1_565 S
O1109  C688    1.390   1_565 S
O1109  H738    0.990   1_565 S
C1111  H1112   1.085   .     S
C1111  O1113   1.220   .     D
C1114  O1116   1.220   .     D
C1114  H1115   1.084   .     S
C1114  N956    1.409   1_655 S
