data_str_m2_o10_o17_pcu_sym.51
_audit_creation_date              2020-01-03
_audit_creation_method            'Materials Studio'
_symmetry_space_group_name_H-M    'P1'
_symmetry_Int_Tables_number       1
_symmetry_cell_setting            triclinic
loop_
_symmetry_equiv_pos_as_xyz
  x,y,z
_cell_length_a                    29.9888
_cell_length_b                    26.2636
_cell_length_c                    22.8231
_cell_angle_alpha                 103.2925
_cell_angle_beta                  96.2016
_cell_angle_gamma                 96.4895
loop_
_atom_site_label
_atom_site_type_symbol
_atom_site_fract_x
_atom_site_fract_y
_atom_site_fract_z
_atom_site_U_iso_or_equiv
_atom_site_adp_type
_atom_site_occupancy
C1     C     0.24758   0.06675   0.15131   0.00000  Uiso   1.00
C2     C     0.08729   0.12473   0.13545   0.00000  Uiso   1.00
C3     C     0.38317   0.16249   0.16686   0.00000  Uiso   1.00
C4     C     0.11664   0.17021   0.16608   0.00000  Uiso   1.00
C5     C     0.39961   0.11677   0.13591   0.00000  Uiso   1.00
C6     C     0.10004   0.21563   0.19731   0.00000  Uiso   1.00
C7     C     0.44723   0.11585   0.14254   0.00000  Uiso   1.00
C8     C     0.05245   0.21643   0.19026   0.00000  Uiso   1.00
C9     C     0.47635   0.16466   0.16709   0.00000  Uiso   1.00
C10    C     0.02336   0.16768   0.16566   0.00000  Uiso   1.00
C11    C     0.45856   0.21066   0.19327   0.00000  Uiso   1.00
C12    C     0.25239   0.26658   0.18203   0.00000  Uiso   1.00
C13    C     0.04118   0.12196   0.13883   0.00000  Uiso   1.00
C14    C     0.46724   0.06897   0.12461   0.00000  Uiso   1.00
C15    C     0.03254   0.26333   0.20734   0.00000  Uiso   1.00
C16    C     0.36652   0.07326   0.09144   0.00000  Uiso   1.00
C17    C     0.13290   0.25919   0.24205   0.00000  Uiso   1.00
C18    C     0.44395   0.01520   0.12163   0.00000  Uiso   1.00
C19    C     0.05610   0.31623   0.20770   0.00000  Uiso   1.00
C20    C     0.20304   0.31288   0.09378   0.00000  Uiso   1.00
C21    C     0.29681   0.02047   0.23970   0.00000  Uiso   1.00
C22    C     0.20055   0.11089   0.31707   0.00000  Uiso   1.00
C23    C     0.01328   0.07333   0.11852   0.00000  Uiso   1.00
C24    C     0.29959   0.22235   0.01634   0.00000  Uiso   1.00
C25    C     0.48645   0.25931   0.21302   0.00000  Uiso   1.00
C26    C     0.23966   0.01056   0.14495   0.00000  Uiso   1.00
C27    C     0.26026   0.32278   0.18842   0.00000  Uiso   1.00
C28    C     0.16483   0.16815   0.16660   0.00000  Uiso   1.00
C29    C     0.33508   0.16484   0.16663   0.00000  Uiso   1.00
C30    C     0.41248   0.20829   0.19619   0.00000  Uiso   1.00
Cu31   Cu    0.25501   0.17246   0.22813   0.00000  Uiso   1.00
Cu32   Cu    0.24500   0.16087   0.10521   0.00000  Uiso   1.00
H33    H     0.39879   0.24342   0.21758   0.00000  Uiso   1.00
H34    H     0.15565   0.28040   0.21744   0.00000  Uiso   1.00
H35    H     0.43733   0.27014   0.08407   0.00000  Uiso   1.00
H36    H     0.10001   0.02522   0.17005   0.00000  Uiso   1.00
H37    H     0.18310   0.00610   0.07381   0.00000  Uiso   1.00
H38    H     0.21851   0.28911   0.05658   0.00000  Uiso   1.00
H39    H     0.17846   0.28696   0.11102   0.00000  Uiso   1.00
H40    H     0.31671   0.32727   0.25977   0.00000  Uiso   1.00
H41    H     0.32144   0.04640   0.22255   0.00000  Uiso   1.00
H42    H     0.28126   0.04423   0.27683   0.00000  Uiso   1.00
H43    H     0.16188   0.06255   0.24356   0.00000  Uiso   1.00
H44    H     0.10099   0.09018   0.11258   0.00000  Uiso   1.00
H45    H     0.33930   0.26963   0.09009   0.00000  Uiso   1.00
H46    H     0.02828   0.03794   0.10223   0.00000  Uiso   1.00
H47    H     0.47146   0.29491   0.22829   0.00000  Uiso   1.00
H48    H     0.38330   0.04530   0.06016   0.00000  Uiso   1.00
H49    H     0.34443   0.05154   0.11635   0.00000  Uiso   1.00
H50    H     0.34512   0.09020   0.06028   0.00000  Uiso   1.00
H51    H     0.11592   0.28768   0.27239   0.00000  Uiso   1.00
H52    H     0.15363   0.24224   0.27392   0.00000  Uiso   1.00
N53    N     0.23745   0.15214   0.01284   0.00000  Uiso   1.00
N54    N     0.26256   0.18119   0.32049   0.00000  Uiso   1.00
O55    O     0.25326   0.09538   0.20659   0.00000  Uiso   1.00
O56    O     0.45498   0.30456   0.08119   0.00000  Uiso   1.00
O57    O     0.04750   0.02261   0.24203   0.00000  Uiso   1.00
O58    O     0.08687   0.32063   0.16668   0.00000  Uiso   1.00
O59    O     0.17950   0.08893   0.01603   0.00000  Uiso   1.00
O60    O     0.18742   0.09327   0.25505   0.00000  Uiso   1.00
O61    O     0.32077   0.24419   0.31740   0.00000  Uiso   1.00
O62    O     0.31277   0.23998   0.07842   0.00000  Uiso   1.00
O63    O     0.24675   0.23796   0.12674   0.00000  Uiso   1.00
O64    O     0.24480   0.08559   0.10279   0.00000  Uiso   1.00
O65    O     0.25520   0.24774   0.23055   0.00000  Uiso   1.00
O66    O     0.18936   0.17155   0.21857   0.00000  Uiso   1.00
O67    O     0.31065   0.16179   0.11476   0.00000  Uiso   1.00
O68    O     0.18090   0.16176   0.11477   0.00000  Uiso   1.00
O69    O     0.31910   0.17157   0.21857   0.00000  Uiso   1.00
O70    O     0.41638   0.00910   0.15609   0.00000  Uiso   1.00
C71    C     0.74758   0.06675   0.15131   0.00000  Uiso   1.00
C72    C     0.58729   0.12473   0.13545   0.00000  Uiso   1.00
C73    C     0.88317   0.16249   0.16686   0.00000  Uiso   1.00
C74    C     0.61664   0.17021   0.16608   0.00000  Uiso   1.00
C75    C     0.89961   0.11677   0.13591   0.00000  Uiso   1.00
C76    C     0.60004   0.21563   0.19731   0.00000  Uiso   1.00
C77    C     0.94723   0.11585   0.14254   0.00000  Uiso   1.00
C78    C     0.55245   0.21643   0.19026   0.00000  Uiso   1.00
C79    C     0.97635   0.16466   0.16709   0.00000  Uiso   1.00
C80    C     0.52336   0.16768   0.16566   0.00000  Uiso   1.00
C81    C     0.95856   0.21066   0.19327   0.00000  Uiso   1.00
C82    C     0.75239   0.26658   0.18203   0.00000  Uiso   1.00
C83    C     0.54118   0.12196   0.13883   0.00000  Uiso   1.00
C84    C     0.96724   0.06897   0.12461   0.00000  Uiso   1.00
C85    C     0.53254   0.26333   0.20734   0.00000  Uiso   1.00
C86    C     0.86652   0.07326   0.09144   0.00000  Uiso   1.00
C87    C     0.63290   0.25919   0.24205   0.00000  Uiso   1.00
C88    C     0.94395   0.01520   0.12163   0.00000  Uiso   1.00
C89    C     0.55610   0.31623   0.20770   0.00000  Uiso   1.00
C90    C     0.70304   0.31288   0.09378   0.00000  Uiso   1.00
C91    C     0.79681   0.02047   0.23970   0.00000  Uiso   1.00
C92    C     0.70055   0.11089   0.31707   0.00000  Uiso   1.00
C93    C     0.51328   0.07333   0.11852   0.00000  Uiso   1.00
C94    C     0.79959   0.22235   0.01634   0.00000  Uiso   1.00
C95    C     0.98645   0.25931   0.21302   0.00000  Uiso   1.00
C96    C     0.73966   0.01056   0.14495   0.00000  Uiso   1.00
C97    C     0.76026   0.32278   0.18842   0.00000  Uiso   1.00
C98    C     0.66483   0.16815   0.16660   0.00000  Uiso   1.00
C99    C     0.83508   0.16484   0.16663   0.00000  Uiso   1.00
C100   C     0.91248   0.20829   0.19619   0.00000  Uiso   1.00
Cu101  Cu    0.75501   0.17246   0.22813   0.00000  Uiso   1.00
Cu102  Cu    0.74500   0.16087   0.10521   0.00000  Uiso   1.00
H103   H     0.89879   0.24342   0.21758   0.00000  Uiso   1.00
H104   H     0.65565   0.28040   0.21744   0.00000  Uiso   1.00
H105   H     0.93733   0.27014   0.08407   0.00000  Uiso   1.00
H106   H     0.60001   0.02522   0.17005   0.00000  Uiso   1.00
H107   H     0.68310   0.00610   0.07381   0.00000  Uiso   1.00
H108   H     0.71851   0.28911   0.05658   0.00000  Uiso   1.00
H109   H     0.67846   0.28696   0.11102   0.00000  Uiso   1.00
H110   H     0.81671   0.32727   0.25977   0.00000  Uiso   1.00
H111   H     0.82144   0.04640   0.22255   0.00000  Uiso   1.00
H112   H     0.78126   0.04423   0.27683   0.00000  Uiso   1.00
H113   H     0.66188   0.06255   0.24356   0.00000  Uiso   1.00
H114   H     0.60099   0.09018   0.11258   0.00000  Uiso   1.00
H115   H     0.83930   0.26963   0.09009   0.00000  Uiso   1.00
H116   H     0.52828   0.03794   0.10223   0.00000  Uiso   1.00
H117   H     0.97146   0.29491   0.22829   0.00000  Uiso   1.00
H118   H     0.88330   0.04530   0.06016   0.00000  Uiso   1.00
H119   H     0.84443   0.05154   0.11635   0.00000  Uiso   1.00
H120   H     0.84512   0.09020   0.06028   0.00000  Uiso   1.00
H121   H     0.61592   0.28768   0.27239   0.00000  Uiso   1.00
H122   H     0.65363   0.24224   0.27392   0.00000  Uiso   1.00
N123   N     0.73745   0.15214   0.01284   0.00000  Uiso   1.00
N124   N     0.76256   0.18119   0.32049   0.00000  Uiso   1.00
O125   O     0.75326   0.09538   0.20659   0.00000  Uiso   1.00
O126   O     0.95498   0.30456   0.08119   0.00000  Uiso   1.00
O127   O     0.54750   0.02261   0.24203   0.00000  Uiso   1.00
O128   O     0.58687   0.32063   0.16668   0.00000  Uiso   1.00
O129   O     0.67950   0.08893   0.01603   0.00000  Uiso   1.00
O130   O     0.68742   0.09327   0.25505   0.00000  Uiso   1.00
O131   O     0.82077   0.24419   0.31740   0.00000  Uiso   1.00
O132   O     0.81277   0.23998   0.07842   0.00000  Uiso   1.00
O133   O     0.74675   0.23796   0.12674   0.00000  Uiso   1.00
O134   O     0.74480   0.08559   0.10279   0.00000  Uiso   1.00
O135   O     0.75520   0.24774   0.23055   0.00000  Uiso   1.00
O136   O     0.68936   0.17155   0.21857   0.00000  Uiso   1.00
O137   O     0.81065   0.16179   0.11476   0.00000  Uiso   1.00
O138   O     0.68090   0.16176   0.11477   0.00000  Uiso   1.00
O139   O     0.81910   0.17157   0.21857   0.00000  Uiso   1.00
O140   O     0.91638   0.00910   0.15609   0.00000  Uiso   1.00
C141   C     0.24758   0.40009   0.15131   0.00000  Uiso   1.00
C142   C     0.08729   0.45807   0.13545   0.00000  Uiso   1.00
C143   C     0.38317   0.49583   0.16686   0.00000  Uiso   1.00
C144   C     0.11664   0.50354   0.16608   0.00000  Uiso   1.00
C145   C     0.39961   0.45010   0.13591   0.00000  Uiso   1.00
C146   C     0.10004   0.54896   0.19731   0.00000  Uiso   1.00
C147   C     0.44723   0.44919   0.14254   0.00000  Uiso   1.00
C148   C     0.05245   0.54976   0.19026   0.00000  Uiso   1.00
C149   C     0.47635   0.49800   0.16709   0.00000  Uiso   1.00
C150   C     0.02336   0.50101   0.16566   0.00000  Uiso   1.00
C151   C     0.45856   0.54399   0.19327   0.00000  Uiso   1.00
C152   C     0.25239   0.59991   0.18203   0.00000  Uiso   1.00
C153   C     0.04118   0.45530   0.13883   0.00000  Uiso   1.00
C154   C     0.46724   0.40231   0.12461   0.00000  Uiso   1.00
C155   C     0.03254   0.59666   0.20734   0.00000  Uiso   1.00
C156   C     0.36652   0.40659   0.09144   0.00000  Uiso   1.00
C157   C     0.13290   0.59252   0.24205   0.00000  Uiso   1.00
C158   C     0.44395   0.34853   0.12163   0.00000  Uiso   1.00
C159   C     0.05610   0.64957   0.20770   0.00000  Uiso   1.00
C160   C     0.20304   0.64621   0.09378   0.00000  Uiso   1.00
C161   C     0.29681   0.35380   0.23970   0.00000  Uiso   1.00
C162   C     0.20055   0.44422   0.31707   0.00000  Uiso   1.00
C163   C     0.01328   0.40666   0.11852   0.00000  Uiso   1.00
C164   C     0.29959   0.55568   0.01634   0.00000  Uiso   1.00
C165   C     0.48645   0.59264   0.21302   0.00000  Uiso   1.00
C166   C     0.23966   0.34389   0.14495   0.00000  Uiso   1.00
C167   C     0.26026   0.65611   0.18842   0.00000  Uiso   1.00
C168   C     0.16483   0.50148   0.16660   0.00000  Uiso   1.00
C169   C     0.33508   0.49818   0.16663   0.00000  Uiso   1.00
C170   C     0.41248   0.54163   0.19619   0.00000  Uiso   1.00
Cu171  Cu    0.25501   0.50579   0.22813   0.00000  Uiso   1.00
Cu172  Cu    0.24500   0.49421   0.10521   0.00000  Uiso   1.00
H173   H     0.39879   0.57676   0.21758   0.00000  Uiso   1.00
H174   H     0.15565   0.61374   0.21744   0.00000  Uiso   1.00
H175   H     0.43733   0.60347   0.08407   0.00000  Uiso   1.00
H176   H     0.10001   0.35856   0.17005   0.00000  Uiso   1.00
H177   H     0.18310   0.33943   0.07381   0.00000  Uiso   1.00
H178   H     0.21851   0.62244   0.05658   0.00000  Uiso   1.00
H179   H     0.17846   0.62030   0.11102   0.00000  Uiso   1.00
H180   H     0.31671   0.66060   0.25977   0.00000  Uiso   1.00
H181   H     0.32144   0.37973   0.22255   0.00000  Uiso   1.00
H182   H     0.28126   0.37756   0.27683   0.00000  Uiso   1.00
H183   H     0.16188   0.39588   0.24356   0.00000  Uiso   1.00
H184   H     0.10099   0.42351   0.11258   0.00000  Uiso   1.00
H185   H     0.33930   0.60296   0.09009   0.00000  Uiso   1.00
H186   H     0.02828   0.37128   0.10223   0.00000  Uiso   1.00
H187   H     0.47146   0.62824   0.22829   0.00000  Uiso   1.00
H188   H     0.38330   0.37864   0.06016   0.00000  Uiso   1.00
H189   H     0.34443   0.38488   0.11635   0.00000  Uiso   1.00
H190   H     0.34512   0.42353   0.06028   0.00000  Uiso   1.00
H191   H     0.11592   0.62101   0.27239   0.00000  Uiso   1.00
H192   H     0.15363   0.57557   0.27392   0.00000  Uiso   1.00
N193   N     0.23745   0.48547   0.01284   0.00000  Uiso   1.00
N194   N     0.26256   0.51453   0.32049   0.00000  Uiso   1.00
O195   O     0.25326   0.42871   0.20659   0.00000  Uiso   1.00
O196   O     0.45498   0.63790   0.08119   0.00000  Uiso   1.00
O197   O     0.04750   0.35595   0.24203   0.00000  Uiso   1.00
O198   O     0.08687   0.65396   0.16668   0.00000  Uiso   1.00
O199   O     0.17950   0.42226   0.01603   0.00000  Uiso   1.00
O200   O     0.18742   0.42661   0.25505   0.00000  Uiso   1.00
O201   O     0.32077   0.57752   0.31740   0.00000  Uiso   1.00
O202   O     0.31277   0.57331   0.07842   0.00000  Uiso   1.00
O203   O     0.24675   0.57129   0.12674   0.00000  Uiso   1.00
O204   O     0.24480   0.41892   0.10279   0.00000  Uiso   1.00
O205   O     0.25520   0.58108   0.23055   0.00000  Uiso   1.00
O206   O     0.18936   0.50488   0.21857   0.00000  Uiso   1.00
O207   O     0.31065   0.49512   0.11476   0.00000  Uiso   1.00
O208   O     0.18090   0.49510   0.11477   0.00000  Uiso   1.00
O209   O     0.31910   0.50490   0.21857   0.00000  Uiso   1.00
O210   O     0.41638   0.34244   0.15609   0.00000  Uiso   1.00
C211   C     0.74758   0.40009   0.15131   0.00000  Uiso   1.00
C212   C     0.58729   0.45807   0.13545   0.00000  Uiso   1.00
C213   C     0.88317   0.49583   0.16686   0.00000  Uiso   1.00
C214   C     0.61664   0.50354   0.16608   0.00000  Uiso   1.00
C215   C     0.89961   0.45010   0.13591   0.00000  Uiso   1.00
C216   C     0.60004   0.54896   0.19731   0.00000  Uiso   1.00
C217   C     0.94723   0.44919   0.14254   0.00000  Uiso   1.00
C218   C     0.55245   0.54976   0.19026   0.00000  Uiso   1.00
C219   C     0.97635   0.49800   0.16709   0.00000  Uiso   1.00
C220   C     0.52336   0.50101   0.16566   0.00000  Uiso   1.00
C221   C     0.95856   0.54399   0.19327   0.00000  Uiso   1.00
C222   C     0.75239   0.59991   0.18203   0.00000  Uiso   1.00
C223   C     0.54118   0.45530   0.13883   0.00000  Uiso   1.00
C224   C     0.96724   0.40231   0.12461   0.00000  Uiso   1.00
C225   C     0.53254   0.59666   0.20734   0.00000  Uiso   1.00
C226   C     0.86652   0.40659   0.09144   0.00000  Uiso   1.00
C227   C     0.63290   0.59252   0.24205   0.00000  Uiso   1.00
C228   C     0.94395   0.34853   0.12163   0.00000  Uiso   1.00
C229   C     0.55610   0.64957   0.20770   0.00000  Uiso   1.00
C230   C     0.70304   0.64621   0.09378   0.00000  Uiso   1.00
C231   C     0.79681   0.35380   0.23970   0.00000  Uiso   1.00
C232   C     0.70055   0.44422   0.31707   0.00000  Uiso   1.00
C233   C     0.51328   0.40666   0.11852   0.00000  Uiso   1.00
C234   C     0.79959   0.55568   0.01634   0.00000  Uiso   1.00
C235   C     0.98645   0.59264   0.21302   0.00000  Uiso   1.00
C236   C     0.73966   0.34389   0.14495   0.00000  Uiso   1.00
C237   C     0.76026   0.65611   0.18842   0.00000  Uiso   1.00
C238   C     0.66483   0.50148   0.16660   0.00000  Uiso   1.00
C239   C     0.83508   0.49818   0.16663   0.00000  Uiso   1.00
C240   C     0.91248   0.54163   0.19619   0.00000  Uiso   1.00
Cu241  Cu    0.75501   0.50579   0.22813   0.00000  Uiso   1.00
Cu242  Cu    0.74500   0.49421   0.10521   0.00000  Uiso   1.00
H243   H     0.89879   0.57676   0.21758   0.00000  Uiso   1.00
H244   H     0.65565   0.61374   0.21744   0.00000  Uiso   1.00
H245   H     0.93733   0.60347   0.08407   0.00000  Uiso   1.00
H246   H     0.60001   0.35856   0.17005   0.00000  Uiso   1.00
H247   H     0.68310   0.33943   0.07381   0.00000  Uiso   1.00
H248   H     0.71851   0.62244   0.05658   0.00000  Uiso   1.00
H249   H     0.67846   0.62030   0.11102   0.00000  Uiso   1.00
H250   H     0.81671   0.66060   0.25977   0.00000  Uiso   1.00
H251   H     0.82144   0.37973   0.22255   0.00000  Uiso   1.00
H252   H     0.78126   0.37756   0.27683   0.00000  Uiso   1.00
H253   H     0.66188   0.39588   0.24356   0.00000  Uiso   1.00
H254   H     0.60099   0.42351   0.11258   0.00000  Uiso   1.00
H255   H     0.83930   0.60296   0.09009   0.00000  Uiso   1.00
H256   H     0.52828   0.37128   0.10223   0.00000  Uiso   1.00
H257   H     0.97146   0.62824   0.22829   0.00000  Uiso   1.00
H258   H     0.88330   0.37864   0.06016   0.00000  Uiso   1.00
H259   H     0.84443   0.38488   0.11635   0.00000  Uiso   1.00
H260   H     0.84512   0.42353   0.06028   0.00000  Uiso   1.00
H261   H     0.61592   0.62101   0.27239   0.00000  Uiso   1.00
H262   H     0.65363   0.57557   0.27392   0.00000  Uiso   1.00
N263   N     0.73745   0.48547   0.01284   0.00000  Uiso   1.00
N264   N     0.76256   0.51453   0.32049   0.00000  Uiso   1.00
O265   O     0.75326   0.42871   0.20659   0.00000  Uiso   1.00
O266   O     0.95498   0.63790   0.08119   0.00000  Uiso   1.00
O267   O     0.54750   0.35595   0.24203   0.00000  Uiso   1.00
O268   O     0.58687   0.65396   0.16668   0.00000  Uiso   1.00
O269   O     0.67950   0.42226   0.01603   0.00000  Uiso   1.00
O270   O     0.68742   0.42661   0.25505   0.00000  Uiso   1.00
O271   O     0.82077   0.57752   0.31740   0.00000  Uiso   1.00
O272   O     0.81277   0.57331   0.07842   0.00000  Uiso   1.00
O273   O     0.74675   0.57129   0.12674   0.00000  Uiso   1.00
O274   O     0.74480   0.41892   0.10279   0.00000  Uiso   1.00
O275   O     0.75520   0.58108   0.23055   0.00000  Uiso   1.00
O276   O     0.68936   0.50488   0.21857   0.00000  Uiso   1.00
O277   O     0.81065   0.49512   0.11476   0.00000  Uiso   1.00
O278   O     0.68090   0.49510   0.11477   0.00000  Uiso   1.00
O279   O     0.81910   0.50490   0.21857   0.00000  Uiso   1.00
O280   O     0.91638   0.34244   0.15609   0.00000  Uiso   1.00
C281   C     0.24758   0.73342   0.15131   0.00000  Uiso   1.00
C282   C     0.08729   0.79140   0.13545   0.00000  Uiso   1.00
C283   C     0.38317   0.82916   0.16686   0.00000  Uiso   1.00
C284   C     0.11664   0.83688   0.16608   0.00000  Uiso   1.00
C285   C     0.39961   0.78344   0.13591   0.00000  Uiso   1.00
C286   C     0.10004   0.88230   0.19731   0.00000  Uiso   1.00
C287   C     0.44723   0.78252   0.14254   0.00000  Uiso   1.00
C288   C     0.05245   0.88309   0.19026   0.00000  Uiso   1.00
C289   C     0.47635   0.83133   0.16709   0.00000  Uiso   1.00
C290   C     0.02336   0.83435   0.16566   0.00000  Uiso   1.00
C291   C     0.45856   0.87733   0.19327   0.00000  Uiso   1.00
C292   C     0.25239   0.93324   0.18203   0.00000  Uiso   1.00
C293   C     0.04118   0.78863   0.13883   0.00000  Uiso   1.00
C294   C     0.46724   0.73564   0.12461   0.00000  Uiso   1.00
C295   C     0.03254   0.93000   0.20734   0.00000  Uiso   1.00
C296   C     0.36652   0.73992   0.09144   0.00000  Uiso   1.00
C297   C     0.13290   0.92586   0.24205   0.00000  Uiso   1.00
C298   C     0.44395   0.68187   0.12163   0.00000  Uiso   1.00
C299   C     0.05610   0.98290   0.20770   0.00000  Uiso   1.00
C300   C     0.20304   0.97955   0.09378   0.00000  Uiso   1.00
C301   C     0.29681   0.68714   0.23970   0.00000  Uiso   1.00
C302   C     0.20055   0.77755   0.31707   0.00000  Uiso   1.00
C303   C     0.01328   0.74000   0.11852   0.00000  Uiso   1.00
C304   C     0.29959   0.88901   0.01634   0.00000  Uiso   1.00
C305   C     0.48645   0.92598   0.21302   0.00000  Uiso   1.00
C306   C     0.23966   0.67723   0.14495   0.00000  Uiso   1.00
C307   C     0.26026   0.98944   0.18842   0.00000  Uiso   1.00
C308   C     0.16483   0.83481   0.16660   0.00000  Uiso   1.00
C309   C     0.33508   0.83151   0.16663   0.00000  Uiso   1.00
C310   C     0.41248   0.87496   0.19619   0.00000  Uiso   1.00
Cu311  Cu    0.25501   0.83913   0.22813   0.00000  Uiso   1.00
Cu312  Cu    0.24500   0.82754   0.10521   0.00000  Uiso   1.00
H313   H     0.39879   0.91009   0.21758   0.00000  Uiso   1.00
H314   H     0.15565   0.94707   0.21744   0.00000  Uiso   1.00
H315   H     0.43733   0.93681   0.08407   0.00000  Uiso   1.00
H316   H     0.10001   0.69189   0.17005   0.00000  Uiso   1.00
H317   H     0.18310   0.67276   0.07381   0.00000  Uiso   1.00
H318   H     0.21851   0.95578   0.05658   0.00000  Uiso   1.00
H319   H     0.17846   0.95363   0.11102   0.00000  Uiso   1.00
H320   H     0.31671   0.99394   0.25977   0.00000  Uiso   1.00
H321   H     0.32144   0.71307   0.22255   0.00000  Uiso   1.00
H322   H     0.28126   0.71089   0.27683   0.00000  Uiso   1.00
H323   H     0.16188   0.72921   0.24356   0.00000  Uiso   1.00
H324   H     0.10099   0.75684   0.11258   0.00000  Uiso   1.00
H325   H     0.33930   0.93630   0.09009   0.00000  Uiso   1.00
H326   H     0.02828   0.70461   0.10223   0.00000  Uiso   1.00
H327   H     0.47146   0.96157   0.22829   0.00000  Uiso   1.00
H328   H     0.38330   0.71197   0.06016   0.00000  Uiso   1.00
H329   H     0.34443   0.71821   0.11635   0.00000  Uiso   1.00
H330   H     0.34512   0.75686   0.06028   0.00000  Uiso   1.00
H331   H     0.11592   0.95435   0.27239   0.00000  Uiso   1.00
H332   H     0.15363   0.90890   0.27392   0.00000  Uiso   1.00
N333   N     0.23745   0.81881   0.01284   0.00000  Uiso   1.00
N334   N     0.26256   0.84786   0.32049   0.00000  Uiso   1.00
O335   O     0.25326   0.76204   0.20659   0.00000  Uiso   1.00
O336   O     0.45498   0.97123   0.08119   0.00000  Uiso   1.00
O337   O     0.04750   0.68928   0.24203   0.00000  Uiso   1.00
O338   O     0.08687   0.98730   0.16668   0.00000  Uiso   1.00
O339   O     0.17950   0.75560   0.01603   0.00000  Uiso   1.00
O340   O     0.18742   0.75994   0.25505   0.00000  Uiso   1.00
O341   O     0.32077   0.91086   0.31740   0.00000  Uiso   1.00
O342   O     0.31277   0.90664   0.07842   0.00000  Uiso   1.00
O343   O     0.24675   0.90462   0.12674   0.00000  Uiso   1.00
O344   O     0.24480   0.75226   0.10279   0.00000  Uiso   1.00
O345   O     0.25520   0.91441   0.23055   0.00000  Uiso   1.00
O346   O     0.18936   0.83821   0.21857   0.00000  Uiso   1.00
O347   O     0.31065   0.82845   0.11476   0.00000  Uiso   1.00
O348   O     0.18090   0.82843   0.11477   0.00000  Uiso   1.00
O349   O     0.31910   0.83824   0.21857   0.00000  Uiso   1.00
O350   O     0.41638   0.67577   0.15609   0.00000  Uiso   1.00
C351   C     0.74758   0.73342   0.15131   0.00000  Uiso   1.00
C352   C     0.58729   0.79140   0.13545   0.00000  Uiso   1.00
C353   C     0.88317   0.82916   0.16686   0.00000  Uiso   1.00
C354   C     0.61664   0.83688   0.16608   0.00000  Uiso   1.00
C355   C     0.89961   0.78344   0.13591   0.00000  Uiso   1.00
C356   C     0.60004   0.88230   0.19731   0.00000  Uiso   1.00
C357   C     0.94723   0.78252   0.14254   0.00000  Uiso   1.00
C358   C     0.55245   0.88309   0.19026   0.00000  Uiso   1.00
C359   C     0.97635   0.83133   0.16709   0.00000  Uiso   1.00
C360   C     0.52336   0.83435   0.16566   0.00000  Uiso   1.00
C361   C     0.95856   0.87733   0.19327   0.00000  Uiso   1.00
C362   C     0.75239   0.93324   0.18203   0.00000  Uiso   1.00
C363   C     0.54118   0.78863   0.13883   0.00000  Uiso   1.00
C364   C     0.96724   0.73564   0.12461   0.00000  Uiso   1.00
C365   C     0.53254   0.93000   0.20734   0.00000  Uiso   1.00
C366   C     0.86652   0.73992   0.09144   0.00000  Uiso   1.00
C367   C     0.63290   0.92586   0.24205   0.00000  Uiso   1.00
C368   C     0.94395   0.68187   0.12163   0.00000  Uiso   1.00
C369   C     0.55610   0.98290   0.20770   0.00000  Uiso   1.00
C370   C     0.70304   0.97955   0.09378   0.00000  Uiso   1.00
C371   C     0.79681   0.68714   0.23970   0.00000  Uiso   1.00
C372   C     0.70055   0.77755   0.31707   0.00000  Uiso   1.00
C373   C     0.51328   0.74000   0.11852   0.00000  Uiso   1.00
C374   C     0.79959   0.88901   0.01634   0.00000  Uiso   1.00
C375   C     0.98645   0.92598   0.21302   0.00000  Uiso   1.00
C376   C     0.73966   0.67723   0.14495   0.00000  Uiso   1.00
C377   C     0.76026   0.98944   0.18842   0.00000  Uiso   1.00
C378   C     0.66483   0.83481   0.16660   0.00000  Uiso   1.00
C379   C     0.83508   0.83151   0.16663   0.00000  Uiso   1.00
C380   C     0.91248   0.87496   0.19619   0.00000  Uiso   1.00
Cu381  Cu    0.75501   0.83913   0.22813   0.00000  Uiso   1.00
Cu382  Cu    0.74500   0.82754   0.10521   0.00000  Uiso   1.00
H383   H     0.89879   0.91009   0.21758   0.00000  Uiso   1.00
H384   H     0.65565   0.94707   0.21744   0.00000  Uiso   1.00
H385   H     0.93733   0.93681   0.08407   0.00000  Uiso   1.00
H386   H     0.60001   0.69189   0.17005   0.00000  Uiso   1.00
H387   H     0.68310   0.67276   0.07381   0.00000  Uiso   1.00
H388   H     0.71851   0.95578   0.05658   0.00000  Uiso   1.00
H389   H     0.67846   0.95363   0.11102   0.00000  Uiso   1.00
H390   H     0.81671   0.99394   0.25977   0.00000  Uiso   1.00
H391   H     0.82144   0.71307   0.22255   0.00000  Uiso   1.00
H392   H     0.78126   0.71089   0.27683   0.00000  Uiso   1.00
H393   H     0.66188   0.72921   0.24356   0.00000  Uiso   1.00
H394   H     0.60099   0.75684   0.11258   0.00000  Uiso   1.00
H395   H     0.83930   0.93630   0.09009   0.00000  Uiso   1.00
H396   H     0.52828   0.70461   0.10223   0.00000  Uiso   1.00
H397   H     0.97146   0.96157   0.22829   0.00000  Uiso   1.00
H398   H     0.88330   0.71197   0.06016   0.00000  Uiso   1.00
H399   H     0.84443   0.71821   0.11635   0.00000  Uiso   1.00
H400   H     0.84512   0.75686   0.06028   0.00000  Uiso   1.00
H401   H     0.61592   0.95435   0.27239   0.00000  Uiso   1.00
H402   H     0.65363   0.90890   0.27392   0.00000  Uiso   1.00
N403   N     0.73745   0.81881   0.01284   0.00000  Uiso   1.00
N404   N     0.76256   0.84786   0.32049   0.00000  Uiso   1.00
O405   O     0.75326   0.76204   0.20659   0.00000  Uiso   1.00
O406   O     0.95498   0.97123   0.08119   0.00000  Uiso   1.00
O407   O     0.54750   0.68928   0.24203   0.00000  Uiso   1.00
O408   O     0.58687   0.98730   0.16668   0.00000  Uiso   1.00
O409   O     0.67950   0.75560   0.01603   0.00000  Uiso   1.00
O410   O     0.68742   0.75994   0.25505   0.00000  Uiso   1.00
O411   O     0.82077   0.91086   0.31740   0.00000  Uiso   1.00
O412   O     0.81277   0.90664   0.07842   0.00000  Uiso   1.00
O413   O     0.74675   0.90462   0.12674   0.00000  Uiso   1.00
O414   O     0.74480   0.75226   0.10279   0.00000  Uiso   1.00
O415   O     0.75520   0.91441   0.23055   0.00000  Uiso   1.00
O416   O     0.68936   0.83821   0.21857   0.00000  Uiso   1.00
O417   O     0.81065   0.82845   0.11476   0.00000  Uiso   1.00
O418   O     0.68090   0.82843   0.11477   0.00000  Uiso   1.00
O419   O     0.81910   0.83824   0.21857   0.00000  Uiso   1.00
O420   O     0.91638   0.67577   0.15609   0.00000  Uiso   1.00
C421   C     0.24758   0.06675   0.48464   0.00000  Uiso   1.00
C422   C     0.08729   0.12473   0.46879   0.00000  Uiso   1.00
C423   C     0.38317   0.16249   0.50019   0.00000  Uiso   1.00
C424   C     0.11664   0.17021   0.49941   0.00000  Uiso   1.00
C425   C     0.39961   0.11677   0.46925   0.00000  Uiso   1.00
C426   C     0.10004   0.21563   0.53064   0.00000  Uiso   1.00
C427   C     0.44723   0.11585   0.47588   0.00000  Uiso   1.00
C428   C     0.05245   0.21643   0.52359   0.00000  Uiso   1.00
C429   C     0.47635   0.16466   0.50042   0.00000  Uiso   1.00
C430   C     0.02336   0.16768   0.49899   0.00000  Uiso   1.00
C431   C     0.45856   0.21066   0.52661   0.00000  Uiso   1.00
C432   C     0.25239   0.26658   0.51536   0.00000  Uiso   1.00
C433   C     0.04118   0.12196   0.47216   0.00000  Uiso   1.00
C434   C     0.46724   0.06897   0.45795   0.00000  Uiso   1.00
C435   C     0.03254   0.26333   0.54068   0.00000  Uiso   1.00
C436   C     0.36652   0.07326   0.42478   0.00000  Uiso   1.00
C437   C     0.13290   0.25919   0.57539   0.00000  Uiso   1.00
C438   C     0.44395   0.01520   0.45496   0.00000  Uiso   1.00
C439   C     0.05610   0.31623   0.54104   0.00000  Uiso   1.00
C440   C     0.20304   0.31288   0.42711   0.00000  Uiso   1.00
C441   C     0.29681   0.02047   0.57304   0.00000  Uiso   1.00
C442   C     0.20055   0.11089   0.65040   0.00000  Uiso   1.00
C443   C     0.01328   0.07333   0.45186   0.00000  Uiso   1.00
C444   C     0.29959   0.22235   0.34967   0.00000  Uiso   1.00
C445   C     0.48645   0.25931   0.54635   0.00000  Uiso   1.00
C446   C     0.23966   0.01056   0.47829   0.00000  Uiso   1.00
C447   C     0.26026   0.32278   0.52176   0.00000  Uiso   1.00
C448   C     0.16483   0.16815   0.49993   0.00000  Uiso   1.00
C449   C     0.33508   0.16484   0.49996   0.00000  Uiso   1.00
C450   C     0.41248   0.20829   0.52953   0.00000  Uiso   1.00
Cu451  Cu    0.25501   0.17246   0.56146   0.00000  Uiso   1.00
Cu452  Cu    0.24500   0.16087   0.43854   0.00000  Uiso   1.00
H453   H     0.39879   0.24342   0.55091   0.00000  Uiso   1.00
H454   H     0.15565   0.28040   0.55078   0.00000  Uiso   1.00
H455   H     0.43733   0.27014   0.41740   0.00000  Uiso   1.00
H456   H     0.10001   0.02522   0.50339   0.00000  Uiso   1.00
H457   H     0.18310   0.00610   0.40714   0.00000  Uiso   1.00
H458   H     0.21851   0.28911   0.38991   0.00000  Uiso   1.00
H459   H     0.17846   0.28696   0.44436   0.00000  Uiso   1.00
H460   H     0.31671   0.32727   0.59310   0.00000  Uiso   1.00
H461   H     0.32144   0.04640   0.55588   0.00000  Uiso   1.00
H462   H     0.28126   0.04423   0.61016   0.00000  Uiso   1.00
H463   H     0.16188   0.06255   0.57690   0.00000  Uiso   1.00
H464   H     0.10099   0.09018   0.44591   0.00000  Uiso   1.00
H465   H     0.33930   0.26963   0.42343   0.00000  Uiso   1.00
H466   H     0.02828   0.03794   0.43556   0.00000  Uiso   1.00
H467   H     0.47146   0.29491   0.56162   0.00000  Uiso   1.00
H468   H     0.38330   0.04530   0.39349   0.00000  Uiso   1.00
H469   H     0.34443   0.05154   0.44968   0.00000  Uiso   1.00
H470   H     0.34512   0.09020   0.39362   0.00000  Uiso   1.00
H471   H     0.11592   0.28768   0.60572   0.00000  Uiso   1.00
H472   H     0.15363   0.24224   0.60725   0.00000  Uiso   1.00
N473   N     0.23745   0.15214   0.34617   0.00000  Uiso   1.00
N474   N     0.26256   0.18119   0.65383   0.00000  Uiso   1.00
O475   O     0.25326   0.09538   0.53992   0.00000  Uiso   1.00
O476   O     0.45498   0.30456   0.41453   0.00000  Uiso   1.00
O477   O     0.04750   0.02261   0.57537   0.00000  Uiso   1.00
O478   O     0.08687   0.32063   0.50002   0.00000  Uiso   1.00
O479   O     0.17950   0.08893   0.34937   0.00000  Uiso   1.00
O480   O     0.18742   0.09327   0.58839   0.00000  Uiso   1.00
O481   O     0.32077   0.24419   0.65073   0.00000  Uiso   1.00
O482   O     0.31277   0.23998   0.41175   0.00000  Uiso   1.00
O483   O     0.24675   0.23796   0.46008   0.00000  Uiso   1.00
O484   O     0.24480   0.08559   0.43612   0.00000  Uiso   1.00
O485   O     0.25520   0.24774   0.56388   0.00000  Uiso   1.00
O486   O     0.18936   0.17155   0.55191   0.00000  Uiso   1.00
O487   O     0.31065   0.16179   0.44809   0.00000  Uiso   1.00
O488   O     0.18090   0.16176   0.44810   0.00000  Uiso   1.00
O489   O     0.31910   0.17157   0.55190   0.00000  Uiso   1.00
O490   O     0.41638   0.00910   0.48942   0.00000  Uiso   1.00
C491   C     0.74758   0.06675   0.48464   0.00000  Uiso   1.00
C492   C     0.58729   0.12473   0.46879   0.00000  Uiso   1.00
C493   C     0.88317   0.16249   0.50019   0.00000  Uiso   1.00
C494   C     0.61664   0.17021   0.49941   0.00000  Uiso   1.00
C495   C     0.89961   0.11677   0.46925   0.00000  Uiso   1.00
C496   C     0.60004   0.21563   0.53064   0.00000  Uiso   1.00
C497   C     0.94723   0.11585   0.47588   0.00000  Uiso   1.00
C498   C     0.55245   0.21643   0.52359   0.00000  Uiso   1.00
C499   C     0.97635   0.16466   0.50042   0.00000  Uiso   1.00
C500   C     0.52336   0.16768   0.49899   0.00000  Uiso   1.00
C501   C     0.95856   0.21066   0.52661   0.00000  Uiso   1.00
C502   C     0.75239   0.26658   0.51536   0.00000  Uiso   1.00
C503   C     0.54118   0.12196   0.47216   0.00000  Uiso   1.00
C504   C     0.96724   0.06897   0.45795   0.00000  Uiso   1.00
C505   C     0.53254   0.26333   0.54068   0.00000  Uiso   1.00
C506   C     0.86652   0.07326   0.42478   0.00000  Uiso   1.00
C507   C     0.63290   0.25919   0.57539   0.00000  Uiso   1.00
C508   C     0.94395   0.01520   0.45496   0.00000  Uiso   1.00
C509   C     0.55610   0.31623   0.54104   0.00000  Uiso   1.00
C510   C     0.70304   0.31288   0.42711   0.00000  Uiso   1.00
C511   C     0.79681   0.02047   0.57304   0.00000  Uiso   1.00
C512   C     0.70055   0.11089   0.65040   0.00000  Uiso   1.00
C513   C     0.51328   0.07333   0.45186   0.00000  Uiso   1.00
C514   C     0.79959   0.22235   0.34967   0.00000  Uiso   1.00
C515   C     0.98645   0.25931   0.54635   0.00000  Uiso   1.00
C516   C     0.73966   0.01056   0.47829   0.00000  Uiso   1.00
C517   C     0.76026   0.32278   0.52176   0.00000  Uiso   1.00
C518   C     0.66483   0.16815   0.49993   0.00000  Uiso   1.00
C519   C     0.83508   0.16484   0.49996   0.00000  Uiso   1.00
C520   C     0.91248   0.20829   0.52953   0.00000  Uiso   1.00
Cu521  Cu    0.75501   0.17246   0.56146   0.00000  Uiso   1.00
Cu522  Cu    0.74500   0.16087   0.43854   0.00000  Uiso   1.00
H523   H     0.89879   0.24342   0.55091   0.00000  Uiso   1.00
H524   H     0.65565   0.28040   0.55078   0.00000  Uiso   1.00
H525   H     0.93733   0.27014   0.41740   0.00000  Uiso   1.00
H526   H     0.60001   0.02522   0.50339   0.00000  Uiso   1.00
H527   H     0.68310   0.00610   0.40714   0.00000  Uiso   1.00
H528   H     0.71851   0.28911   0.38991   0.00000  Uiso   1.00
H529   H     0.67846   0.28696   0.44436   0.00000  Uiso   1.00
H530   H     0.81671   0.32727   0.59310   0.00000  Uiso   1.00
H531   H     0.82144   0.04640   0.55588   0.00000  Uiso   1.00
H532   H     0.78126   0.04423   0.61016   0.00000  Uiso   1.00
H533   H     0.66188   0.06255   0.57690   0.00000  Uiso   1.00
H534   H     0.60099   0.09018   0.44591   0.00000  Uiso   1.00
H535   H     0.83930   0.26963   0.42343   0.00000  Uiso   1.00
H536   H     0.52828   0.03794   0.43556   0.00000  Uiso   1.00
H537   H     0.97146   0.29491   0.56162   0.00000  Uiso   1.00
H538   H     0.88330   0.04530   0.39349   0.00000  Uiso   1.00
H539   H     0.84443   0.05154   0.44968   0.00000  Uiso   1.00
H540   H     0.84512   0.09020   0.39362   0.00000  Uiso   1.00
H541   H     0.61592   0.28768   0.60572   0.00000  Uiso   1.00
H542   H     0.65363   0.24224   0.60725   0.00000  Uiso   1.00
N543   N     0.73745   0.15214   0.34617   0.00000  Uiso   1.00
N544   N     0.76256   0.18119   0.65383   0.00000  Uiso   1.00
O545   O     0.75326   0.09538   0.53992   0.00000  Uiso   1.00
O546   O     0.95498   0.30456   0.41453   0.00000  Uiso   1.00
O547   O     0.54750   0.02261   0.57537   0.00000  Uiso   1.00
O548   O     0.58687   0.32063   0.50002   0.00000  Uiso   1.00
O549   O     0.67950   0.08893   0.34937   0.00000  Uiso   1.00
O550   O     0.68742   0.09327   0.58839   0.00000  Uiso   1.00
O551   O     0.82077   0.24419   0.65073   0.00000  Uiso   1.00
O552   O     0.81277   0.23998   0.41175   0.00000  Uiso   1.00
O553   O     0.74675   0.23796   0.46008   0.00000  Uiso   1.00
O554   O     0.74480   0.08559   0.43612   0.00000  Uiso   1.00
O555   O     0.75520   0.24774   0.56388   0.00000  Uiso   1.00
O556   O     0.68936   0.17155   0.55191   0.00000  Uiso   1.00
O557   O     0.81065   0.16179   0.44809   0.00000  Uiso   1.00
O558   O     0.68090   0.16176   0.44810   0.00000  Uiso   1.00
O559   O     0.81910   0.17157   0.55190   0.00000  Uiso   1.00
O560   O     0.91638   0.00910   0.48942   0.00000  Uiso   1.00
C561   C     0.24758   0.40009   0.48464   0.00000  Uiso   1.00
C562   C     0.08729   0.45807   0.46879   0.00000  Uiso   1.00
C563   C     0.38317   0.49583   0.50019   0.00000  Uiso   1.00
C564   C     0.11664   0.50354   0.49941   0.00000  Uiso   1.00
C565   C     0.39961   0.45010   0.46925   0.00000  Uiso   1.00
C566   C     0.10004   0.54896   0.53064   0.00000  Uiso   1.00
C567   C     0.44723   0.44919   0.47588   0.00000  Uiso   1.00
C568   C     0.05245   0.54976   0.52359   0.00000  Uiso   1.00
C569   C     0.47635   0.49800   0.50042   0.00000  Uiso   1.00
C570   C     0.02336   0.50101   0.49899   0.00000  Uiso   1.00
C571   C     0.45856   0.54399   0.52661   0.00000  Uiso   1.00
C572   C     0.25239   0.59991   0.51536   0.00000  Uiso   1.00
C573   C     0.04118   0.45530   0.47216   0.00000  Uiso   1.00
C574   C     0.46724   0.40231   0.45795   0.00000  Uiso   1.00
C575   C     0.03254   0.59666   0.54068   0.00000  Uiso   1.00
C576   C     0.36652   0.40659   0.42478   0.00000  Uiso   1.00
C577   C     0.13290   0.59252   0.57539   0.00000  Uiso   1.00
C578   C     0.44395   0.34853   0.45496   0.00000  Uiso   1.00
C579   C     0.05610   0.64957   0.54104   0.00000  Uiso   1.00
C580   C     0.20304   0.64621   0.42711   0.00000  Uiso   1.00
C581   C     0.29681   0.35380   0.57304   0.00000  Uiso   1.00
C582   C     0.20055   0.44422   0.65040   0.00000  Uiso   1.00
C583   C     0.01328   0.40666   0.45186   0.00000  Uiso   1.00
C584   C     0.29959   0.55568   0.34967   0.00000  Uiso   1.00
C585   C     0.48645   0.59264   0.54635   0.00000  Uiso   1.00
C586   C     0.23966   0.34389   0.47829   0.00000  Uiso   1.00
C587   C     0.26026   0.65611   0.52176   0.00000  Uiso   1.00
C588   C     0.16483   0.50148   0.49993   0.00000  Uiso   1.00
C589   C     0.33508   0.49818   0.49996   0.00000  Uiso   1.00
C590   C     0.41248   0.54163   0.52953   0.00000  Uiso   1.00
Cu591  Cu    0.25501   0.50579   0.56146   0.00000  Uiso   1.00
Cu592  Cu    0.24500   0.49421   0.43854   0.00000  Uiso   1.00
H593   H     0.39879   0.57676   0.55091   0.00000  Uiso   1.00
H594   H     0.15565   0.61374   0.55078   0.00000  Uiso   1.00
H595   H     0.43733   0.60347   0.41740   0.00000  Uiso   1.00
H596   H     0.10001   0.35856   0.50339   0.00000  Uiso   1.00
H597   H     0.18310   0.33943   0.40714   0.00000  Uiso   1.00
H598   H     0.21851   0.62244   0.38991   0.00000  Uiso   1.00
H599   H     0.17846   0.62030   0.44436   0.00000  Uiso   1.00
H600   H     0.31671   0.66060   0.59310   0.00000  Uiso   1.00
H601   H     0.32144   0.37973   0.55588   0.00000  Uiso   1.00
H602   H     0.28126   0.37756   0.61016   0.00000  Uiso   1.00
H603   H     0.16188   0.39588   0.57690   0.00000  Uiso   1.00
H604   H     0.10099   0.42351   0.44591   0.00000  Uiso   1.00
H605   H     0.33930   0.60296   0.42343   0.00000  Uiso   1.00
H606   H     0.02828   0.37128   0.43556   0.00000  Uiso   1.00
H607   H     0.47146   0.62824   0.56162   0.00000  Uiso   1.00
H608   H     0.38330   0.37864   0.39349   0.00000  Uiso   1.00
H609   H     0.34443   0.38488   0.44968   0.00000  Uiso   1.00
H610   H     0.34512   0.42353   0.39362   0.00000  Uiso   1.00
H611   H     0.11592   0.62101   0.60572   0.00000  Uiso   1.00
H612   H     0.15363   0.57557   0.60725   0.00000  Uiso   1.00
N613   N     0.23745   0.48547   0.34617   0.00000  Uiso   1.00
N614   N     0.26256   0.51453   0.65383   0.00000  Uiso   1.00
O615   O     0.25326   0.42871   0.53992   0.00000  Uiso   1.00
O616   O     0.45498   0.63790   0.41453   0.00000  Uiso   1.00
O617   O     0.04750   0.35595   0.57537   0.00000  Uiso   1.00
O618   O     0.08687   0.65396   0.50002   0.00000  Uiso   1.00
O619   O     0.17950   0.42226   0.34937   0.00000  Uiso   1.00
O620   O     0.18742   0.42661   0.58839   0.00000  Uiso   1.00
O621   O     0.32077   0.57752   0.65073   0.00000  Uiso   1.00
O622   O     0.31277   0.57331   0.41175   0.00000  Uiso   1.00
O623   O     0.24675   0.57129   0.46008   0.00000  Uiso   1.00
O624   O     0.24480   0.41892   0.43612   0.00000  Uiso   1.00
O625   O     0.25520   0.58108   0.56388   0.00000  Uiso   1.00
O626   O     0.18936   0.50488   0.55191   0.00000  Uiso   1.00
O627   O     0.31065   0.49512   0.44809   0.00000  Uiso   1.00
O628   O     0.18090   0.49510   0.44810   0.00000  Uiso   1.00
O629   O     0.31910   0.50490   0.55190   0.00000  Uiso   1.00
O630   O     0.41638   0.34244   0.48942   0.00000  Uiso   1.00
C631   C     0.74758   0.40009   0.48464   0.00000  Uiso   1.00
C632   C     0.58729   0.45807   0.46879   0.00000  Uiso   1.00
C633   C     0.88317   0.49583   0.50019   0.00000  Uiso   1.00
C634   C     0.61664   0.50354   0.49941   0.00000  Uiso   1.00
C635   C     0.89961   0.45010   0.46925   0.00000  Uiso   1.00
C636   C     0.60004   0.54896   0.53064   0.00000  Uiso   1.00
C637   C     0.94723   0.44919   0.47588   0.00000  Uiso   1.00
C638   C     0.55245   0.54976   0.52359   0.00000  Uiso   1.00
C639   C     0.97635   0.49800   0.50042   0.00000  Uiso   1.00
C640   C     0.52336   0.50101   0.49899   0.00000  Uiso   1.00
C641   C     0.95856   0.54399   0.52661   0.00000  Uiso   1.00
C642   C     0.75239   0.59991   0.51536   0.00000  Uiso   1.00
C643   C     0.54118   0.45530   0.47216   0.00000  Uiso   1.00
C644   C     0.96724   0.40231   0.45795   0.00000  Uiso   1.00
C645   C     0.53254   0.59666   0.54068   0.00000  Uiso   1.00
C646   C     0.86652   0.40659   0.42478   0.00000  Uiso   1.00
C647   C     0.63290   0.59252   0.57539   0.00000  Uiso   1.00
C648   C     0.94395   0.34853   0.45496   0.00000  Uiso   1.00
C649   C     0.55610   0.64957   0.54104   0.00000  Uiso   1.00
C650   C     0.70304   0.64621   0.42711   0.00000  Uiso   1.00
C651   C     0.79681   0.35380   0.57304   0.00000  Uiso   1.00
C652   C     0.70055   0.44422   0.65040   0.00000  Uiso   1.00
C653   C     0.51328   0.40666   0.45186   0.00000  Uiso   1.00
C654   C     0.79959   0.55568   0.34967   0.00000  Uiso   1.00
C655   C     0.98645   0.59264   0.54635   0.00000  Uiso   1.00
C656   C     0.73966   0.34389   0.47829   0.00000  Uiso   1.00
C657   C     0.76026   0.65611   0.52176   0.00000  Uiso   1.00
C658   C     0.66483   0.50148   0.49993   0.00000  Uiso   1.00
C659   C     0.83508   0.49818   0.49996   0.00000  Uiso   1.00
C660   C     0.91248   0.54163   0.52953   0.00000  Uiso   1.00
Cu661  Cu    0.75501   0.50579   0.56146   0.00000  Uiso   1.00
Cu662  Cu    0.74500   0.49421   0.43854   0.00000  Uiso   1.00
H663   H     0.89879   0.57676   0.55091   0.00000  Uiso   1.00
H664   H     0.65565   0.61374   0.55078   0.00000  Uiso   1.00
H665   H     0.93733   0.60347   0.41740   0.00000  Uiso   1.00
H666   H     0.60001   0.35856   0.50339   0.00000  Uiso   1.00
H667   H     0.68310   0.33943   0.40714   0.00000  Uiso   1.00
H668   H     0.71851   0.62244   0.38991   0.00000  Uiso   1.00
H669   H     0.67846   0.62030   0.44436   0.00000  Uiso   1.00
H670   H     0.81671   0.66060   0.59310   0.00000  Uiso   1.00
H671   H     0.82144   0.37973   0.55588   0.00000  Uiso   1.00
H672   H     0.78126   0.37756   0.61016   0.00000  Uiso   1.00
H673   H     0.66188   0.39588   0.57690   0.00000  Uiso   1.00
H674   H     0.60099   0.42351   0.44591   0.00000  Uiso   1.00
H675   H     0.83930   0.60296   0.42343   0.00000  Uiso   1.00
H676   H     0.52828   0.37128   0.43556   0.00000  Uiso   1.00
H677   H     0.97146   0.62824   0.56162   0.00000  Uiso   1.00
H678   H     0.88330   0.37864   0.39349   0.00000  Uiso   1.00
H679   H     0.84443   0.38488   0.44968   0.00000  Uiso   1.00
H680   H     0.84512   0.42353   0.39362   0.00000  Uiso   1.00
H681   H     0.61592   0.62101   0.60572   0.00000  Uiso   1.00
H682   H     0.65363   0.57557   0.60725   0.00000  Uiso   1.00
N683   N     0.73745   0.48547   0.34617   0.00000  Uiso   1.00
N684   N     0.76256   0.51453   0.65383   0.00000  Uiso   1.00
O685   O     0.75326   0.42871   0.53992   0.00000  Uiso   1.00
O686   O     0.95498   0.63790   0.41453   0.00000  Uiso   1.00
O687   O     0.54750   0.35595   0.57537   0.00000  Uiso   1.00
O688   O     0.58687   0.65396   0.50002   0.00000  Uiso   1.00
O689   O     0.67950   0.42226   0.34937   0.00000  Uiso   1.00
O690   O     0.68742   0.42661   0.58839   0.00000  Uiso   1.00
O691   O     0.82077   0.57752   0.65073   0.00000  Uiso   1.00
O692   O     0.81277   0.57331   0.41175   0.00000  Uiso   1.00
O693   O     0.74675   0.57129   0.46008   0.00000  Uiso   1.00
O694   O     0.74480   0.41892   0.43612   0.00000  Uiso   1.00
O695   O     0.75520   0.58108   0.56388   0.00000  Uiso   1.00
O696   O     0.68936   0.50488   0.55191   0.00000  Uiso   1.00
O697   O     0.81065   0.49512   0.44809   0.00000  Uiso   1.00
O698   O     0.68090   0.49510   0.44810   0.00000  Uiso   1.00
O699   O     0.81910   0.50490   0.55190   0.00000  Uiso   1.00
O700   O     0.91638   0.34244   0.48942   0.00000  Uiso   1.00
C701   C     0.24758   0.73342   0.48464   0.00000  Uiso   1.00
C702   C     0.08729   0.79140   0.46879   0.00000  Uiso   1.00
C703   C     0.38317   0.82916   0.50019   0.00000  Uiso   1.00
C704   C     0.11664   0.83688   0.49941   0.00000  Uiso   1.00
C705   C     0.39961   0.78344   0.46925   0.00000  Uiso   1.00
C706   C     0.10004   0.88230   0.53064   0.00000  Uiso   1.00
C707   C     0.44723   0.78252   0.47588   0.00000  Uiso   1.00
C708   C     0.05245   0.88309   0.52359   0.00000  Uiso   1.00
C709   C     0.47635   0.83133   0.50042   0.00000  Uiso   1.00
C710   C     0.02336   0.83435   0.49899   0.00000  Uiso   1.00
C711   C     0.45856   0.87733   0.52661   0.00000  Uiso   1.00
C712   C     0.25239   0.93324   0.51536   0.00000  Uiso   1.00
C713   C     0.04118   0.78863   0.47216   0.00000  Uiso   1.00
C714   C     0.46724   0.73564   0.45795   0.00000  Uiso   1.00
C715   C     0.03254   0.93000   0.54068   0.00000  Uiso   1.00
C716   C     0.36652   0.73992   0.42478   0.00000  Uiso   1.00
C717   C     0.13290   0.92586   0.57539   0.00000  Uiso   1.00
C718   C     0.44395   0.68187   0.45496   0.00000  Uiso   1.00
C719   C     0.05610   0.98290   0.54104   0.00000  Uiso   1.00
C720   C     0.20304   0.97955   0.42711   0.00000  Uiso   1.00
C721   C     0.29681   0.68714   0.57304   0.00000  Uiso   1.00
C722   C     0.20055   0.77755   0.65040   0.00000  Uiso   1.00
C723   C     0.01328   0.74000   0.45186   0.00000  Uiso   1.00
C724   C     0.29959   0.88901   0.34967   0.00000  Uiso   1.00
C725   C     0.48645   0.92598   0.54635   0.00000  Uiso   1.00
C726   C     0.23966   0.67723   0.47829   0.00000  Uiso   1.00
C727   C     0.26026   0.98944   0.52176   0.00000  Uiso   1.00
C728   C     0.16483   0.83481   0.49993   0.00000  Uiso   1.00
C729   C     0.33508   0.83151   0.49996   0.00000  Uiso   1.00
C730   C     0.41248   0.87496   0.52953   0.00000  Uiso   1.00
Cu731  Cu    0.25501   0.83913   0.56146   0.00000  Uiso   1.00
Cu732  Cu    0.24500   0.82754   0.43854   0.00000  Uiso   1.00
H733   H     0.39879   0.91009   0.55091   0.00000  Uiso   1.00
H734   H     0.15565   0.94707   0.55078   0.00000  Uiso   1.00
H735   H     0.43733   0.93681   0.41740   0.00000  Uiso   1.00
H736   H     0.10001   0.69189   0.50339   0.00000  Uiso   1.00
H737   H     0.18310   0.67276   0.40714   0.00000  Uiso   1.00
H738   H     0.21851   0.95578   0.38991   0.00000  Uiso   1.00
H739   H     0.17846   0.95363   0.44436   0.00000  Uiso   1.00
H740   H     0.31671   0.99394   0.59310   0.00000  Uiso   1.00
H741   H     0.32144   0.71307   0.55588   0.00000  Uiso   1.00
H742   H     0.28126   0.71089   0.61016   0.00000  Uiso   1.00
H743   H     0.16188   0.72921   0.57690   0.00000  Uiso   1.00
H744   H     0.10099   0.75684   0.44591   0.00000  Uiso   1.00
H745   H     0.33930   0.93630   0.42343   0.00000  Uiso   1.00
H746   H     0.02828   0.70461   0.43556   0.00000  Uiso   1.00
H747   H     0.47146   0.96157   0.56162   0.00000  Uiso   1.00
H748   H     0.38330   0.71197   0.39349   0.00000  Uiso   1.00
H749   H     0.34443   0.71821   0.44968   0.00000  Uiso   1.00
H750   H     0.34512   0.75686   0.39362   0.00000  Uiso   1.00
H751   H     0.11592   0.95435   0.60572   0.00000  Uiso   1.00
H752   H     0.15363   0.90890   0.60725   0.00000  Uiso   1.00
N753   N     0.23745   0.81881   0.34617   0.00000  Uiso   1.00
N754   N     0.26256   0.84786   0.65383   0.00000  Uiso   1.00
O755   O     0.25326   0.76204   0.53992   0.00000  Uiso   1.00
O756   O     0.45498   0.97123   0.41453   0.00000  Uiso   1.00
O757   O     0.04750   0.68928   0.57537   0.00000  Uiso   1.00
O758   O     0.08687   0.98730   0.50002   0.00000  Uiso   1.00
O759   O     0.17950   0.75560   0.34937   0.00000  Uiso   1.00
O760   O     0.18742   0.75994   0.58839   0.00000  Uiso   1.00
O761   O     0.32077   0.91086   0.65073   0.00000  Uiso   1.00
O762   O     0.31277   0.90664   0.41175   0.00000  Uiso   1.00
O763   O     0.24675   0.90462   0.46008   0.00000  Uiso   1.00
O764   O     0.24480   0.75226   0.43612   0.00000  Uiso   1.00
O765   O     0.25520   0.91441   0.56388   0.00000  Uiso   1.00
O766   O     0.18936   0.83821   0.55191   0.00000  Uiso   1.00
O767   O     0.31065   0.82845   0.44809   0.00000  Uiso   1.00
O768   O     0.18090   0.82843   0.44810   0.00000  Uiso   1.00
O769   O     0.31910   0.83824   0.55190   0.00000  Uiso   1.00
O770   O     0.41638   0.67577   0.48942   0.00000  Uiso   1.00
C771   C     0.74758   0.73342   0.48464   0.00000  Uiso   1.00
C772   C     0.58729   0.79140   0.46879   0.00000  Uiso   1.00
C773   C     0.88317   0.82916   0.50019   0.00000  Uiso   1.00
C774   C     0.61664   0.83688   0.49941   0.00000  Uiso   1.00
C775   C     0.89961   0.78344   0.46925   0.00000  Uiso   1.00
C776   C     0.60004   0.88230   0.53064   0.00000  Uiso   1.00
C777   C     0.94723   0.78252   0.47588   0.00000  Uiso   1.00
C778   C     0.55245   0.88309   0.52359   0.00000  Uiso   1.00
C779   C     0.97635   0.83133   0.50042   0.00000  Uiso   1.00
C780   C     0.52336   0.83435   0.49899   0.00000  Uiso   1.00
C781   C     0.95856   0.87733   0.52661   0.00000  Uiso   1.00
C782   C     0.75239   0.93324   0.51536   0.00000  Uiso   1.00
C783   C     0.54118   0.78863   0.47216   0.00000  Uiso   1.00
C784   C     0.96724   0.73564   0.45795   0.00000  Uiso   1.00
C785   C     0.53254   0.93000   0.54068   0.00000  Uiso   1.00
C786   C     0.86652   0.73992   0.42478   0.00000  Uiso   1.00
C787   C     0.63290   0.92586   0.57539   0.00000  Uiso   1.00
C788   C     0.94395   0.68187   0.45496   0.00000  Uiso   1.00
C789   C     0.55610   0.98290   0.54104   0.00000  Uiso   1.00
C790   C     0.70304   0.97955   0.42711   0.00000  Uiso   1.00
C791   C     0.79681   0.68714   0.57304   0.00000  Uiso   1.00
C792   C     0.70055   0.77755   0.65040   0.00000  Uiso   1.00
C793   C     0.51328   0.74000   0.45186   0.00000  Uiso   1.00
C794   C     0.79959   0.88901   0.34967   0.00000  Uiso   1.00
C795   C     0.98645   0.92598   0.54635   0.00000  Uiso   1.00
C796   C     0.73966   0.67723   0.47829   0.00000  Uiso   1.00
C797   C     0.76026   0.98944   0.52176   0.00000  Uiso   1.00
C798   C     0.66483   0.83481   0.49993   0.00000  Uiso   1.00
C799   C     0.83508   0.83151   0.49996   0.00000  Uiso   1.00
C800   C     0.91248   0.87496   0.52953   0.00000  Uiso   1.00
Cu801  Cu    0.75501   0.83913   0.56146   0.00000  Uiso   1.00
Cu802  Cu    0.74500   0.82754   0.43854   0.00000  Uiso   1.00
H803   H     0.89879   0.91009   0.55091   0.00000  Uiso   1.00
H804   H     0.65565   0.94707   0.55078   0.00000  Uiso   1.00
H805   H     0.93733   0.93681   0.41740   0.00000  Uiso   1.00
H806   H     0.60001   0.69189   0.50339   0.00000  Uiso   1.00
H807   H     0.68310   0.67276   0.40714   0.00000  Uiso   1.00
H808   H     0.71851   0.95578   0.38991   0.00000  Uiso   1.00
H809   H     0.67846   0.95363   0.44436   0.00000  Uiso   1.00
H810   H     0.81671   0.99394   0.59310   0.00000  Uiso   1.00
H811   H     0.82144   0.71307   0.55588   0.00000  Uiso   1.00
H812   H     0.78126   0.71089   0.61016   0.00000  Uiso   1.00
H813   H     0.66188   0.72921   0.57690   0.00000  Uiso   1.00
H814   H     0.60099   0.75684   0.44591   0.00000  Uiso   1.00
H815   H     0.83930   0.93630   0.42343   0.00000  Uiso   1.00
H816   H     0.52828   0.70461   0.43556   0.00000  Uiso   1.00
H817   H     0.97146   0.96157   0.56162   0.00000  Uiso   1.00
H818   H     0.88330   0.71197   0.39349   0.00000  Uiso   1.00
H819   H     0.84443   0.71821   0.44968   0.00000  Uiso   1.00
H820   H     0.84512   0.75686   0.39362   0.00000  Uiso   1.00
H821   H     0.61592   0.95435   0.60572   0.00000  Uiso   1.00
H822   H     0.65363   0.90890   0.60725   0.00000  Uiso   1.00
N823   N     0.73745   0.81881   0.34617   0.00000  Uiso   1.00
N824   N     0.76256   0.84786   0.65383   0.00000  Uiso   1.00
O825   O     0.75326   0.76204   0.53992   0.00000  Uiso   1.00
O826   O     0.95498   0.97123   0.41453   0.00000  Uiso   1.00
O827   O     0.54750   0.68928   0.57537   0.00000  Uiso   1.00
O828   O     0.58687   0.98730   0.50002   0.00000  Uiso   1.00
O829   O     0.67950   0.75560   0.34937   0.00000  Uiso   1.00
O830   O     0.68742   0.75994   0.58839   0.00000  Uiso   1.00
O831   O     0.82077   0.91086   0.65073   0.00000  Uiso   1.00
O832   O     0.81277   0.90664   0.41175   0.00000  Uiso   1.00
O833   O     0.74675   0.90462   0.46008   0.00000  Uiso   1.00
O834   O     0.74480   0.75226   0.43612   0.00000  Uiso   1.00
O835   O     0.75520   0.91441   0.56388   0.00000  Uiso   1.00
O836   O     0.68936   0.83821   0.55191   0.00000  Uiso   1.00
O837   O     0.81065   0.82845   0.44809   0.00000  Uiso   1.00
O838   O     0.68090   0.82843   0.44810   0.00000  Uiso   1.00
O839   O     0.81910   0.83824   0.55190   0.00000  Uiso   1.00
O840   O     0.91638   0.67577   0.48942   0.00000  Uiso   1.00
C841   C     0.24758   0.06675   0.81798   0.00000  Uiso   1.00
C842   C     0.08729   0.12473   0.80212   0.00000  Uiso   1.00
C843   C     0.38317   0.16249   0.83352   0.00000  Uiso   1.00
C844   C     0.11664   0.17021   0.83274   0.00000  Uiso   1.00
C845   C     0.39961   0.11677   0.80258   0.00000  Uiso   1.00
C846   C     0.10004   0.21563   0.86397   0.00000  Uiso   1.00
C847   C     0.44723   0.11585   0.80921   0.00000  Uiso   1.00
C848   C     0.05245   0.21643   0.85693   0.00000  Uiso   1.00
C849   C     0.47635   0.16466   0.83376   0.00000  Uiso   1.00
C850   C     0.02336   0.16768   0.83232   0.00000  Uiso   1.00
C851   C     0.45856   0.21066   0.85994   0.00000  Uiso   1.00
C852   C     0.25239   0.26658   0.84870   0.00000  Uiso   1.00
C853   C     0.04118   0.12196   0.80549   0.00000  Uiso   1.00
C854   C     0.46724   0.06897   0.79128   0.00000  Uiso   1.00
C855   C     0.03254   0.26333   0.87401   0.00000  Uiso   1.00
C856   C     0.36652   0.07326   0.75811   0.00000  Uiso   1.00
C857   C     0.13290   0.25919   0.90872   0.00000  Uiso   1.00
C858   C     0.44395   0.01520   0.78829   0.00000  Uiso   1.00
C859   C     0.05610   0.31623   0.87437   0.00000  Uiso   1.00
C860   C     0.20304   0.31288   0.76045   0.00000  Uiso   1.00
C861   C     0.29681   0.02047   0.90637   0.00000  Uiso   1.00
C862   C     0.20055   0.11089   0.98374   0.00000  Uiso   1.00
C863   C     0.01328   0.07333   0.78519   0.00000  Uiso   1.00
C864   C     0.29959   0.22235   0.68301   0.00000  Uiso   1.00
C865   C     0.48645   0.25931   0.87969   0.00000  Uiso   1.00
C866   C     0.23966   0.01056   0.81162   0.00000  Uiso   1.00
C867   C     0.26026   0.32278   0.85509   0.00000  Uiso   1.00
C868   C     0.16483   0.16815   0.83327   0.00000  Uiso   1.00
C869   C     0.33508   0.16484   0.83329   0.00000  Uiso   1.00
C870   C     0.41248   0.20829   0.86286   0.00000  Uiso   1.00
Cu871  Cu    0.25501   0.17246   0.89479   0.00000  Uiso   1.00
Cu872  Cu    0.24500   0.16087   0.77187   0.00000  Uiso   1.00
H873   H     0.39879   0.24342   0.88425   0.00000  Uiso   1.00
H874   H     0.15565   0.28040   0.88411   0.00000  Uiso   1.00
H875   H     0.43733   0.27014   0.75074   0.00000  Uiso   1.00
H876   H     0.10001   0.02522   0.83672   0.00000  Uiso   1.00
H877   H     0.18310   0.00610   0.74048   0.00000  Uiso   1.00
H878   H     0.21851   0.28911   0.72325   0.00000  Uiso   1.00
H879   H     0.17846   0.28696   0.77769   0.00000  Uiso   1.00
H880   H     0.31671   0.32727   0.92643   0.00000  Uiso   1.00
H881   H     0.32144   0.04640   0.88921   0.00000  Uiso   1.00
H882   H     0.28126   0.04423   0.94350   0.00000  Uiso   1.00
H883   H     0.16188   0.06255   0.91023   0.00000  Uiso   1.00
H884   H     0.10099   0.09018   0.77925   0.00000  Uiso   1.00
H885   H     0.33930   0.26963   0.75676   0.00000  Uiso   1.00
H886   H     0.02828   0.03794   0.76889   0.00000  Uiso   1.00
H887   H     0.47146   0.29491   0.89496   0.00000  Uiso   1.00
H888   H     0.38330   0.04530   0.72683   0.00000  Uiso   1.00
H889   H     0.34443   0.05154   0.78302   0.00000  Uiso   1.00
H890   H     0.34512   0.09020   0.72695   0.00000  Uiso   1.00
H891   H     0.11592   0.28768   0.93905   0.00000  Uiso   1.00
H892   H     0.15363   0.24224   0.94058   0.00000  Uiso   1.00
N893   N     0.23745   0.15214   0.67951   0.00000  Uiso   1.00
N894   N     0.26256   0.18119   0.98716   0.00000  Uiso   1.00
O895   O     0.25326   0.09538   0.87326   0.00000  Uiso   1.00
O896   O     0.45498   0.30456   0.74786   0.00000  Uiso   1.00
O897   O     0.04750   0.02261   0.90870   0.00000  Uiso   1.00
O898   O     0.08687   0.32063   0.83335   0.00000  Uiso   1.00
O899   O     0.17950   0.08893   0.68270   0.00000  Uiso   1.00
O900   O     0.18742   0.09327   0.92172   0.00000  Uiso   1.00
O901   O     0.32077   0.24419   0.98406   0.00000  Uiso   1.00
O902   O     0.31277   0.23998   0.74508   0.00000  Uiso   1.00
O903   O     0.24675   0.23796   0.79341   0.00000  Uiso   1.00
O904   O     0.24480   0.08559   0.76945   0.00000  Uiso   1.00
O905   O     0.25520   0.24774   0.89721   0.00000  Uiso   1.00
O906   O     0.18936   0.17155   0.88524   0.00000  Uiso   1.00
O907   O     0.31065   0.16179   0.78143   0.00000  Uiso   1.00
O908   O     0.18090   0.16176   0.78143   0.00000  Uiso   1.00
O909   O     0.31910   0.17157   0.88523   0.00000  Uiso   1.00
O910   O     0.41638   0.00910   0.82275   0.00000  Uiso   1.00
C911   C     0.74758   0.06675   0.81798   0.00000  Uiso   1.00
C912   C     0.58729   0.12473   0.80212   0.00000  Uiso   1.00
C913   C     0.88317   0.16249   0.83352   0.00000  Uiso   1.00
C914   C     0.61664   0.17021   0.83274   0.00000  Uiso   1.00
C915   C     0.89961   0.11677   0.80258   0.00000  Uiso   1.00
C916   C     0.60004   0.21563   0.86397   0.00000  Uiso   1.00
C917   C     0.94723   0.11585   0.80921   0.00000  Uiso   1.00
C918   C     0.55245   0.21643   0.85693   0.00000  Uiso   1.00
C919   C     0.97635   0.16466   0.83376   0.00000  Uiso   1.00
C920   C     0.52336   0.16768   0.83232   0.00000  Uiso   1.00
C921   C     0.95856   0.21066   0.85994   0.00000  Uiso   1.00
C922   C     0.75239   0.26658   0.84870   0.00000  Uiso   1.00
C923   C     0.54118   0.12196   0.80549   0.00000  Uiso   1.00
C924   C     0.96724   0.06897   0.79128   0.00000  Uiso   1.00
C925   C     0.53254   0.26333   0.87401   0.00000  Uiso   1.00
C926   C     0.86652   0.07326   0.75811   0.00000  Uiso   1.00
C927   C     0.63290   0.25919   0.90872   0.00000  Uiso   1.00
C928   C     0.94395   0.01520   0.78829   0.00000  Uiso   1.00
C929   C     0.55610   0.31623   0.87437   0.00000  Uiso   1.00
C930   C     0.70304   0.31288   0.76045   0.00000  Uiso   1.00
C931   C     0.79681   0.02047   0.90637   0.00000  Uiso   1.00
C932   C     0.70055   0.11089   0.98374   0.00000  Uiso   1.00
C933   C     0.51328   0.07333   0.78519   0.00000  Uiso   1.00
C934   C     0.79959   0.22235   0.68301   0.00000  Uiso   1.00
C935   C     0.98645   0.25931   0.87969   0.00000  Uiso   1.00
C936   C     0.73966   0.01056   0.81162   0.00000  Uiso   1.00
C937   C     0.76026   0.32278   0.85509   0.00000  Uiso   1.00
C938   C     0.66483   0.16815   0.83327   0.00000  Uiso   1.00
C939   C     0.83508   0.16484   0.83329   0.00000  Uiso   1.00
C940   C     0.91248   0.20829   0.86286   0.00000  Uiso   1.00
Cu941  Cu    0.75501   0.17246   0.89479   0.00000  Uiso   1.00
Cu942  Cu    0.74500   0.16087   0.77187   0.00000  Uiso   1.00
H943   H     0.89879   0.24342   0.88425   0.00000  Uiso   1.00
H944   H     0.65565   0.28040   0.88411   0.00000  Uiso   1.00
H945   H     0.93733   0.27014   0.75074   0.00000  Uiso   1.00
H946   H     0.60001   0.02522   0.83672   0.00000  Uiso   1.00
H947   H     0.68310   0.00610   0.74048   0.00000  Uiso   1.00
H948   H     0.71851   0.28911   0.72325   0.00000  Uiso   1.00
H949   H     0.67846   0.28696   0.77769   0.00000  Uiso   1.00
H950   H     0.81671   0.32727   0.92643   0.00000  Uiso   1.00
H951   H     0.82144   0.04640   0.88921   0.00000  Uiso   1.00
H952   H     0.78126   0.04423   0.94350   0.00000  Uiso   1.00
H953   H     0.66188   0.06255   0.91023   0.00000  Uiso   1.00
H954   H     0.60099   0.09018   0.77925   0.00000  Uiso   1.00
H955   H     0.83930   0.26963   0.75676   0.00000  Uiso   1.00
H956   H     0.52828   0.03794   0.76889   0.00000  Uiso   1.00
H957   H     0.97146   0.29491   0.89496   0.00000  Uiso   1.00
H958   H     0.88330   0.04530   0.72683   0.00000  Uiso   1.00
H959   H     0.84443   0.05154   0.78302   0.00000  Uiso   1.00
H960   H     0.84512   0.09020   0.72695   0.00000  Uiso   1.00
H961   H     0.61592   0.28768   0.93905   0.00000  Uiso   1.00
H962   H     0.65363   0.24224   0.94058   0.00000  Uiso   1.00
N963   N     0.73745   0.15214   0.67951   0.00000  Uiso   1.00
N964   N     0.76256   0.18119   0.98716   0.00000  Uiso   1.00
O965   O     0.75326   0.09538   0.87326   0.00000  Uiso   1.00
O966   O     0.95498   0.30456   0.74786   0.00000  Uiso   1.00
O967   O     0.54750   0.02261   0.90870   0.00000  Uiso   1.00
O968   O     0.58687   0.32063   0.83335   0.00000  Uiso   1.00
O969   O     0.67950   0.08893   0.68270   0.00000  Uiso   1.00
O970   O     0.68742   0.09327   0.92172   0.00000  Uiso   1.00
O971   O     0.82077   0.24419   0.98406   0.00000  Uiso   1.00
O972   O     0.81277   0.23998   0.74508   0.00000  Uiso   1.00
O973   O     0.74675   0.23796   0.79341   0.00000  Uiso   1.00
O974   O     0.74480   0.08559   0.76945   0.00000  Uiso   1.00
O975   O     0.75520   0.24774   0.89721   0.00000  Uiso   1.00
O976   O     0.68936   0.17155   0.88524   0.00000  Uiso   1.00
O977   O     0.81065   0.16179   0.78143   0.00000  Uiso   1.00
O978   O     0.68090   0.16176   0.78143   0.00000  Uiso   1.00
O979   O     0.81910   0.17157   0.88523   0.00000  Uiso   1.00
O980   O     0.91638   0.00910   0.82275   0.00000  Uiso   1.00
C981   C     0.24758   0.40009   0.81798   0.00000  Uiso   1.00
C982   C     0.08729   0.45807   0.80212   0.00000  Uiso   1.00
C983   C     0.38317   0.49583   0.83352   0.00000  Uiso   1.00
C984   C     0.11664   0.50354   0.83274   0.00000  Uiso   1.00
C985   C     0.39961   0.45010   0.80258   0.00000  Uiso   1.00
C986   C     0.10004   0.54896   0.86397   0.00000  Uiso   1.00
C987   C     0.44723   0.44919   0.80921   0.00000  Uiso   1.00
C988   C     0.05245   0.54976   0.85693   0.00000  Uiso   1.00
C989   C     0.47635   0.49800   0.83376   0.00000  Uiso   1.00
C990   C     0.02336   0.50101   0.83232   0.00000  Uiso   1.00
C991   C     0.45856   0.54399   0.85994   0.00000  Uiso   1.00
C992   C     0.25239   0.59991   0.84870   0.00000  Uiso   1.00
C993   C     0.04118   0.45530   0.80549   0.00000  Uiso   1.00
C994   C     0.46724   0.40231   0.79128   0.00000  Uiso   1.00
C995   C     0.03254   0.59666   0.87401   0.00000  Uiso   1.00
C996   C     0.36652   0.40659   0.75811   0.00000  Uiso   1.00
C997   C     0.13290   0.59252   0.90872   0.00000  Uiso   1.00
C998   C     0.44395   0.34853   0.78829   0.00000  Uiso   1.00
C999   C     0.05610   0.64957   0.87437   0.00000  Uiso   1.00
C1000  C     0.20304   0.64621   0.76045   0.00000  Uiso   1.00
C1001  C     0.29681   0.35380   0.90637   0.00000  Uiso   1.00
C1002  C     0.20055   0.44422   0.98374   0.00000  Uiso   1.00
C1003  C     0.01328   0.40666   0.78519   0.00000  Uiso   1.00
C1004  C     0.29959   0.55568   0.68301   0.00000  Uiso   1.00
C1005  C     0.48645   0.59264   0.87969   0.00000  Uiso   1.00
C1006  C     0.23966   0.34389   0.81162   0.00000  Uiso   1.00
C1007  C     0.26026   0.65611   0.85509   0.00000  Uiso   1.00
C1008  C     0.16483   0.50148   0.83327   0.00000  Uiso   1.00
C1009  C     0.33508   0.49818   0.83329   0.00000  Uiso   1.00
C1010  C     0.41248   0.54163   0.86286   0.00000  Uiso   1.00
Cu1011 Cu    0.25501   0.50579   0.89479   0.00000  Uiso   1.00
Cu1012 Cu    0.24500   0.49421   0.77187   0.00000  Uiso   1.00
H1013  H     0.39879   0.57676   0.88425   0.00000  Uiso   1.00
H1014  H     0.15565   0.61374   0.88411   0.00000  Uiso   1.00
H1015  H     0.43733   0.60347   0.75074   0.00000  Uiso   1.00
H1016  H     0.10001   0.35856   0.83672   0.00000  Uiso   1.00
H1017  H     0.18310   0.33943   0.74048   0.00000  Uiso   1.00
H1018  H     0.21851   0.62244   0.72325   0.00000  Uiso   1.00
H1019  H     0.17846   0.62030   0.77769   0.00000  Uiso   1.00
H1020  H     0.31671   0.66060   0.92643   0.00000  Uiso   1.00
H1021  H     0.32144   0.37973   0.88921   0.00000  Uiso   1.00
H1022  H     0.28126   0.37756   0.94350   0.00000  Uiso   1.00
H1023  H     0.16188   0.39588   0.91023   0.00000  Uiso   1.00
H1024  H     0.10099   0.42351   0.77925   0.00000  Uiso   1.00
H1025  H     0.33930   0.60296   0.75676   0.00000  Uiso   1.00
H1026  H     0.02828   0.37128   0.76889   0.00000  Uiso   1.00
H1027  H     0.47146   0.62824   0.89496   0.00000  Uiso   1.00
H1028  H     0.38330   0.37864   0.72683   0.00000  Uiso   1.00
H1029  H     0.34443   0.38488   0.78302   0.00000  Uiso   1.00
H1030  H     0.34512   0.42353   0.72695   0.00000  Uiso   1.00
H1031  H     0.11592   0.62101   0.93905   0.00000  Uiso   1.00
H1032  H     0.15363   0.57557   0.94058   0.00000  Uiso   1.00
N1033  N     0.23745   0.48547   0.67951   0.00000  Uiso   1.00
N1034  N     0.26256   0.51453   0.98716   0.00000  Uiso   1.00
O1035  O     0.25326   0.42871   0.87326   0.00000  Uiso   1.00
O1036  O     0.45498   0.63790   0.74786   0.00000  Uiso   1.00
O1037  O     0.04750   0.35595   0.90870   0.00000  Uiso   1.00
O1038  O     0.08687   0.65396   0.83335   0.00000  Uiso   1.00
O1039  O     0.17950   0.42226   0.68270   0.00000  Uiso   1.00
O1040  O     0.18742   0.42661   0.92172   0.00000  Uiso   1.00
O1041  O     0.32077   0.57752   0.98406   0.00000  Uiso   1.00
O1042  O     0.31277   0.57331   0.74508   0.00000  Uiso   1.00
O1043  O     0.24675   0.57129   0.79341   0.00000  Uiso   1.00
O1044  O     0.24480   0.41892   0.76945   0.00000  Uiso   1.00
O1045  O     0.25520   0.58108   0.89721   0.00000  Uiso   1.00
O1046  O     0.18936   0.50488   0.88524   0.00000  Uiso   1.00
O1047  O     0.31065   0.49512   0.78143   0.00000  Uiso   1.00
O1048  O     0.18090   0.49510   0.78143   0.00000  Uiso   1.00
O1049  O     0.31910   0.50490   0.88523   0.00000  Uiso   1.00
O1050  O     0.41638   0.34244   0.82275   0.00000  Uiso   1.00
C1051  C     0.74758   0.40009   0.81798   0.00000  Uiso   1.00
C1052  C     0.58729   0.45807   0.80212   0.00000  Uiso   1.00
C1053  C     0.88317   0.49583   0.83352   0.00000  Uiso   1.00
C1054  C     0.61664   0.50354   0.83274   0.00000  Uiso   1.00
C1055  C     0.89961   0.45010   0.80258   0.00000  Uiso   1.00
C1056  C     0.60004   0.54896   0.86397   0.00000  Uiso   1.00
C1057  C     0.94723   0.44919   0.80921   0.00000  Uiso   1.00
C1058  C     0.55245   0.54976   0.85693   0.00000  Uiso   1.00
C1059  C     0.97635   0.49800   0.83376   0.00000  Uiso   1.00
C1060  C     0.52336   0.50101   0.83232   0.00000  Uiso   1.00
C1061  C     0.95856   0.54399   0.85994   0.00000  Uiso   1.00
C1062  C     0.75239   0.59991   0.84870   0.00000  Uiso   1.00
C1063  C     0.54118   0.45530   0.80549   0.00000  Uiso   1.00
C1064  C     0.96724   0.40231   0.79128   0.00000  Uiso   1.00
C1065  C     0.53254   0.59666   0.87401   0.00000  Uiso   1.00
C1066  C     0.86652   0.40659   0.75811   0.00000  Uiso   1.00
C1067  C     0.63290   0.59252   0.90872   0.00000  Uiso   1.00
C1068  C     0.94395   0.34853   0.78829   0.00000  Uiso   1.00
C1069  C     0.55610   0.64957   0.87437   0.00000  Uiso   1.00
C1070  C     0.70304   0.64621   0.76045   0.00000  Uiso   1.00
C1071  C     0.79681   0.35380   0.90637   0.00000  Uiso   1.00
C1072  C     0.70055   0.44422   0.98374   0.00000  Uiso   1.00
C1073  C     0.51328   0.40666   0.78519   0.00000  Uiso   1.00
C1074  C     0.79959   0.55568   0.68301   0.00000  Uiso   1.00
C1075  C     0.98645   0.59264   0.87969   0.00000  Uiso   1.00
C1076  C     0.73966   0.34389   0.81162   0.00000  Uiso   1.00
C1077  C     0.76026   0.65611   0.85509   0.00000  Uiso   1.00
C1078  C     0.66483   0.50148   0.83327   0.00000  Uiso   1.00
C1079  C     0.83508   0.49818   0.83329   0.00000  Uiso   1.00
C1080  C     0.91248   0.54163   0.86286   0.00000  Uiso   1.00
Cu1081 Cu    0.75501   0.50579   0.89479   0.00000  Uiso   1.00
Cu1082 Cu    0.74500   0.49421   0.77187   0.00000  Uiso   1.00
H1083  H     0.89879   0.57676   0.88425   0.00000  Uiso   1.00
H1084  H     0.65565   0.61374   0.88411   0.00000  Uiso   1.00
H1085  H     0.93733   0.60347   0.75074   0.00000  Uiso   1.00
H1086  H     0.60001   0.35856   0.83672   0.00000  Uiso   1.00
H1087  H     0.68310   0.33943   0.74048   0.00000  Uiso   1.00
H1088  H     0.71851   0.62244   0.72325   0.00000  Uiso   1.00
H1089  H     0.67846   0.62030   0.77769   0.00000  Uiso   1.00
H1090  H     0.81671   0.66060   0.92643   0.00000  Uiso   1.00
H1091  H     0.82144   0.37973   0.88921   0.00000  Uiso   1.00
H1092  H     0.78126   0.37756   0.94350   0.00000  Uiso   1.00
H1093  H     0.66188   0.39588   0.91023   0.00000  Uiso   1.00
H1094  H     0.60099   0.42351   0.77925   0.00000  Uiso   1.00
H1095  H     0.83930   0.60296   0.75676   0.00000  Uiso   1.00
H1096  H     0.52828   0.37128   0.76889   0.00000  Uiso   1.00
H1097  H     0.97146   0.62824   0.89496   0.00000  Uiso   1.00
H1098  H     0.88330   0.37864   0.72683   0.00000  Uiso   1.00
H1099  H     0.84443   0.38488   0.78302   0.00000  Uiso   1.00
H1100  H     0.84512   0.42353   0.72695   0.00000  Uiso   1.00
H1101  H     0.61592   0.62101   0.93905   0.00000  Uiso   1.00
H1102  H     0.65363   0.57557   0.94058   0.00000  Uiso   1.00
N1103  N     0.73745   0.48547   0.67951   0.00000  Uiso   1.00
N1104  N     0.76256   0.51453   0.98716   0.00000  Uiso   1.00
O1105  O     0.75326   0.42871   0.87326   0.00000  Uiso   1.00
O1106  O     0.95498   0.63790   0.74786   0.00000  Uiso   1.00
O1107  O     0.54750   0.35595   0.90870   0.00000  Uiso   1.00
O1108  O     0.58687   0.65396   0.83335   0.00000  Uiso   1.00
O1109  O     0.67950   0.42226   0.68270   0.00000  Uiso   1.00
O1110  O     0.68742   0.42661   0.92172   0.00000  Uiso   1.00
O1111  O     0.82077   0.57752   0.98406   0.00000  Uiso   1.00
O1112  O     0.81277   0.57331   0.74508   0.00000  Uiso   1.00
O1113  O     0.74675   0.57129   0.79341   0.00000  Uiso   1.00
O1114  O     0.74480   0.41892   0.76945   0.00000  Uiso   1.00
O1115  O     0.75520   0.58108   0.89721   0.00000  Uiso   1.00
O1116  O     0.68936   0.50488   0.88524   0.00000  Uiso   1.00
O1117  O     0.81065   0.49512   0.78143   0.00000  Uiso   1.00
O1118  O     0.68090   0.49510   0.78143   0.00000  Uiso   1.00
O1119  O     0.81910   0.50490   0.88523   0.00000  Uiso   1.00
O1120  O     0.91638   0.34244   0.82275   0.00000  Uiso   1.00
C1121  C     0.24758   0.73342   0.81798   0.00000  Uiso   1.00
C1122  C     0.08729   0.79140   0.80212   0.00000  Uiso   1.00
C1123  C     0.38317   0.82916   0.83352   0.00000  Uiso   1.00
C1124  C     0.11664   0.83688   0.83274   0.00000  Uiso   1.00
C1125  C     0.39961   0.78344   0.80258   0.00000  Uiso   1.00
C1126  C     0.10004   0.88230   0.86397   0.00000  Uiso   1.00
C1127  C     0.44723   0.78252   0.80921   0.00000  Uiso   1.00
C1128  C     0.05245   0.88309   0.85693   0.00000  Uiso   1.00
C1129  C     0.47635   0.83133   0.83376   0.00000  Uiso   1.00
C1130  C     0.02336   0.83435   0.83232   0.00000  Uiso   1.00
C1131  C     0.45856   0.87733   0.85994   0.00000  Uiso   1.00
C1132  C     0.25239   0.93324   0.84870   0.00000  Uiso   1.00
C1133  C     0.04118   0.78863   0.80549   0.00000  Uiso   1.00
C1134  C     0.46724   0.73564   0.79128   0.00000  Uiso   1.00
C1135  C     0.03254   0.93000   0.87401   0.00000  Uiso   1.00
C1136  C     0.36652   0.73992   0.75811   0.00000  Uiso   1.00
C1137  C     0.13290   0.92586   0.90872   0.00000  Uiso   1.00
C1138  C     0.44395   0.68187   0.78829   0.00000  Uiso   1.00
C1139  C     0.05610   0.98290   0.87437   0.00000  Uiso   1.00
C1140  C     0.20304   0.97955   0.76045   0.00000  Uiso   1.00
C1141  C     0.29681   0.68714   0.90637   0.00000  Uiso   1.00
C1142  C     0.20055   0.77755   0.98374   0.00000  Uiso   1.00
C1143  C     0.01328   0.74000   0.78519   0.00000  Uiso   1.00
C1144  C     0.29959   0.88901   0.68301   0.00000  Uiso   1.00
C1145  C     0.48645   0.92598   0.87969   0.00000  Uiso   1.00
C1146  C     0.23966   0.67723   0.81162   0.00000  Uiso   1.00
C1147  C     0.26026   0.98944   0.85509   0.00000  Uiso   1.00
C1148  C     0.16483   0.83481   0.83327   0.00000  Uiso   1.00
C1149  C     0.33508   0.83151   0.83329   0.00000  Uiso   1.00
C1150  C     0.41248   0.87496   0.86286   0.00000  Uiso   1.00
Cu1151 Cu    0.25501   0.83913   0.89479   0.00000  Uiso   1.00
Cu1152 Cu    0.24500   0.82754   0.77187   0.00000  Uiso   1.00
H1153  H     0.39879   0.91009   0.88425   0.00000  Uiso   1.00
H1154  H     0.15565   0.94707   0.88411   0.00000  Uiso   1.00
H1155  H     0.43733   0.93681   0.75074   0.00000  Uiso   1.00
H1156  H     0.10001   0.69189   0.83672   0.00000  Uiso   1.00
H1157  H     0.18310   0.67276   0.74048   0.00000  Uiso   1.00
H1158  H     0.21851   0.95578   0.72325   0.00000  Uiso   1.00
H1159  H     0.17846   0.95363   0.77769   0.00000  Uiso   1.00
H1160  H     0.31671   0.99394   0.92643   0.00000  Uiso   1.00
H1161  H     0.32144   0.71307   0.88921   0.00000  Uiso   1.00
H1162  H     0.28126   0.71089   0.94350   0.00000  Uiso   1.00
H1163  H     0.16188   0.72921   0.91023   0.00000  Uiso   1.00
H1164  H     0.10099   0.75684   0.77925   0.00000  Uiso   1.00
H1165  H     0.33930   0.93630   0.75676   0.00000  Uiso   1.00
H1166  H     0.02828   0.70461   0.76889   0.00000  Uiso   1.00
H1167  H     0.47146   0.96157   0.89496   0.00000  Uiso   1.00
H1168  H     0.38330   0.71197   0.72683   0.00000  Uiso   1.00
H1169  H     0.34443   0.71821   0.78302   0.00000  Uiso   1.00
H1170  H     0.34512   0.75686   0.72695   0.00000  Uiso   1.00
H1171  H     0.11592   0.95435   0.93905   0.00000  Uiso   1.00
H1172  H     0.15363   0.90890   0.94058   0.00000  Uiso   1.00
N1173  N     0.23745   0.81881   0.67951   0.00000  Uiso   1.00
N1174  N     0.26256   0.84786   0.98716   0.00000  Uiso   1.00
O1175  O     0.25326   0.76204   0.87326   0.00000  Uiso   1.00
O1176  O     0.45498   0.97123   0.74786   0.00000  Uiso   1.00
O1177  O     0.04750   0.68928   0.90870   0.00000  Uiso   1.00
O1178  O     0.08687   0.98730   0.83335   0.00000  Uiso   1.00
O1179  O     0.17950   0.75560   0.68270   0.00000  Uiso   1.00
O1180  O     0.18742   0.75994   0.92172   0.00000  Uiso   1.00
O1181  O     0.32077   0.91086   0.98406   0.00000  Uiso   1.00
O1182  O     0.31277   0.90664   0.74508   0.00000  Uiso   1.00
O1183  O     0.24675   0.90462   0.79341   0.00000  Uiso   1.00
O1184  O     0.24480   0.75226   0.76945   0.00000  Uiso   1.00
O1185  O     0.25520   0.91441   0.89721   0.00000  Uiso   1.00
O1186  O     0.18936   0.83821   0.88524   0.00000  Uiso   1.00
O1187  O     0.31065   0.82845   0.78143   0.00000  Uiso   1.00
O1188  O     0.18090   0.82843   0.78143   0.00000  Uiso   1.00
O1189  O     0.31910   0.83824   0.88523   0.00000  Uiso   1.00
O1190  O     0.41638   0.67577   0.82275   0.00000  Uiso   1.00
C1191  C     0.74758   0.73342   0.81798   0.00000  Uiso   1.00
C1192  C     0.58729   0.79140   0.80212   0.00000  Uiso   1.00
C1193  C     0.88317   0.82916   0.83352   0.00000  Uiso   1.00
C1194  C     0.61664   0.83688   0.83274   0.00000  Uiso   1.00
C1195  C     0.89961   0.78344   0.80258   0.00000  Uiso   1.00
C1196  C     0.60004   0.88230   0.86397   0.00000  Uiso   1.00
C1197  C     0.94723   0.78252   0.80921   0.00000  Uiso   1.00
C1198  C     0.55245   0.88309   0.85693   0.00000  Uiso   1.00
C1199  C     0.97635   0.83133   0.83376   0.00000  Uiso   1.00
C1200  C     0.52336   0.83435   0.83232   0.00000  Uiso   1.00
C1201  C     0.95856   0.87733   0.85994   0.00000  Uiso   1.00
C1202  C     0.75239   0.93324   0.84870   0.00000  Uiso   1.00
C1203  C     0.54118   0.78863   0.80549   0.00000  Uiso   1.00
C1204  C     0.96724   0.73564   0.79128   0.00000  Uiso   1.00
C1205  C     0.53254   0.93000   0.87401   0.00000  Uiso   1.00
C1206  C     0.86652   0.73992   0.75811   0.00000  Uiso   1.00
C1207  C     0.63290   0.92586   0.90872   0.00000  Uiso   1.00
C1208  C     0.94395   0.68187   0.78829   0.00000  Uiso   1.00
C1209  C     0.55610   0.98290   0.87437   0.00000  Uiso   1.00
C1210  C     0.70304   0.97955   0.76045   0.00000  Uiso   1.00
C1211  C     0.79681   0.68714   0.90637   0.00000  Uiso   1.00
C1212  C     0.70055   0.77755   0.98374   0.00000  Uiso   1.00
C1213  C     0.51328   0.74000   0.78519   0.00000  Uiso   1.00
C1214  C     0.79959   0.88901   0.68301   0.00000  Uiso   1.00
C1215  C     0.98645   0.92598   0.87969   0.00000  Uiso   1.00
C1216  C     0.73966   0.67723   0.81162   0.00000  Uiso   1.00
C1217  C     0.76026   0.98944   0.85509   0.00000  Uiso   1.00
C1218  C     0.66483   0.83481   0.83327   0.00000  Uiso   1.00
C1219  C     0.83508   0.83151   0.83329   0.00000  Uiso   1.00
C1220  C     0.91248   0.87496   0.86286   0.00000  Uiso   1.00
Cu1221 Cu    0.75501   0.83913   0.89479   0.00000  Uiso   1.00
Cu1222 Cu    0.74500   0.82754   0.77187   0.00000  Uiso   1.00
H1223  H     0.89879   0.91009   0.88425   0.00000  Uiso   1.00
H1224  H     0.65565   0.94707   0.88411   0.00000  Uiso   1.00
H1225  H     0.93733   0.93681   0.75074   0.00000  Uiso   1.00
H1226  H     0.60001   0.69189   0.83672   0.00000  Uiso   1.00
H1227  H     0.68310   0.67276   0.74048   0.00000  Uiso   1.00
H1228  H     0.71851   0.95578   0.72325   0.00000  Uiso   1.00
H1229  H     0.67846   0.95363   0.77769   0.00000  Uiso   1.00
H1230  H     0.81671   0.99394   0.92643   0.00000  Uiso   1.00
H1231  H     0.82144   0.71307   0.88921   0.00000  Uiso   1.00
H1232  H     0.78126   0.71089   0.94350   0.00000  Uiso   1.00
H1233  H     0.66188   0.72921   0.91023   0.00000  Uiso   1.00
H1234  H     0.60099   0.75684   0.77925   0.00000  Uiso   1.00
H1235  H     0.83930   0.93630   0.75676   0.00000  Uiso   1.00
H1236  H     0.52828   0.70461   0.76889   0.00000  Uiso   1.00
H1237  H     0.97146   0.96157   0.89496   0.00000  Uiso   1.00
H1238  H     0.88330   0.71197   0.72683   0.00000  Uiso   1.00
H1239  H     0.84443   0.71821   0.78302   0.00000  Uiso   1.00
H1240  H     0.84512   0.75686   0.72695   0.00000  Uiso   1.00
H1241  H     0.61592   0.95435   0.93905   0.00000  Uiso   1.00
H1242  H     0.65363   0.90890   0.94058   0.00000  Uiso   1.00
N1243  N     0.73745   0.81881   0.67951   0.00000  Uiso   1.00
N1244  N     0.76256   0.84786   0.98716   0.00000  Uiso   1.00
O1245  O     0.75326   0.76204   0.87326   0.00000  Uiso   1.00
O1246  O     0.95498   0.97123   0.74786   0.00000  Uiso   1.00
O1247  O     0.54750   0.68928   0.90870   0.00000  Uiso   1.00
O1248  O     0.58687   0.98730   0.83335   0.00000  Uiso   1.00
O1249  O     0.67950   0.75560   0.68270   0.00000  Uiso   1.00
O1250  O     0.68742   0.75994   0.92172   0.00000  Uiso   1.00
O1251  O     0.82077   0.91086   0.98406   0.00000  Uiso   1.00
O1252  O     0.81277   0.90664   0.74508   0.00000  Uiso   1.00
O1253  O     0.74675   0.90462   0.79341   0.00000  Uiso   1.00
O1254  O     0.74480   0.75226   0.76945   0.00000  Uiso   1.00
O1255  O     0.75520   0.91441   0.89721   0.00000  Uiso   1.00
O1256  O     0.68936   0.83821   0.88524   0.00000  Uiso   1.00
O1257  O     0.81065   0.82845   0.78143   0.00000  Uiso   1.00
O1258  O     0.68090   0.82843   0.78143   0.00000  Uiso   1.00
O1259  O     0.81910   0.83824   0.88523   0.00000  Uiso   1.00
O1260  O     0.91638   0.67577   0.82275   0.00000  Uiso   1.00
loop_
_geom_bond_atom_site_label_1
_geom_bond_atom_site_label_2
_geom_bond_distance
_geom_bond_site_symmetry_2
_ccdc_geom_bond_type
C1     O55     1.294   .     A
C1     C26     1.439   .     S
C1     O64     1.311   .     A
C2     C4      1.391   .     A
C2     C13     1.388   .     A
C2     H44     1.085   .     S
C3     C30     1.390   .     A
C3     C29     1.450   .     S
C3     C5      1.415   .     A
C4     C6      1.414   .     A
C4     C28     1.451   .     S
C5     C7      1.423   .     A
C5     C16     1.521   .     S
C6     C17     1.521   .     S
C6     C8      1.422   .     A
C7     C9      1.425   .     A
C7     C14     1.425   .     A
C8     C10     1.424   .     A
C8     C15     1.422   .     A
C9     C11     1.408   .     A
C9     C80     1.407   .     S
C10    C13     1.407   .     A
C10    C79     1.407   1_455 S
C11    C30     1.386   .     A
C11    C25     1.396   .     A
C12    O63     1.294   .     A
C12    C27     1.439   .     S
C12    O65     1.311   .     A
C13    C23     1.396   .     A
C14    C18     1.486   .     S
C14    C93     1.397   .     S
C15    C19     1.484   .     S
C15    C95     1.397   1_455 S
C16    H48     1.106   .     S
C16    H50     1.108   .     S
C16    H49     1.110   .     S
C17    H51     1.106   .     S
C17    H52     1.108   .     S
C17    H34     1.110   .     S
C18    O70     1.223   .     D
C18    O336    1.399   1_545 S
C19    O58     1.398   .     S
C19    O197    1.223   .     S
C20    H38     1.110   .     S
C20    H39     1.111   .     S
C20    C166    1.522   .     S
C20    H177    1.111   .     S
C21    H41     1.111   .     S
C21    H42     1.110   .     S
C21    C307    1.522   1_545 S
C21    H320    1.111   1_545 S
C22    O60     1.382   .     S
C22    N473    1.442   .     S
C22    O479    1.220   .     S
C23    H46     1.084   .     S
C23    C84     1.397   1_455 S
C24    O62     1.383   .     S
C24    N894    1.443   1_554 S
C24    O901    1.220   1_554 S
C25    H47     1.085   .     S
C25    C85     1.397   .     S
C26    C300    1.522   1_545 S
C26    C307    1.368   1_545 S
C27    C166    1.368   .     S
C27    C161    1.522   .     S
C28    O68     1.308   .     A
C28    O66     1.305   .     A
C29    O69     1.308   .     A
C29    O67     1.304   .     A
C30    H33     1.086   .     S
Cu31   O66     1.954   .     S
Cu31   Cu32    2.731   .     S
Cu31   N54     2.052   .     S
Cu31   O55     1.964   .     S
Cu31   O69     1.960   .     S
Cu31   O65     1.965   .     S
Cu32   O68     1.960   .     S
Cu32   O64     1.965   .     S
Cu32   N53     2.052   .     S
Cu32   O67     1.954   .     S
Cu32   O63     1.964   .     S
H35    O56     1.014   .     S
H36    O338    1.011   1_545 S
H37    C300    1.111   1_545 S
H40    C161    1.111   .     S
H43    O60     1.013   .     S
H45    O62     1.015   .     S
N53    C862    1.442   1_554 S
N53    N894    1.290   1_554 S
N54    N473    1.290   .     S
N54    C444    1.443   .     S
O56    C158    1.399   .     S
O57    C299    1.223   1_545 S
O58    H176    1.011   .     S
O59    C862    1.220   1_554 S
O61    C444    1.220   .     S
C71    O125    1.294   .     A
C71    C96     1.439   .     S
C71    O134    1.311   .     A
C72    C74     1.391   .     A
C72    C83     1.388   .     A
C72    H114    1.085   .     S
C73    C100    1.390   .     A
C73    C99     1.450   .     S
C73    C75     1.415   .     A
C74    C76     1.414   .     A
C74    C98     1.451   .     S
C75    C77     1.423   .     A
C75    C86     1.521   .     S
C76    C87     1.521   .     S
C76    C78     1.422   .     A
C77    C79     1.425   .     A
C77    C84     1.425   .     A
C78    C80     1.424   .     A
C78    C85     1.422   .     A
C79    C81     1.408   .     A
C79    C10     1.407   1_655 S
C80    C83     1.407   .     A
C81    C100    1.386   .     A
C81    C95     1.396   .     A
C82    O133    1.294   .     A
C82    C97     1.439   .     S
C82    O135    1.311   .     A
C83    C93     1.396   .     A
C84    C88     1.486   .     S
C84    C23     1.397   1_655 S
C85    C89     1.484   .     S
C86    H118    1.106   .     S
C86    H120    1.108   .     S
C86    H119    1.110   .     S
C87    H121    1.106   .     S
C87    H122    1.108   .     S
C87    H104    1.110   .     S
C88    O140    1.223   .     D
C88    O406    1.399   1_545 S
C89    O128    1.398   .     S
C89    O267    1.223   .     S
C90    H108    1.110   .     S
C90    H109    1.111   .     S
C90    C236    1.522   .     S
C90    H247    1.111   .     S
C91    H111    1.111   .     S
C91    H112    1.110   .     S
C91    C377    1.522   1_545 S
C91    H390    1.111   1_545 S
C92    O130    1.382   .     S
C92    N543    1.442   .     S
C92    O549    1.220   .     S
C93    H116    1.084   .     S
C94    O132    1.383   .     S
C94    N964    1.443   1_554 S
C94    O971    1.220   1_554 S
C95    H117    1.085   .     S
C95    C15     1.397   1_655 S
C96    C370    1.522   1_545 S
C96    C377    1.368   1_545 S
C97    C236    1.368   .     S
C97    C231    1.522   .     S
C98    O138    1.308   .     A
C98    O136    1.305   .     A
C99    O139    1.308   .     A
C99    O137    1.304   .     A
C100   H103    1.086   .     S
Cu101  O136    1.954   .     S
Cu101  Cu102   2.731   .     S
Cu101  N124    2.052   .     S
Cu101  O125    1.964   .     S
Cu101  O139    1.960   .     S
Cu101  O135    1.965   .     S
Cu102  O138    1.960   .     S
Cu102  O134    1.965   .     S
Cu102  N123    2.052   .     S
Cu102  O137    1.954   .     S
Cu102  O133    1.964   .     S
H105   O126    1.014   .     S
H106   O408    1.011   1_545 S
H107   C370    1.111   1_545 S
H110   C231    1.111   .     S
H113   O130    1.013   .     S
H115   O132    1.015   .     S
N123   C932    1.442   1_554 S
N123   N964    1.290   1_554 S
N124   N543    1.290   .     S
N124   C514    1.443   .     S
O126   C228    1.399   .     S
O127   C369    1.223   1_545 S
O128   H246    1.011   .     S
O129   C932    1.220   1_554 S
O131   C514    1.220   .     S
C141   O195    1.294   .     A
C141   C166    1.439   .     S
C141   O204    1.311   .     A
C142   C144    1.391   .     A
C142   C153    1.388   .     A
C142   H184    1.085   .     S
C143   C170    1.390   .     A
C143   C169    1.450   .     S
C143   C145    1.415   .     A
C144   C146    1.414   .     A
C144   C168    1.451   .     S
C145   C147    1.423   .     A
C145   C156    1.521   .     S
C146   C157    1.521   .     S
C146   C148    1.422   .     A
C147   C149    1.425   .     A
C147   C154    1.425   .     A
C148   C150    1.424   .     A
C148   C155    1.422   .     A
C149   C151    1.408   .     A
C149   C220    1.407   .     S
C150   C153    1.407   .     A
C150   C219    1.407   1_455 S
C151   C170    1.386   .     A
C151   C165    1.396   .     A
C152   O203    1.294   .     A
C152   C167    1.439   .     S
C152   O205    1.311   .     A
C153   C163    1.396   .     A
C154   C158    1.486   .     S
C154   C233    1.397   .     S
C155   C159    1.484   .     S
C155   C235    1.397   1_455 S
C156   H188    1.106   .     S
C156   H190    1.108   .     S
C156   H189    1.110   .     S
C157   H191    1.106   .     S
C157   H192    1.108   .     S
C157   H174    1.110   .     S
C158   O210    1.223   .     D
C159   O198    1.398   .     S
C159   O337    1.223   .     S
C160   H178    1.110   .     S
C160   H179    1.111   .     S
C160   C306    1.522   .     S
C160   H317    1.111   .     S
C161   H181    1.111   .     S
C161   H182    1.110   .     S
C162   O200    1.382   .     S
C162   N613    1.442   .     S
C162   O619    1.220   .     S
C163   H186    1.084   .     S
C163   C224    1.397   1_455 S
C164   O202    1.383   .     S
C164   N1034   1.443   1_554 S
C164   O1041   1.220   1_554 S
C165   H187    1.085   .     S
C165   C225    1.397   .     S
C167   C306    1.368   .     S
C167   C301    1.522   .     S
C168   O208    1.308   .     A
C168   O206    1.305   .     A
C169   O209    1.308   .     A
C169   O207    1.304   .     A
C170   H173    1.086   .     S
Cu171  O206    1.954   .     S
Cu171  Cu172   2.731   .     S
Cu171  N194    2.052   .     S
Cu171  O195    1.964   .     S
Cu171  O209    1.960   .     S
Cu171  O205    1.965   .     S
Cu172  O208    1.960   .     S
Cu172  O204    1.965   .     S
Cu172  N193    2.052   .     S
Cu172  O207    1.954   .     S
Cu172  O203    1.964   .     S
H175   O196    1.014   .     S
H180   C301    1.111   .     S
H183   O200    1.013   .     S
H185   O202    1.015   .     S
N193   C1002   1.442   1_554 S
N193   N1034   1.290   1_554 S
N194   N613    1.290   .     S
N194   C584    1.443   .     S
O196   C298    1.399   .     S
O198   H316    1.011   .     S
O199   C1002   1.220   1_554 S
O201   C584    1.220   .     S
C211   O265    1.294   .     A
C211   C236    1.439   .     S
C211   O274    1.311   .     A
C212   C214    1.391   .     A
C212   C223    1.388   .     A
C212   H254    1.085   .     S
C213   C240    1.390   .     A
C213   C239    1.450   .     S
C213   C215    1.415   .     A
C214   C216    1.414   .     A
C214   C238    1.451   .     S
C215   C217    1.423   .     A
C215   C226    1.521   .     S
C216   C227    1.521   .     S
C216   C218    1.422   .     A
C217   C219    1.425   .     A
C217   C224    1.425   .     A
C218   C220    1.424   .     A
C218   C225    1.422   .     A
C219   C221    1.408   .     A
C219   C150    1.407   1_655 S
C220   C223    1.407   .     A
C221   C240    1.386   .     A
C221   C235    1.396   .     A
C222   O273    1.294   .     A
C222   C237    1.439   .     S
C222   O275    1.311   .     A
C223   C233    1.396   .     A
C224   C228    1.486   .     S
C224   C163    1.397   1_655 S
C225   C229    1.484   .     S
C226   H258    1.106   .     S
C226   H260    1.108   .     S
C226   H259    1.110   .     S
C227   H261    1.106   .     S
C227   H262    1.108   .     S
C227   H244    1.110   .     S
C228   O280    1.223   .     D
C229   O268    1.398   .     S
C229   O407    1.223   .     S
C230   H248    1.110   .     S
C230   H249    1.111   .     S
C230   C376    1.522   .     S
C230   H387    1.111   .     S
C231   H251    1.111   .     S
C231   H252    1.110   .     S
C232   O270    1.382   .     S
C232   N683    1.442   .     S
C232   O689    1.220   .     S
C233   H256    1.084   .     S
C234   O272    1.383   .     S
C234   N1104   1.443   1_554 S
C234   O1111   1.220   1_554 S
C235   H257    1.085   .     S
C235   C155    1.397   1_655 S
C237   C376    1.368   .     S
C237   C371    1.522   .     S
C238   O278    1.308   .     A
C238   O276    1.305   .     A
C239   O279    1.308   .     A
C239   O277    1.304   .     A
C240   H243    1.086   .     S
Cu241  O276    1.954   .     S
Cu241  Cu242   2.731   .     S
Cu241  N264    2.052   .     S
Cu241  O265    1.964   .     S
Cu241  O279    1.960   .     S
Cu241  O275    1.965   .     S
Cu242  O278    1.960   .     S
Cu242  O274    1.965   .     S
Cu242  N263    2.052   .     S
Cu242  O277    1.954   .     S
Cu242  O273    1.964   .     S
H245   O266    1.014   .     S
H250   C371    1.111   .     S
H253   O270    1.013   .     S
H255   O272    1.015   .     S
N263   C1072   1.442   1_554 S
N263   N1104   1.290   1_554 S
N264   N683    1.290   .     S
N264   C654    1.443   .     S
O266   C368    1.399   .     S
O268   H386    1.011   .     S
O269   C1072   1.220   1_554 S
O271   C654    1.220   .     S
C281   O335    1.294   .     A
C281   C306    1.439   .     S
C281   O344    1.311   .     A
C282   C284    1.391   .     A
C282   C293    1.388   .     A
C282   H324    1.085   .     S
C283   C310    1.390   .     A
C283   C309    1.450   .     S
C283   C285    1.415   .     A
C284   C286    1.414   .     A
C284   C308    1.451   .     S
C285   C287    1.423   .     A
C285   C296    1.521   .     S
C286   C297    1.521   .     S
C286   C288    1.422   .     A
C287   C289    1.425   .     A
C287   C294    1.425   .     A
C288   C290    1.424   .     A
C288   C295    1.422   .     A
C289   C291    1.408   .     A
C289   C360    1.407   .     S
C290   C293    1.407   .     A
C290   C359    1.407   1_455 S
C291   C310    1.386   .     A
C291   C305    1.396   .     A
C292   O343    1.294   .     A
C292   C307    1.439   .     S
C292   O345    1.311   .     A
C293   C303    1.396   .     A
C294   C298    1.486   .     S
C294   C373    1.397   .     S
C295   C299    1.484   .     S
C295   C375    1.397   1_455 S
C296   H328    1.106   .     S
C296   H330    1.108   .     S
C296   H329    1.110   .     S
C297   H331    1.106   .     S
C297   H332    1.108   .     S
C297   H314    1.110   .     S
C298   O350    1.223   .     D
C299   O338    1.398   .     S
C299   O57     1.223   1_565 S
C300   H318    1.110   .     S
C300   H319    1.111   .     S
C300   C26     1.522   1_565 S
C300   H37     1.111   1_565 S
C301   H321    1.111   .     S
C301   H322    1.110   .     S
C302   O340    1.382   .     S
C302   N753    1.442   .     S
C302   O759    1.220   .     S
C303   H326    1.084   .     S
C303   C364    1.397   1_455 S
C304   O342    1.383   .     S
C304   N1174   1.443   1_554 S
C304   O1181   1.220   1_554 S
C305   H327    1.085   .     S
C305   C365    1.397   .     S
C307   C26     1.368   1_565 S
C307   C21     1.522   1_565 S
C308   O348    1.308   .     A
C308   O346    1.305   .     A
C309   O349    1.308   .     A
C309   O347    1.304   .     A
C310   H313    1.086   .     S
Cu311  O346    1.954   .     S
Cu311  Cu312   2.731   .     S
Cu311  N334    2.052   .     S
Cu311  O335    1.964   .     S
Cu311  O349    1.960   .     S
Cu311  O345    1.965   .     S
Cu312  O348    1.960   .     S
Cu312  O344    1.965   .     S
Cu312  N333    2.052   .     S
Cu312  O347    1.954   .     S
Cu312  O343    1.964   .     S
H315   O336    1.014   .     S
H320   C21     1.111   1_565 S
H323   O340    1.013   .     S
H325   O342    1.015   .     S
N333   C1142   1.442   1_554 S
N333   N1174   1.290   1_554 S
N334   N753    1.290   .     S
N334   C724    1.443   .     S
O336   C18     1.399   1_565 S
O338   H36     1.011   1_565 S
O339   C1142   1.220   1_554 S
O341   C724    1.220   .     S
C351   O405    1.294   .     A
C351   C376    1.439   .     S
C351   O414    1.311   .     A
C352   C354    1.391   .     A
C352   C363    1.388   .     A
C352   H394    1.085   .     S
C353   C380    1.390   .     A
C353   C379    1.450   .     S
C353   C355    1.415   .     A
C354   C356    1.414   .     A
C354   C378    1.451   .     S
C355   C357    1.423   .     A
C355   C366    1.521   .     S
C356   C367    1.521   .     S
C356   C358    1.422   .     A
C357   C359    1.425   .     A
C357   C364    1.425   .     A
C358   C360    1.424   .     A
C358   C365    1.422   .     A
C359   C361    1.408   .     A
C359   C290    1.407   1_655 S
C360   C363    1.407   .     A
C361   C380    1.386   .     A
C361   C375    1.396   .     A
C362   O413    1.294   .     A
C362   C377    1.439   .     S
C362   O415    1.311   .     A
C363   C373    1.396   .     A
C364   C368    1.486   .     S
C364   C303    1.397   1_655 S
C365   C369    1.484   .     S
C366   H398    1.106   .     S
C366   H400    1.108   .     S
C366   H399    1.110   .     S
C367   H401    1.106   .     S
C367   H402    1.108   .     S
C367   H384    1.110   .     S
C368   O420    1.223   .     D
C369   O408    1.398   .     S
C369   O127    1.223   1_565 S
C370   H388    1.110   .     S
C370   H389    1.111   .     S
C370   C96     1.522   1_565 S
C370   H107    1.111   1_565 S
C371   H391    1.111   .     S
C371   H392    1.110   .     S
C372   O410    1.382   .     S
C372   N823    1.442   .     S
C372   O829    1.220   .     S
C373   H396    1.084   .     S
C374   O412    1.383   .     S
C374   N1244   1.443   1_554 S
C374   O1251   1.220   1_554 S
C375   H397    1.085   .     S
C375   C295    1.397   1_655 S
C377   C96     1.368   1_565 S
C377   C91     1.522   1_565 S
C378   O418    1.308   .     A
C378   O416    1.305   .     A
C379   O419    1.308   .     A
C379   O417    1.304   .     A
C380   H383    1.086   .     S
Cu381  O416    1.954   .     S
Cu381  Cu382   2.731   .     S
Cu381  N404    2.052   .     S
Cu381  O405    1.964   .     S
Cu381  O419    1.960   .     S
Cu381  O415    1.965   .     S
Cu382  O418    1.960   .     S
Cu382  O414    1.965   .     S
Cu382  N403    2.052   .     S
Cu382  O417    1.954   .     S
Cu382  O413    1.964   .     S
H385   O406    1.014   .     S
H390   C91     1.111   1_565 S
H393   O410    1.013   .     S
H395   O412    1.015   .     S
N403   C1212   1.442   1_554 S
N403   N1244   1.290   1_554 S
N404   N823    1.290   .     S
N404   C794    1.443   .     S
O406   C88     1.399   1_565 S
O408   H106    1.011   1_565 S
O409   C1212   1.220   1_554 S
O411   C794    1.220   .     S
C421   O475    1.294   .     A
C421   C446    1.439   .     S
C421   O484    1.311   .     A
C422   C424    1.391   .     A
C422   C433    1.388   .     A
C422   H464    1.085   .     S
C423   C450    1.390   .     A
C423   C449    1.450   .     S
C423   C425    1.415   .     A
C424   C426    1.414   .     A
C424   C448    1.451   .     S
C425   C427    1.423   .     A
C425   C436    1.521   .     S
C426   C437    1.521   .     S
C426   C428    1.422   .     A
C427   C429    1.425   .     A
C427   C434    1.425   .     A
C428   C430    1.424   .     A
C428   C435    1.422   .     A
C429   C431    1.408   .     A
C429   C500    1.407   .     S
C430   C433    1.407   .     A
C430   C499    1.407   1_455 S
C431   C450    1.386   .     A
C431   C445    1.396   .     A
C432   O483    1.294   .     A
C432   C447    1.439   .     S
C432   O485    1.311   .     A
C433   C443    1.396   .     A
C434   C438    1.486   .     S
C434   C513    1.397   .     S
C435   C439    1.484   .     S
C435   C515    1.397   1_455 S
C436   H468    1.106   .     S
C436   H470    1.108   .     S
C436   H469    1.110   .     S
C437   H471    1.106   .     S
C437   H472    1.108   .     S
C437   H454    1.110   .     S
C438   O490    1.223   .     D
C438   O756    1.399   1_545 S
C439   O478    1.398   .     S
C439   O617    1.223   .     S
C440   H458    1.110   .     S
C440   H459    1.111   .     S
C440   C586    1.522   .     S
C440   H597    1.111   .     S
C441   H461    1.111   .     S
C441   H462    1.110   .     S
C441   C727    1.522   1_545 S
C441   H740    1.111   1_545 S
C442   O480    1.382   .     S
C442   N893    1.442   .     S
C442   O899    1.220   .     S
C443   H466    1.084   .     S
C443   C504    1.397   1_455 S
C444   O482    1.383   .     S
C445   H467    1.085   .     S
C445   C505    1.397   .     S
C446   C720    1.522   1_545 S
C446   C727    1.368   1_545 S
C447   C586    1.368   .     S
C447   C581    1.522   .     S
C448   O488    1.308   .     A
C448   O486    1.305   .     A
C449   O489    1.308   .     A
C449   O487    1.304   .     A
C450   H453    1.086   .     S
Cu451  O486    1.954   .     S
Cu451  Cu452   2.731   .     S
Cu451  N474    2.052   .     S
Cu451  O475    1.964   .     S
Cu451  O489    1.960   .     S
Cu451  O485    1.965   .     S
Cu452  O488    1.960   .     S
Cu452  O484    1.965   .     S
Cu452  N473    2.052   .     S
Cu452  O487    1.954   .     S
Cu452  O483    1.964   .     S
H455   O476    1.014   .     S
H456   O758    1.011   1_545 S
H457   C720    1.111   1_545 S
H460   C581    1.111   .     S
H463   O480    1.013   .     S
H465   O482    1.015   .     S
N474   N893    1.290   .     S
N474   C864    1.443   .     S
O476   C578    1.399   .     S
O477   C719    1.223   1_545 S
O478   H596    1.011   .     S
O481   C864    1.220   .     S
C491   O545    1.294   .     A
C491   C516    1.439   .     S
C491   O554    1.311   .     A
C492   C494    1.391   .     A
C492   C503    1.388   .     A
C492   H534    1.085   .     S
C493   C520    1.390   .     A
C493   C519    1.450   .     S
C493   C495    1.415   .     A
C494   C496    1.414   .     A
C494   C518    1.451   .     S
C495   C497    1.423   .     A
C495   C506    1.521   .     S
C496   C507    1.521   .     S
C496   C498    1.422   .     A
C497   C499    1.425   .     A
C497   C504    1.425   .     A
C498   C500    1.424   .     A
C498   C505    1.422   .     A
C499   C501    1.408   .     A
C499   C430    1.407   1_655 S
C500   C503    1.407   .     A
C501   C520    1.386   .     A
C501   C515    1.396   .     A
C502   O553    1.294   .     A
C502   C517    1.439   .     S
C502   O555    1.311   .     A
C503   C513    1.396   .     A
C504   C508    1.486   .     S
C504   C443    1.397   1_655 S
C505   C509    1.484   .     S
C506   H538    1.106   .     S
C506   H540    1.108   .     S
C506   H539    1.110   .     S
C507   H541    1.106   .     S
C507   H542    1.108   .     S
C507   H524    1.110   .     S
C508   O560    1.223   .     D
C508   O826    1.399   1_545 S
C509   O548    1.398   .     S
C509   O687    1.223   .     S
C510   H528    1.110   .     S
C510   H529    1.111   .     S
C510   C656    1.522   .     S
C510   H667    1.111   .     S
C511   H531    1.111   .     S
C511   H532    1.110   .     S
C511   C797    1.522   1_545 S
C511   H810    1.111   1_545 S
C512   O550    1.382   .     S
C512   N963    1.442   .     S
C512   O969    1.220   .     S
C513   H536    1.084   .     S
C514   O552    1.383   .     S
C515   H537    1.085   .     S
C515   C435    1.397   1_655 S
C516   C790    1.522   1_545 S
C516   C797    1.368   1_545 S
C517   C656    1.368   .     S
C517   C651    1.522   .     S
C518   O558    1.308   .     A
C518   O556    1.305   .     A
C519   O559    1.308   .     A
C519   O557    1.304   .     A
C520   H523    1.086   .     S
Cu521  O556    1.954   .     S
Cu521  Cu522   2.731   .     S
Cu521  N544    2.052   .     S
Cu521  O545    1.964   .     S
Cu521  O559    1.960   .     S
Cu521  O555    1.965   .     S
Cu522  O558    1.960   .     S
Cu522  O554    1.965   .     S
Cu522  N543    2.052   .     S
Cu522  O557    1.954   .     S
Cu522  O553    1.964   .     S
H525   O546    1.014   .     S
H526   O828    1.011   1_545 S
H527   C790    1.111   1_545 S
H530   C651    1.111   .     S
H533   O550    1.013   .     S
H535   O552    1.015   .     S
N544   N963    1.290   .     S
N544   C934    1.443   .     S
O546   C648    1.399   .     S
O547   C789    1.223   1_545 S
O548   H666    1.011   .     S
O551   C934    1.220   .     S
C561   O615    1.294   .     A
C561   C586    1.439   .     S
C561   O624    1.311   .     A
C562   C564    1.391   .     A
C562   C573    1.388   .     A
C562   H604    1.085   .     S
C563   C590    1.390   .     A
C563   C589    1.450   .     S
C563   C565    1.415   .     A
C564   C566    1.414   .     A
C564   C588    1.451   .     S
C565   C567    1.423   .     A
C565   C576    1.521   .     S
C566   C577    1.521   .     S
C566   C568    1.422   .     A
C567   C569    1.425   .     A
C567   C574    1.425   .     A
C568   C570    1.424   .     A
C568   C575    1.422   .     A
C569   C571    1.408   .     A
C569   C640    1.407   .     S
C570   C573    1.407   .     A
C570   C639    1.407   1_455 S
C571   C590    1.386   .     A
C571   C585    1.396   .     A
C572   O623    1.294   .     A
C572   C587    1.439   .     S
C572   O625    1.311   .     A
C573   C583    1.396   .     A
C574   C578    1.486   .     S
C574   C653    1.397   .     S
C575   C579    1.484   .     S
C575   C655    1.397   1_455 S
C576   H608    1.106   .     S
C576   H610    1.108   .     S
C576   H609    1.110   .     S
C577   H611    1.106   .     S
C577   H612    1.108   .     S
C577   H594    1.110   .     S
C578   O630    1.223   .     D
C579   O618    1.398   .     S
C579   O757    1.223   .     S
C580   H598    1.110   .     S
C580   H599    1.111   .     S
C580   C726    1.522   .     S
C580   H737    1.111   .     S
C581   H601    1.111   .     S
C581   H602    1.110   .     S
C582   O620    1.382   .     S
C582   N1033   1.442   .     S
C582   O1039   1.220   .     S
C583   H606    1.084   .     S
C583   C644    1.397   1_455 S
C584   O622    1.383   .     S
C585   H607    1.085   .     S
C585   C645    1.397   .     S
C587   C726    1.368   .     S
C587   C721    1.522   .     S
C588   O628    1.308   .     A
C588   O626    1.305   .     A
C589   O629    1.308   .     A
C589   O627    1.304   .     A
C590   H593    1.086   .     S
Cu591  O626    1.954   .     S
Cu591  Cu592   2.731   .     S
Cu591  N614    2.052   .     S
Cu591  O615    1.964   .     S
Cu591  O629    1.960   .     S
Cu591  O625    1.965   .     S
Cu592  O628    1.960   .     S
Cu592  O624    1.965   .     S
Cu592  N613    2.052   .     S
Cu592  O627    1.954   .     S
Cu592  O623    1.964   .     S
H595   O616    1.014   .     S
H600   C721    1.111   .     S
H603   O620    1.013   .     S
H605   O622    1.015   .     S
N614   N1033   1.290   .     S
N614   C1004   1.443   .     S
O616   C718    1.399   .     S
O618   H736    1.011   .     S
O621   C1004   1.220   .     S
C631   O685    1.294   .     A
C631   C656    1.439   .     S
C631   O694    1.311   .     A
C632   C634    1.391   .     A
C632   C643    1.388   .     A
C632   H674    1.085   .     S
C633   C660    1.390   .     A
C633   C659    1.450   .     S
C633   C635    1.415   .     A
C634   C636    1.414   .     A
C634   C658    1.451   .     S
C635   C637    1.423   .     A
C635   C646    1.521   .     S
C636   C647    1.521   .     S
C636   C638    1.422   .     A
C637   C639    1.425   .     A
C637   C644    1.425   .     A
C638   C640    1.424   .     A
C638   C645    1.422   .     A
C639   C641    1.408   .     A
C639   C570    1.407   1_655 S
C640   C643    1.407   .     A
C641   C660    1.386   .     A
C641   C655    1.396   .     A
C642   O693    1.294   .     A
C642   C657    1.439   .     S
C642   O695    1.311   .     A
C643   C653    1.396   .     A
C644   C648    1.486   .     S
C644   C583    1.397   1_655 S
C645   C649    1.484   .     S
C646   H678    1.106   .     S
C646   H680    1.108   .     S
C646   H679    1.110   .     S
C647   H681    1.106   .     S
C647   H682    1.108   .     S
C647   H664    1.110   .     S
C648   O700    1.223   .     D
C649   O688    1.398   .     S
C649   O827    1.223   .     S
C650   H668    1.110   .     S
C650   H669    1.111   .     S
C650   C796    1.522   .     S
C650   H807    1.111   .     S
C651   H671    1.111   .     S
C651   H672    1.110   .     S
C652   O690    1.382   .     S
C652   N1103   1.442   .     S
C652   O1109   1.220   .     S
C653   H676    1.084   .     S
C654   O692    1.383   .     S
C655   H677    1.085   .     S
C655   C575    1.397   1_655 S
C657   C796    1.368   .     S
C657   C791    1.522   .     S
C658   O698    1.308   .     A
C658   O696    1.305   .     A
C659   O699    1.308   .     A
C659   O697    1.304   .     A
C660   H663    1.086   .     S
Cu661  O696    1.954   .     S
Cu661  Cu662   2.731   .     S
Cu661  N684    2.052   .     S
Cu661  O685    1.964   .     S
Cu661  O699    1.960   .     S
Cu661  O695    1.965   .     S
Cu662  O698    1.960   .     S
Cu662  O694    1.965   .     S
Cu662  N683    2.052   .     S
Cu662  O697    1.954   .     S
Cu662  O693    1.964   .     S
H665   O686    1.014   .     S
H670   C791    1.111   .     S
H673   O690    1.013   .     S
H675   O692    1.015   .     S
N684   N1103   1.290   .     S
N684   C1074   1.443   .     S
O686   C788    1.399   .     S
O688   H806    1.011   .     S
O691   C1074   1.220   .     S
C701   O755    1.294   .     A
C701   C726    1.439   .     S
C701   O764    1.311   .     A
C702   C704    1.391   .     A
C702   C713    1.388   .     A
C702   H744    1.085   .     S
C703   C730    1.390   .     A
C703   C729    1.450   .     S
C703   C705    1.415   .     A
C704   C706    1.414   .     A
C704   C728    1.451   .     S
C705   C707    1.423   .     A
C705   C716    1.521   .     S
C706   C717    1.521   .     S
C706   C708    1.422   .     A
C707   C709    1.425   .     A
C707   C714    1.425   .     A
C708   C710    1.424   .     A
C708   C715    1.422   .     A
C709   C711    1.408   .     A
C709   C780    1.407   .     S
C710   C713    1.407   .     A
C710   C779    1.407   1_455 S
C711   C730    1.386   .     A
C711   C725    1.396   .     A
C712   O763    1.294   .     A
C712   C727    1.439   .     S
C712   O765    1.311   .     A
C713   C723    1.396   .     A
C714   C718    1.486   .     S
C714   C793    1.397   .     S
C715   C719    1.484   .     S
C715   C795    1.397   1_455 S
C716   H748    1.106   .     S
C716   H750    1.108   .     S
C716   H749    1.110   .     S
C717   H751    1.106   .     S
C717   H752    1.108   .     S
C717   H734    1.110   .     S
C718   O770    1.223   .     D
C719   O758    1.398   .     S
C719   O477    1.223   1_565 S
C720   H738    1.110   .     S
C720   H739    1.111   .     S
C720   C446    1.522   1_565 S
C720   H457    1.111   1_565 S
C721   H741    1.111   .     S
C721   H742    1.110   .     S
C722   O760    1.382   .     S
C722   N1173   1.442   .     S
C722   O1179   1.220   .     S
C723   H746    1.084   .     S
C723   C784    1.397   1_455 S
C724   O762    1.383   .     S
C725   H747    1.085   .     S
C725   C785    1.397   .     S
C727   C446    1.368   1_565 S
C727   C441    1.522   1_565 S
C728   O768    1.308   .     A
C728   O766    1.305   .     A
C729   O769    1.308   .     A
C729   O767    1.304   .     A
C730   H733    1.086   .     S
Cu731  O766    1.954   .     S
Cu731  Cu732   2.731   .     S
Cu731  N754    2.052   .     S
Cu731  O755    1.964   .     S
Cu731  O769    1.960   .     S
Cu731  O765    1.965   .     S
Cu732  O768    1.960   .     S
Cu732  O764    1.965   .     S
Cu732  N753    2.052   .     S
Cu732  O767    1.954   .     S
Cu732  O763    1.964   .     S
H735   O756    1.014   .     S
H740   C441    1.111   1_565 S
H743   O760    1.013   .     S
H745   O762    1.015   .     S
N754   N1173   1.290   .     S
N754   C1144   1.443   .     S
O756   C438    1.399   1_565 S
O758   H456    1.011   1_565 S
O761   C1144   1.220   .     S
C771   O825    1.294   .     A
C771   C796    1.439   .     S
C771   O834    1.311   .     A
C772   C774    1.391   .     A
C772   C783    1.388   .     A
C772   H814    1.085   .     S
C773   C800    1.390   .     A
C773   C799    1.450   .     S
C773   C775    1.415   .     A
C774   C776    1.414   .     A
C774   C798    1.451   .     S
C775   C777    1.423   .     A
C775   C786    1.521   .     S
C776   C787    1.521   .     S
C776   C778    1.422   .     A
C777   C779    1.425   .     A
C777   C784    1.425   .     A
C778   C780    1.424   .     A
C778   C785    1.422   .     A
C779   C781    1.408   .     A
C779   C710    1.407   1_655 S
C780   C783    1.407   .     A
C781   C800    1.386   .     A
C781   C795    1.396   .     A
C782   O833    1.294   .     A
C782   C797    1.439   .     S
C782   O835    1.311   .     A
C783   C793    1.396   .     A
C784   C788    1.486   .     S
C784   C723    1.397   1_655 S
C785   C789    1.484   .     S
C786   H818    1.106   .     S
C786   H820    1.108   .     S
C786   H819    1.110   .     S
C787   H821    1.106   .     S
C787   H822    1.108   .     S
C787   H804    1.110   .     S
C788   O840    1.223   .     D
C789   O828    1.398   .     S
C789   O547    1.223   1_565 S
C790   H808    1.110   .     S
C790   H809    1.111   .     S
C790   C516    1.522   1_565 S
C790   H527    1.111   1_565 S
C791   H811    1.111   .     S
C791   H812    1.110   .     S
C792   O830    1.382   .     S
C792   N1243   1.442   .     S
C792   O1249   1.220   .     S
C793   H816    1.084   .     S
C794   O832    1.383   .     S
C795   H817    1.085   .     S
C795   C715    1.397   1_655 S
C797   C516    1.368   1_565 S
C797   C511    1.522   1_565 S
C798   O838    1.308   .     A
C798   O836    1.305   .     A
C799   O839    1.308   .     A
C799   O837    1.304   .     A
C800   H803    1.086   .     S
Cu801  O836    1.954   .     S
Cu801  Cu802   2.731   .     S
Cu801  N824    2.052   .     S
Cu801  O825    1.964   .     S
Cu801  O839    1.960   .     S
Cu801  O835    1.965   .     S
Cu802  O838    1.960   .     S
Cu802  O834    1.965   .     S
Cu802  N823    2.052   .     S
Cu802  O837    1.954   .     S
Cu802  O833    1.964   .     S
H805   O826    1.014   .     S
H810   C511    1.111   1_565 S
H813   O830    1.013   .     S
H815   O832    1.015   .     S
N824   N1243   1.290   .     S
N824   C1214   1.443   .     S
O826   C508    1.399   1_565 S
O828   H526    1.011   1_565 S
O831   C1214   1.220   .     S
C841   O895    1.294   .     A
C841   C866    1.439   .     S
C841   O904    1.311   .     A
C842   C844    1.391   .     A
C842   C853    1.388   .     A
C842   H884    1.085   .     S
C843   C870    1.390   .     A
C843   C869    1.450   .     S
C843   C845    1.415   .     A
C844   C846    1.414   .     A
C844   C868    1.451   .     S
C845   C847    1.423   .     A
C845   C856    1.521   .     S
C846   C857    1.521   .     S
C846   C848    1.422   .     A
C847   C849    1.425   .     A
C847   C854    1.425   .     A
C848   C850    1.424   .     A
C848   C855    1.422   .     A
C849   C851    1.408   .     A
C849   C920    1.407   .     S
C850   C853    1.407   .     A
C850   C919    1.407   1_455 S
C851   C870    1.386   .     A
C851   C865    1.396   .     A
C852   O903    1.294   .     A
C852   C867    1.439   .     S
C852   O905    1.311   .     A
C853   C863    1.396   .     A
C854   C858    1.486   .     S
C854   C933    1.397   .     S
C855   C859    1.484   .     S
C855   C935    1.397   1_455 S
C856   H888    1.106   .     S
C856   H890    1.108   .     S
C856   H889    1.110   .     S
C857   H891    1.106   .     S
C857   H892    1.108   .     S
C857   H874    1.110   .     S
C858   O910    1.223   .     D
C858   O1176   1.399   1_545 S
C859   O898    1.398   .     S
C859   O1037   1.223   .     S
C860   H878    1.110   .     S
C860   H879    1.111   .     S
C860   C1006   1.522   .     S
C860   H1017   1.111   .     S
C861   H881    1.111   .     S
C861   H882    1.110   .     S
C861   C1147   1.522   1_545 S
C861   H1160   1.111   1_545 S
C862   O900    1.382   .     S
C862   N53     1.442   1_556 S
C862   O59     1.220   1_556 S
C863   H886    1.084   .     S
C863   C924    1.397   1_455 S
C864   O902    1.383   .     S
C865   H887    1.085   .     S
C865   C925    1.397   .     S
C866   C1140   1.522   1_545 S
C866   C1147   1.368   1_545 S
C867   C1006   1.368   .     S
C867   C1001   1.522   .     S
C868   O908    1.308   .     A
C868   O906    1.305   .     A
C869   O909    1.308   .     A
C869   O907    1.304   .     A
C870   H873    1.086   .     S
Cu871  O906    1.954   .     S
Cu871  Cu872   2.731   .     S
Cu871  N894    2.052   .     S
Cu871  O895    1.964   .     S
Cu871  O909    1.960   .     S
Cu871  O905    1.965   .     S
Cu872  O908    1.960   .     S
Cu872  O904    1.965   .     S
Cu872  N893    2.052   .     S
Cu872  O907    1.954   .     S
Cu872  O903    1.964   .     S
H875   O896    1.014   .     S
H876   O1178   1.011   1_545 S
H877   C1140   1.111   1_545 S
H880   C1001   1.111   .     S
H883   O900    1.013   .     S
H885   O902    1.015   .     S
N894   N53     1.290   1_556 S
N894   C24     1.443   1_556 S
O896   C998    1.399   .     S
O897   C1139   1.223   1_545 S
O898   H1016   1.011   .     S
O901   C24     1.220   1_556 S
C911   O965    1.294   .     A
C911   C936    1.439   .     S
C911   O974    1.311   .     A
C912   C914    1.391   .     A
C912   C923    1.388   .     A
C912   H954    1.085   .     S
C913   C940    1.390   .     A
C913   C939    1.450   .     S
C913   C915    1.415   .     A
C914   C916    1.414   .     A
C914   C938    1.451   .     S
C915   C917    1.423   .     A
C915   C926    1.521   .     S
C916   C927    1.521   .     S
C916   C918    1.422   .     A
C917   C919    1.425   .     A
C917   C924    1.425   .     A
C918   C920    1.424   .     A
C918   C925    1.422   .     A
C919   C921    1.408   .     A
C919   C850    1.407   1_655 S
C920   C923    1.407   .     A
C921   C940    1.386   .     A
C921   C935    1.396   .     A
C922   O973    1.294   .     A
C922   C937    1.439   .     S
C922   O975    1.311   .     A
C923   C933    1.396   .     A
C924   C928    1.486   .     S
C924   C863    1.397   1_655 S
C925   C929    1.484   .     S
C926   H958    1.106   .     S
C926   H960    1.108   .     S
C926   H959    1.110   .     S
C927   H961    1.106   .     S
C927   H962    1.108   .     S
C927   H944    1.110   .     S
C928   O980    1.223   .     D
C928   O1246   1.399   1_545 S
C929   O968    1.398   .     S
C929   O1107   1.223   .     S
C930   H948    1.110   .     S
C930   H949    1.111   .     S
C930   C1076   1.522   .     S
C930   H1087   1.111   .     S
C931   H951    1.111   .     S
C931   H952    1.110   .     S
C931   C1217   1.522   1_545 S
C931   H1230   1.111   1_545 S
C932   O970    1.382   .     S
C932   N123    1.442   1_556 S
C932   O129    1.220   1_556 S
C933   H956    1.084   .     S
C934   O972    1.383   .     S
C935   H957    1.085   .     S
C935   C855    1.397   1_655 S
C936   C1210   1.522   1_545 S
C936   C1217   1.368   1_545 S
C937   C1076   1.368   .     S
C937   C1071   1.522   .     S
C938   O978    1.308   .     A
C938   O976    1.305   .     A
C939   O979    1.308   .     A
C939   O977    1.304   .     A
C940   H943    1.086   .     S
Cu941  O976    1.954   .     S
Cu941  Cu942   2.731   .     S
Cu941  N964    2.052   .     S
Cu941  O965    1.964   .     S
Cu941  O979    1.960   .     S
Cu941  O975    1.965   .     S
Cu942  O978    1.960   .     S
Cu942  O974    1.965   .     S
Cu942  N963    2.052   .     S
Cu942  O977    1.954   .     S
Cu942  O973    1.964   .     S
H945   O966    1.014   .     S
H946   O1248   1.011   1_545 S
H947   C1210   1.111   1_545 S
H950   C1071   1.111   .     S
H953   O970    1.013   .     S
H955   O972    1.015   .     S
N964   N123    1.290   1_556 S
N964   C94     1.443   1_556 S
O966   C1068   1.399   .     S
O967   C1209   1.223   1_545 S
O968   H1086   1.011   .     S
O971   C94     1.220   1_556 S
C981   O1035   1.294   .     A
C981   C1006   1.439   .     S
C981   O1044   1.311   .     A
C982   C984    1.391   .     A
C982   C993    1.388   .     A
C982   H1024   1.085   .     S
C983   C1010   1.390   .     A
C983   C1009   1.450   .     S
C983   C985    1.415   .     A
C984   C986    1.414   .     A
C984   C1008   1.451   .     S
C985   C987    1.423   .     A
C985   C996    1.521   .     S
C986   C997    1.521   .     S
C986   C988    1.422   .     A
C987   C989    1.425   .     A
C987   C994    1.425   .     A
C988   C990    1.424   .     A
C988   C995    1.422   .     A
C989   C991    1.408   .     A
C989   C1060   1.407   .     S
C990   C993    1.407   .     A
C990   C1059   1.407   1_455 S
C991   C1010   1.386   .     A
C991   C1005   1.396   .     A
C992   O1043   1.294   .     A
C992   C1007   1.439   .     S
C992   O1045   1.311   .     A
C993   C1003   1.396   .     A
C994   C998    1.486   .     S
C994   C1073   1.397   .     S
C995   C999    1.484   .     S
C995   C1075   1.397   1_455 S
C996   H1028   1.106   .     S
C996   H1030   1.108   .     S
C996   H1029   1.110   .     S
C997   H1031   1.106   .     S
C997   H1032   1.108   .     S
C997   H1014   1.110   .     S
C998   O1050   1.223   .     D
C999   O1038   1.398   .     S
C999   O1177   1.223   .     S
C1000  H1018   1.110   .     S
C1000  H1019   1.111   .     S
C1000  C1146   1.522   .     S
C1000  H1157   1.111   .     S
C1001  H1021   1.111   .     S
C1001  H1022   1.110   .     S
C1002  O1040   1.382   .     S
C1002  N193    1.442   1_556 S
C1002  O199    1.220   1_556 S
C1003  H1026   1.084   .     S
C1003  C1064   1.397   1_455 S
C1004  O1042   1.383   .     S
C1005  H1027   1.085   .     S
C1005  C1065   1.397   .     S
C1007  C1146   1.368   .     S
C1007  C1141   1.522   .     S
C1008  O1048   1.308   .     A
C1008  O1046   1.305   .     A
C1009  O1049   1.308   .     A
C1009  O1047   1.304   .     A
C1010  H1013   1.086   .     S
Cu1011 O1046   1.954   .     S
Cu1011 Cu1012  2.731   .     S
Cu1011 N1034   2.052   .     S
Cu1011 O1035   1.964   .     S
Cu1011 O1049   1.960   .     S
Cu1011 O1045   1.965   .     S
Cu1012 O1048   1.960   .     S
Cu1012 O1044   1.965   .     S
Cu1012 N1033   2.052   .     S
Cu1012 O1047   1.954   .     S
Cu1012 O1043   1.964   .     S
H1015  O1036   1.014   .     S
H1020  C1141   1.111   .     S
H1023  O1040   1.013   .     S
H1025  O1042   1.015   .     S
N1034  N193    1.290   1_556 S
N1034  C164    1.443   1_556 S
O1036  C1138   1.399   .     S
O1038  H1156   1.011   .     S
O1041  C164    1.220   1_556 S
C1051  O1105   1.294   .     A
C1051  C1076   1.439   .     S
C1051  O1114   1.311   .     A
C1052  C1054   1.391   .     A
C1052  C1063   1.388   .     A
C1052  H1094   1.085   .     S
C1053  C1080   1.390   .     A
C1053  C1079   1.450   .     S
C1053  C1055   1.415   .     A
C1054  C1056   1.414   .     A
C1054  C1078   1.451   .     S
C1055  C1057   1.423   .     A
C1055  C1066   1.521   .     S
C1056  C1067   1.521   .     S
C1056  C1058   1.422   .     A
C1057  C1059   1.425   .     A
C1057  C1064   1.425   .     A
C1058  C1060   1.424   .     A
C1058  C1065   1.422   .     A
C1059  C1061   1.408   .     A
C1059  C990    1.407   1_655 S
C1060  C1063   1.407   .     A
C1061  C1080   1.386   .     A
C1061  C1075   1.396   .     A
C1062  O1113   1.294   .     A
C1062  C1077   1.439   .     S
C1062  O1115   1.311   .     A
C1063  C1073   1.396   .     A
C1064  C1068   1.486   .     S
C1064  C1003   1.397   1_655 S
C1065  C1069   1.484   .     S
C1066  H1098   1.106   .     S
C1066  H1100   1.108   .     S
C1066  H1099   1.110   .     S
C1067  H1101   1.106   .     S
C1067  H1102   1.108   .     S
C1067  H1084   1.110   .     S
C1068  O1120   1.223   .     D
C1069  O1108   1.398   .     S
C1069  O1247   1.223   .     S
C1070  H1088   1.110   .     S
C1070  H1089   1.111   .     S
C1070  C1216   1.522   .     S
C1070  H1227   1.111   .     S
C1071  H1091   1.111   .     S
C1071  H1092   1.110   .     S
C1072  O1110   1.382   .     S
C1072  N263    1.442   1_556 S
C1072  O269    1.220   1_556 S
C1073  H1096   1.084   .     S
C1074  O1112   1.383   .     S
C1075  H1097   1.085   .     S
C1075  C995    1.397   1_655 S
C1077  C1216   1.368   .     S
C1077  C1211   1.522   .     S
C1078  O1118   1.308   .     A
C1078  O1116   1.305   .     A
C1079  O1119   1.308   .     A
C1079  O1117   1.304   .     A
C1080  H1083   1.086   .     S
Cu1081 O1116   1.954   .     S
Cu1081 Cu1082  2.731   .     S
Cu1081 N1104   2.052   .     S
Cu1081 O1105   1.964   .     S
Cu1081 O1119   1.960   .     S
Cu1081 O1115   1.965   .     S
Cu1082 O1118   1.960   .     S
Cu1082 O1114   1.965   .     S
Cu1082 N1103   2.052   .     S
Cu1082 O1117   1.954   .     S
Cu1082 O1113   1.964   .     S
H1085  O1106   1.014   .     S
H1090  C1211   1.111   .     S
H1093  O1110   1.013   .     S
H1095  O1112   1.015   .     S
N1104  N263    1.290   1_556 S
N1104  C234    1.443   1_556 S
O1106  C1208   1.399   .     S
O1108  H1226   1.011   .     S
O1111  C234    1.220   1_556 S
C1121  O1175   1.294   .     A
C1121  C1146   1.439   .     S
C1121  O1184   1.311   .     A
C1122  C1124   1.391   .     A
C1122  C1133   1.388   .     A
C1122  H1164   1.085   .     S
C1123  C1150   1.390   .     A
C1123  C1149   1.450   .     S
C1123  C1125   1.415   .     A
C1124  C1126   1.414   .     A
C1124  C1148   1.451   .     S
C1125  C1127   1.423   .     A
C1125  C1136   1.521   .     S
C1126  C1137   1.521   .     S
C1126  C1128   1.422   .     A
C1127  C1129   1.425   .     A
C1127  C1134   1.425   .     A
C1128  C1130   1.424   .     A
C1128  C1135   1.422   .     A
C1129  C1131   1.408   .     A
C1129  C1200   1.407   .     S
C1130  C1133   1.407   .     A
C1130  C1199   1.407   1_455 S
C1131  C1150   1.386   .     A
C1131  C1145   1.396   .     A
C1132  O1183   1.294   .     A
C1132  C1147   1.439   .     S
C1132  O1185   1.311   .     A
C1133  C1143   1.396   .     A
C1134  C1138   1.486   .     S
C1134  C1213   1.397   .     S
C1135  C1139   1.484   .     S
C1135  C1215   1.397   1_455 S
C1136  H1168   1.106   .     S
C1136  H1170   1.108   .     S
C1136  H1169   1.110   .     S
C1137  H1171   1.106   .     S
C1137  H1172   1.108   .     S
C1137  H1154   1.110   .     S
C1138  O1190   1.223   .     D
C1139  O1178   1.398   .     S
C1139  O897    1.223   1_565 S
C1140  H1158   1.110   .     S
C1140  H1159   1.111   .     S
C1140  C866    1.522   1_565 S
C1140  H877    1.111   1_565 S
C1141  H1161   1.111   .     S
C1141  H1162   1.110   .     S
C1142  O1180   1.382   .     S
C1142  N333    1.442   1_556 S
C1142  O339    1.220   1_556 S
C1143  H1166   1.084   .     S
C1143  C1204   1.397   1_455 S
C1144  O1182   1.383   .     S
C1145  H1167   1.085   .     S
C1145  C1205   1.397   .     S
C1147  C866    1.368   1_565 S
C1147  C861    1.522   1_565 S
C1148  O1188   1.308   .     A
C1148  O1186   1.305   .     A
C1149  O1189   1.308   .     A
C1149  O1187   1.304   .     A
C1150  H1153   1.086   .     S
Cu1151 O1186   1.954   .     S
Cu1151 Cu1152  2.731   .     S
Cu1151 N1174   2.052   .     S
Cu1151 O1175   1.964   .     S
Cu1151 O1189   1.960   .     S
Cu1151 O1185   1.965   .     S
Cu1152 O1188   1.960   .     S
Cu1152 O1184   1.965   .     S
Cu1152 N1173   2.052   .     S
Cu1152 O1187   1.954   .     S
Cu1152 O1183   1.964   .     S
H1155  O1176   1.014   .     S
H1160  C861    1.111   1_565 S
H1163  O1180   1.013   .     S
H1165  O1182   1.015   .     S
N1174  N333    1.290   1_556 S
N1174  C304    1.443   1_556 S
O1176  C858    1.399   1_565 S
O1178  H876    1.011   1_565 S
O1181  C304    1.220   1_556 S
C1191  O1245   1.294   .     A
C1191  C1216   1.439   .     S
C1191  O1254   1.311   .     A
C1192  C1194   1.391   .     A
C1192  C1203   1.388   .     A
C1192  H1234   1.085   .     S
C1193  C1220   1.390   .     A
C1193  C1219   1.450   .     S
C1193  C1195   1.415   .     A
C1194  C1196   1.414   .     A
C1194  C1218   1.451   .     S
C1195  C1197   1.423   .     A
C1195  C1206   1.521   .     S
C1196  C1207   1.521   .     S
C1196  C1198   1.422   .     A
C1197  C1199   1.425   .     A
C1197  C1204   1.425   .     A
C1198  C1200   1.424   .     A
C1198  C1205   1.422   .     A
C1199  C1201   1.408   .     A
C1199  C1130   1.407   1_655 S
C1200  C1203   1.407   .     A
C1201  C1220   1.386   .     A
C1201  C1215   1.396   .     A
C1202  O1253   1.294   .     A
C1202  C1217   1.439   .     S
C1202  O1255   1.311   .     A
C1203  C1213   1.396   .     A
C1204  C1208   1.486   .     S
C1204  C1143   1.397   1_655 S
C1205  C1209   1.484   .     S
C1206  H1238   1.106   .     S
C1206  H1240   1.108   .     S
C1206  H1239   1.110   .     S
C1207  H1241   1.106   .     S
C1207  H1242   1.108   .     S
C1207  H1224   1.110   .     S
C1208  O1260   1.223   .     D
C1209  O1248   1.398   .     S
C1209  O967    1.223   1_565 S
C1210  H1228   1.110   .     S
C1210  H1229   1.111   .     S
C1210  C936    1.522   1_565 S
C1210  H947    1.111   1_565 S
C1211  H1231   1.111   .     S
C1211  H1232   1.110   .     S
C1212  O1250   1.382   .     S
C1212  N403    1.442   1_556 S
C1212  O409    1.220   1_556 S
C1213  H1236   1.084   .     S
C1214  O1252   1.383   .     S
C1215  H1237   1.085   .     S
C1215  C1135   1.397   1_655 S
C1217  C936    1.368   1_565 S
C1217  C931    1.522   1_565 S
C1218  O1258   1.308   .     A
C1218  O1256   1.305   .     A
C1219  O1259   1.308   .     A
C1219  O1257   1.304   .     A
C1220  H1223   1.086   .     S
Cu1221 O1256   1.954   .     S
Cu1221 Cu1222  2.731   .     S
Cu1221 N1244   2.052   .     S
Cu1221 O1245   1.964   .     S
Cu1221 O1259   1.960   .     S
Cu1221 O1255   1.965   .     S
Cu1222 O1258   1.960   .     S
Cu1222 O1254   1.965   .     S
Cu1222 N1243   2.052   .     S
Cu1222 O1257   1.954   .     S
Cu1222 O1253   1.964   .     S
H1225  O1246   1.014   .     S
H1230  C931    1.111   1_565 S
H1233  O1250   1.013   .     S
H1235  O1252   1.015   .     S
N1244  N403    1.290   1_556 S
N1244  C374    1.443   1_556 S
O1246  C928    1.399   1_565 S
O1248  H946    1.011   1_565 S
O1251  C374    1.220   1_556 S
