data_str_m1_o5_o17_pcu_sym.53
_audit_creation_date              2020-01-03
_audit_creation_method            'Materials Studio'
_symmetry_space_group_name_H-M    'P1'
_symmetry_Int_Tables_number       1
_symmetry_cell_setting            triclinic
loop_
_symmetry_equiv_pos_as_xyz
  x,y,z
_cell_length_a                    31.7380
_cell_length_b                    31.7377
_cell_length_c                    34.5170
_cell_angle_alpha                 89.9999
_cell_angle_beta                  89.9999
_cell_angle_gamma                 89.9979
loop_
_atom_site_label
_atom_site_type_symbol
_atom_site_fract_x
_atom_site_fract_y
_atom_site_fract_z
_atom_site_U_iso_or_equiv
_atom_site_adp_type
_atom_site_occupancy
C1     C     0.25000  -0.00000   0.35590   0.00000  Uiso   1.00
C2     C     0.33001   0.41998   0.75000   0.00000  Uiso   1.00
C3     C     0.00050   0.17305   0.02032   0.00000  Uiso   1.00
C4     C     0.32694   0.49914   0.97967   0.00000  Uiso   1.00
C5     C     0.17307   0.49805   0.02036   0.00000  Uiso   1.00
C6     C     0.49769   0.17308   0.97963   0.00000  Uiso   1.00
C7     C     0.49947   0.32694   0.02033   0.00000  Uiso   1.00
C8     C     0.44360   0.30746   0.40095   0.00000  Uiso   1.00
C9     C     0.40334   0.28096   0.39980   0.00000  Uiso   1.00
C10    C     0.47780   0.17312   0.60099   0.00000  Uiso   1.00
C11    C     0.42994   0.17780   0.60382   0.00000  Uiso   1.00
C12    C     0.17312   0.47780   0.39901   0.00000  Uiso   1.00
C13    C     0.41998   0.16998   0.25000   0.00000  Uiso   1.00
C14    C     0.17780   0.42994   0.39618   0.00000  Uiso   1.00
C15    C     0.30746   0.44360   0.59904   0.00000  Uiso   1.00
C16    C     0.28096   0.40334   0.60020   0.00000  Uiso   1.00
C17    C     0.05639   0.19254   0.40095   0.00000  Uiso   1.00
C18    C     0.09666   0.21904   0.39980   0.00000  Uiso   1.00
C19    C     0.02220   0.32688   0.60099   0.00000  Uiso   1.00
C20    C     0.07006   0.32220   0.60382   0.00000  Uiso   1.00
C21    C     0.32688   0.02220   0.39901   0.00000  Uiso   1.00
C22    C     0.32220   0.07006   0.39618   0.00000  Uiso   1.00
C23    C     0.19254   0.05640   0.59905   0.00000  Uiso   1.00
C24    C     0.08002   0.33001   0.75000   0.00000  Uiso   1.00
C25    C     0.21904   0.09666   0.60020   0.00000  Uiso   1.00
C26    C     0.31604   0.45295   0.90248   0.00000  Uiso   1.00
C27    C     0.29322   0.41339   0.88821   0.00000  Uiso   1.00
C28    C     0.18458   0.45213   0.09761   0.00000  Uiso   1.00
C29    C     0.20791   0.41289   0.11195   0.00000  Uiso   1.00
C30    C     0.45186   0.18478   0.90235   0.00000  Uiso   1.00
C31    C     0.41272   0.20827   0.88800   0.00000  Uiso   1.00
C32    C     0.45321   0.31623   0.09749   0.00000  Uiso   1.00
C33    C     0.41356   0.29358   0.11175   0.00000  Uiso   1.00
C34    C     0.18396   0.04705   0.90248   0.00000  Uiso   1.00
C35    C     0.33002   0.41998   0.25000   0.00000  Uiso   1.00
C36    C     0.20678   0.08661   0.88821   0.00000  Uiso   1.00
C37    C     0.31542   0.04787   0.09761   0.00000  Uiso   1.00
C38    C     0.29209   0.08711   0.11195   0.00000  Uiso   1.00
C39    C     0.04811   0.31523   0.90236   0.00000  Uiso   1.00
C40    C     0.08726   0.29177   0.88801   0.00000  Uiso   1.00
C41    C     0.04676   0.18375   0.09748   0.00000  Uiso   1.00
C42    C     0.08643   0.20640   0.11174   0.00000  Uiso   1.00
C43    C     0.16999   0.08002   0.75000   0.00000  Uiso   1.00
C44    C     0.08002   0.33002   0.25000   0.00000  Uiso   1.00
C45    C     0.41998   0.16999   0.75000   0.00000  Uiso   1.00
C46    C     0.16998   0.41998   0.75000   0.00000  Uiso   1.00
C47    C     0.33001   0.08002   0.25000   0.00000  Uiso   1.00
C48    C     0.41998   0.33002   0.75000   0.00000  Uiso   1.00
C49    C     0.25000  -0.00000   0.64388   0.00000  Uiso   1.00
C50    C     0.08002   0.16999   0.24999   0.00000  Uiso   1.00
C51    C     0.33002   0.08002   0.75000   0.00000  Uiso   1.00
C52    C     0.16999   0.41998   0.25000   0.00000  Uiso   1.00
C53    C     0.08002   0.16998   0.75000   0.00000  Uiso   1.00
C54    C     0.41998   0.33001   0.24999   0.00000  Uiso   1.00
C55    C     0.13834   0.38834   0.25000   0.00000  Uiso   1.00
C56    C     0.36166   0.11167   0.75000   0.00000  Uiso   1.00
C57    C     0.11167   0.13834   0.24999   0.00000  Uiso   1.00
C58    C     0.38833   0.36166   0.75000   0.00000  Uiso   1.00
C59    C     0.36166   0.11166   0.25000   0.00000  Uiso   1.00
C60    C    -0.00000   0.25000   0.35612   0.00000  Uiso   1.00
C61    C     0.13834   0.38833   0.75000   0.00000  Uiso   1.00
C62    C     0.38833   0.36166   0.24999   0.00000  Uiso   1.00
C63    C     0.11167   0.13834   0.75000   0.00000  Uiso   1.00
C64    C     0.13834   0.11167   0.75001   0.00000  Uiso   1.00
C65    C     0.36166   0.38833   0.25000   0.00000  Uiso   1.00
C66    C     0.11166   0.36166   0.75000   0.00000  Uiso   1.00
C67    C     0.38833   0.13834   0.25000   0.00000  Uiso   1.00
C68    C     0.36166   0.38833   0.75001   0.00000  Uiso   1.00
C69    C     0.13834   0.11167   0.25000   0.00000  Uiso   1.00
C70    C     0.38834   0.13834   0.75000   0.00000  Uiso   1.00
C71    C     0.00000   0.25000   0.64410   0.00000  Uiso   1.00
C72    C     0.11167   0.36166   0.25000   0.00000  Uiso   1.00
C73    C     0.47958   0.28277   0.41951   0.00000  Uiso   1.00
C74    C     0.49743   0.21149   0.58141   0.00000  Uiso   1.00
C75    C     0.21149   0.49743   0.41859   0.00000  Uiso   1.00
C76    C     0.28277   0.47958   0.58048   0.00000  Uiso   1.00
C77    C     0.02042   0.21723   0.41951   0.00000  Uiso   1.00
C78    C     0.00257   0.28851   0.58141   0.00000  Uiso   1.00
C79    C     0.28851   0.00257   0.41859   0.00000  Uiso   1.00
C80    C     0.21723   0.02042   0.58049   0.00000  Uiso   1.00
C81    C     0.28570   0.48535   0.91971   0.00000  Uiso   1.00
C82    C    -0.00000   0.25000   0.85612   0.00000  Uiso   1.00
C83    C     0.21450   0.48487   0.08033   0.00000  Uiso   1.00
C84    C     0.48471   0.21456   0.91965   0.00000  Uiso   1.00
C85    C     0.48549   0.28576   0.08028   0.00000  Uiso   1.00
C86    C     0.21430   0.01465   0.91971   0.00000  Uiso   1.00
C87    C     0.28550   0.01513   0.08033   0.00000  Uiso   1.00
C88    C     0.01527   0.28544   0.91966   0.00000  Uiso   1.00
C89    C     0.01450   0.21423   0.08028   0.00000  Uiso   1.00
C90    C    -0.00000   0.25000   0.39885   0.00000  Uiso   1.00
C91    C     0.00000   0.25000   0.60172   0.00000  Uiso   1.00
C92    C     0.25000  -0.00000   0.39828   0.00000  Uiso   1.00
C93    C     0.00000   0.25000   0.14387   0.00000  Uiso   1.00
C94    C     0.25000  -0.00000   0.60115   0.00000  Uiso   1.00
C95    C     0.25000   0.00000   0.89883   0.00000  Uiso   1.00
C96    C     0.25000   0.00000   0.10119   0.00000  Uiso   1.00
C97    C     0.49999   0.25000   0.89880   0.00000  Uiso   1.00
C98    C    -0.00000   0.25000   0.10116   0.00000  Uiso   1.00
C99    C     0.01200   0.21334   0.45959   0.00000  Uiso   1.00
C100   C     0.49380   0.28818   0.54124   0.00000  Uiso   1.00
C101   C     0.28818   0.49380   0.45875   0.00000  Uiso   1.00
C102   C     0.21334   0.01200   0.54041   0.00000  Uiso   1.00
C103   C     0.48800   0.28666   0.45959   0.00000  Uiso   1.00
C104   C     0.25000  -0.00000   0.85613   0.00000  Uiso   1.00
C105   C     0.00620   0.21182   0.54124   0.00000  Uiso   1.00
C106   C     0.21182   0.00620   0.45876   0.00000  Uiso   1.00
C107   C     0.28666   0.48800   0.54041   0.00000  Uiso   1.00
C108   C     0.21174   0.00449   0.95945   0.00000  Uiso   1.00
C109   C     0.28820   0.00502   0.04058   0.00000  Uiso   1.00
C110   C     0.00518   0.28818   0.95940   0.00000  Uiso   1.00
C111   C     0.00430   0.21172   0.04054   0.00000  Uiso   1.00
C112   C     0.28826   0.49552   0.95945   0.00000  Uiso   1.00
C113   C     0.21180   0.49498   0.04058   0.00000  Uiso   1.00
C114   C     0.49480   0.21182   0.95940   0.00000  Uiso   1.00
C115   C     0.25000  -0.00000   0.14388   0.00000  Uiso   1.00
C116   C     0.49567   0.28828   0.04054   0.00000  Uiso   1.00
C117   C    -0.00000   0.25000   0.48004   0.00000  Uiso   1.00
C118   C     0.00000   0.25000   0.52081   0.00000  Uiso   1.00
C119   C     0.25000  -0.00000   0.47919   0.00000  Uiso   1.00
C120   C     0.25000  -0.00000   0.51996   0.00000  Uiso   1.00
C121   C     0.25000   0.00000   0.97978   0.00000  Uiso   1.00
C122   C     0.25000   0.00000   0.02026   0.00000  Uiso   1.00
C123   C     0.49999   0.25000   0.97973   0.00000  Uiso   1.00
C124   C     0.49999   0.25000   0.02021   0.00000  Uiso   1.00
C125   C     0.01741   0.17519   0.48010   0.00000  Uiso   1.00
C126   C     0.16998   0.08002   0.25000   0.00000  Uiso   1.00
C127   C     0.48130   0.32458   0.52064   0.00000  Uiso   1.00
C128   C     0.32458   0.48130   0.47936   0.00000  Uiso   1.00
C129   C     0.17519   0.01741   0.51990   0.00000  Uiso   1.00
C130   C     0.48258   0.32481   0.48010   0.00000  Uiso   1.00
C131   C     0.01869   0.17542   0.52064   0.00000  Uiso   1.00
C132   C     0.17542   0.01869   0.47936   0.00000  Uiso   1.00
C133   C     0.32481   0.48258   0.51990   0.00000  Uiso   1.00
C134   C     0.17306   0.00086   0.97967   0.00000  Uiso   1.00
C135   C     0.32693   0.00195   0.02036   0.00000  Uiso   1.00
C136   C     0.00227   0.32692   0.97963   0.00000  Uiso   1.00
H137   H     0.37854   0.29815   0.38352   0.00000  Uiso   1.00
H138   H     0.49164   0.16806   0.63018   0.00000  Uiso   1.00
H139   H     0.15017   0.41652   0.38076   0.00000  Uiso   1.00
H140   H     0.20668   0.42076   0.38031   0.00000  Uiso   1.00
H141   H     0.17917   0.41602   0.42570   0.00000  Uiso   1.00
H142   H     0.14383   0.48265   0.41551   0.00000  Uiso   1.00
H143   H     0.16806   0.49164   0.36982   0.00000  Uiso   1.00
H144   H     0.29815   0.37854   0.61648   0.00000  Uiso   1.00
H145   H     0.24997   0.40849   0.61420   0.00000  Uiso   1.00
H146   H     0.27532   0.39187   0.57023   0.00000  Uiso   1.00
H147   H     0.33578   0.43490   0.58242   0.00000  Uiso   1.00
H148   H     0.40849   0.24997   0.38580   0.00000  Uiso   1.00
H149   H     0.31860   0.45234   0.62845   0.00000  Uiso   1.00
H150   H     0.09151   0.25003   0.38580   0.00000  Uiso   1.00
H151   H     0.10813   0.22468   0.42977   0.00000  Uiso   1.00
H152   H     0.12146   0.20185   0.38352   0.00000  Uiso   1.00
H153   H     0.06509   0.16422   0.41758   0.00000  Uiso   1.00
H154   H     0.04766   0.18140   0.37155   0.00000  Uiso   1.00
H155   H     0.07923   0.29332   0.61969   0.00000  Uiso   1.00
H156   H     0.08398   0.32083   0.57430   0.00000  Uiso   1.00
H157   H     0.08348   0.34983   0.61924   0.00000  Uiso   1.00
H158   H     0.01735   0.35617   0.58449   0.00000  Uiso   1.00
H159   H     0.39187   0.27532   0.42977   0.00000  Uiso   1.00
H160   H     0.00836   0.33194   0.63018   0.00000  Uiso   1.00
H161   H     0.34983   0.08348   0.38076   0.00000  Uiso   1.00
H162   H     0.29332   0.07923   0.38031   0.00000  Uiso   1.00
H163   H     0.32083   0.08398   0.42570   0.00000  Uiso   1.00
H164   H     0.35617   0.01735   0.41551   0.00000  Uiso   1.00
H165   H     0.33194   0.00836   0.36982   0.00000  Uiso   1.00
H166   H     0.25003   0.09151   0.61420   0.00000  Uiso   1.00
H167   H     0.22468   0.10813   0.57023   0.00000  Uiso   1.00
H168   H     0.20185   0.12146   0.61648   0.00000  Uiso   1.00
H169   H     0.16422   0.06510   0.58242   0.00000  Uiso   1.00
H170   H     0.43490   0.33578   0.41758   0.00000  Uiso   1.00
H171   H     0.18140   0.04766   0.62845   0.00000  Uiso   1.00
H172   H     0.27342   0.42003   0.86248   0.00000  Uiso   1.00
H173   H     0.31678   0.38918   0.87983   0.00000  Uiso   1.00
H174   H     0.27309   0.40029   0.91163   0.00000  Uiso   1.00
H175   H     0.33538   0.46685   0.87899   0.00000  Uiso   1.00
H176   H     0.33829   0.44142   0.92486   0.00000  Uiso   1.00
H177   H     0.22756   0.41981   0.13770   0.00000  Uiso   1.00
H178   H     0.18466   0.38837   0.12031   0.00000  Uiso   1.00
H179   H     0.22825   0.40003   0.08857   0.00000  Uiso   1.00
H180   H     0.16509   0.46582   0.12110   0.00000  Uiso   1.00
H181   H     0.45234   0.31860   0.37155   0.00000  Uiso   1.00
H182   H     0.16248   0.44027   0.07526   0.00000  Uiso   1.00
H183   H     0.41973   0.22787   0.86223   0.00000  Uiso   1.00
H184   H     0.38810   0.18512   0.87964   0.00000  Uiso   1.00
H185   H     0.39994   0.22868   0.91136   0.00000  Uiso   1.00
H186   H     0.46548   0.16524   0.87887   0.00000  Uiso   1.00
H187   H     0.43990   0.16272   0.92470   0.00000  Uiso   1.00
H188   H     0.40037   0.27351   0.08833   0.00000  Uiso   1.00
H189   H     0.42010   0.27375   0.13748   0.00000  Uiso   1.00
H190   H     0.38944   0.31724   0.12014   0.00000  Uiso   1.00
H191   H     0.46717   0.33553   0.12098   0.00000  Uiso   1.00
H192   H     0.41652   0.15017   0.61924   0.00000  Uiso   1.00
H193   H     0.44178   0.33853   0.07510   0.00000  Uiso   1.00
H194   H     0.22691   0.09971   0.91163   0.00000  Uiso   1.00
H195   H     0.22658   0.07997   0.86248   0.00000  Uiso   1.00
H196   H     0.18322   0.11082   0.87983   0.00000  Uiso   1.00
H197   H     0.16462   0.03316   0.87899   0.00000  Uiso   1.00
H198   H     0.16171   0.05858   0.92486   0.00000  Uiso   1.00
H199   H     0.27175   0.09997   0.08857   0.00000  Uiso   1.00
H200   H     0.27244   0.08019   0.13770   0.00000  Uiso   1.00
H201   H     0.31534   0.11163   0.12031   0.00000  Uiso   1.00
H202   H     0.33491   0.03418   0.12110   0.00000  Uiso   1.00
H203   H     0.42076   0.20668   0.61969   0.00000  Uiso   1.00
H204   H     0.33752   0.05973   0.07526   0.00000  Uiso   1.00
H205   H     0.08026   0.27215   0.86226   0.00000  Uiso   1.00
H206   H     0.11186   0.31493   0.87964   0.00000  Uiso   1.00
H207   H     0.10006   0.27138   0.91138   0.00000  Uiso   1.00
H208   H     0.03448   0.33477   0.87887   0.00000  Uiso   1.00
H209   H     0.06006   0.33731   0.92471   0.00000  Uiso   1.00
H210   H     0.09965   0.22642   0.08829   0.00000  Uiso   1.00
H211   H     0.07990   0.22627   0.13743   0.00000  Uiso   1.00
H212   H     0.11053   0.18272   0.12015   0.00000  Uiso   1.00
H213   H     0.03280   0.16446   0.12098   0.00000  Uiso   1.00
H214   H     0.41602   0.17917   0.57430   0.00000  Uiso   1.00
H215   H     0.05818   0.16145   0.07510   0.00000  Uiso   1.00
H216   H     0.48265   0.14383   0.58449   0.00000  Uiso   1.00
I217   I     0.00576   0.11547   0.45302   0.00000  Uiso   1.00
I218   I     0.38457   0.48844   0.05059   0.00000  Uiso   1.00
I219   I     0.48898   0.38463   0.94941   0.00000  Uiso   1.00
I220   I     0.48594   0.11568   0.05059   0.00000  Uiso   1.00
I221   I     0.38438   0.01344   0.94941   0.00000  Uiso   1.00
I222   I     0.11543   0.01156   0.05059   0.00000  Uiso   1.00
I223   I     0.01095   0.11537   0.94941   0.00000  Uiso   1.00
I224   I     0.01401   0.38432   0.05059   0.00000  Uiso   1.00
I225   I     0.44353   0.37253   0.54733   0.00000  Uiso   1.00
I226   I     0.37253   0.44353   0.45266   0.00000  Uiso   1.00
I227   I     0.11547   0.00576   0.54698   0.00000  Uiso   1.00
I228   I     0.49424   0.38453   0.45302   0.00000  Uiso   1.00
I229   I     0.05647   0.12747   0.54734   0.00000  Uiso   1.00
I230   I     0.12747   0.05647   0.45266   0.00000  Uiso   1.00
I231   I     0.38453   0.49424   0.54698   0.00000  Uiso   1.00
I232   I     0.11562   0.48656   0.94941   0.00000  Uiso   1.00
O233   O     0.25000  -0.00000   0.25000   0.00000  Uiso   1.00
O234   O     0.25000   0.46538   0.66251   0.00000  Uiso   1.00
O235   O     0.46538   0.25000   0.33749   0.00000  Uiso   1.00
O236   O     0.03461   0.25000   0.66251   0.00000  Uiso   1.00
O237   O     0.00000   0.21539   0.83749   0.00000  Uiso   1.00
O238   O     0.00000   0.28462   0.16251   0.00000  Uiso   1.00
O239   O     0.28461  -0.00000   0.83749   0.00000  Uiso   1.00
O240   O     0.21538  -0.00000   0.16251   0.00000  Uiso   1.00
O241   O     0.00000   0.28462   0.83749   0.00000  Uiso   1.00
O242   O    -0.00000   0.21538   0.16251   0.00000  Uiso   1.00
O243   O     0.21538  -0.00000   0.83749   0.00000  Uiso   1.00
O244   O     0.25000  -0.00000   0.75000   0.00000  Uiso   1.00
O245   O     0.28461  -0.00000   0.16251   0.00000  Uiso   1.00
O246   O     0.20126   0.08332   0.27298   0.00000  Uiso   1.00
O247   O     0.29873   0.41668   0.72702   0.00000  Uiso   1.00
O248   O     0.41668   0.20126   0.27298   0.00000  Uiso   1.00
O249   O     0.08332   0.29874   0.72702   0.00000  Uiso   1.00
O250   O     0.29873   0.41668   0.27298   0.00000  Uiso   1.00
O251   O     0.20126   0.08332   0.72702   0.00000  Uiso   1.00
O252   O     0.08332   0.29874   0.27298   0.00000  Uiso   1.00
O253   O     0.41668   0.20126   0.72702   0.00000  Uiso   1.00
O254   O     0.20126   0.41668   0.72702   0.00000  Uiso   1.00
O255   O     0.00000   0.25000   0.25000   0.00000  Uiso   1.00
O256   O     0.29873   0.08332   0.27298   0.00000  Uiso   1.00
O257   O     0.41668   0.29873   0.72702   0.00000  Uiso   1.00
O258   O     0.08332   0.20126   0.27298   0.00000  Uiso   1.00
O259   O     0.29873   0.08332   0.72702   0.00000  Uiso   1.00
O260   O     0.20126   0.41668   0.27298   0.00000  Uiso   1.00
O261   O     0.08332   0.20126   0.72702   0.00000  Uiso   1.00
O262   O     0.41668   0.29873   0.27298   0.00000  Uiso   1.00
O263   O     0.45126   0.33332   0.77298   0.00000  Uiso   1.00
O264   O     0.04873   0.16668   0.22702   0.00000  Uiso   1.00
O265   O     0.16668   0.45126   0.77298   0.00000  Uiso   1.00
O266   O     0.00000   0.25000   0.75000   0.00000  Uiso   1.00
O267   O     0.33332   0.04873   0.22702   0.00000  Uiso   1.00
O268   O     0.04873   0.16668   0.77298   0.00000  Uiso   1.00
O269   O     0.45126   0.33332   0.22702   0.00000  Uiso   1.00
O270   O     0.33332   0.04873   0.77298   0.00000  Uiso   1.00
O271   O     0.16668   0.45126   0.22702   0.00000  Uiso   1.00
O272   O     0.45126   0.16668   0.22702   0.00000  Uiso   1.00
O273   O     0.04873   0.33332   0.77298   0.00000  Uiso   1.00
O274   O     0.16668   0.04873   0.22702   0.00000  Uiso   1.00
O275   O     0.33332   0.45126   0.77298   0.00000  Uiso   1.00
O276   O     0.04873   0.33332   0.22702   0.00000  Uiso   1.00
O277   O     0.25000   0.46538   0.33749   0.00000  Uiso   1.00
O278   O     0.45126   0.16668   0.77298   0.00000  Uiso   1.00
O279   O     0.33332   0.45126   0.22702   0.00000  Uiso   1.00
O280   O     0.16668   0.04873   0.77298   0.00000  Uiso   1.00
O281   O     0.25000   0.03461   0.66251   0.00000  Uiso   1.00
O282   O     0.03461   0.25000   0.33749   0.00000  Uiso   1.00
O283   O     0.46538   0.25000   0.66251   0.00000  Uiso   1.00
O284   O     0.25000   0.03461   0.33749   0.00000  Uiso   1.00
Zn285  Zn    0.20052  -0.00000   0.21730   0.00000  Uiso   1.00
Zn286  Zn    0.04947   0.25000   0.28270   0.00000  Uiso   1.00
Zn287  Zn    0.25000   0.45052   0.71730   0.00000  Uiso   1.00
Zn288  Zn    0.25000   0.04947   0.28270   0.00000  Uiso   1.00
Zn289  Zn    0.04947   0.25000   0.71730   0.00000  Uiso   1.00
Zn290  Zn    0.45052   0.25000   0.28270   0.00000  Uiso   1.00
Zn291  Zn    0.25000   0.04947   0.71730   0.00000  Uiso   1.00
Zn292  Zn    0.25000   0.45052   0.28270   0.00000  Uiso   1.00
Zn293  Zn    0.29947  -0.00000   0.78270   0.00000  Uiso   1.00
Zn294  Zn    0.00000   0.20053   0.21730   0.00000  Uiso   1.00
Zn295  Zn    0.00000   0.29948   0.78270   0.00000  Uiso   1.00
Zn296  Zn    0.29947  -0.00000   0.21730   0.00000  Uiso   1.00
Zn297  Zn    0.20052  -0.00000   0.78270   0.00000  Uiso   1.00
Zn298  Zn   -0.00000   0.29947   0.21730   0.00000  Uiso   1.00
Zn299  Zn    0.00000   0.20053   0.78270   0.00000  Uiso   1.00
Zn300  Zn    0.45052   0.25000   0.71730   0.00000  Uiso   1.00
C301   C     0.75000  -0.00000   0.35590   0.00000  Uiso   1.00
C302   C     0.83001   0.41998   0.75000   0.00000  Uiso   1.00
C303   C     0.50050   0.17305   0.02032   0.00000  Uiso   1.00
C304   C     0.82694   0.49914   0.97967   0.00000  Uiso   1.00
C305   C     0.67307   0.49805   0.02036   0.00000  Uiso   1.00
C306   C     0.99769   0.17308   0.97963   0.00000  Uiso   1.00
C307   C     0.99947   0.32694   0.02033   0.00000  Uiso   1.00
C308   C     0.94360   0.30746   0.40095   0.00000  Uiso   1.00
C309   C     0.90334   0.28096   0.39980   0.00000  Uiso   1.00
C310   C     0.97780   0.17312   0.60099   0.00000  Uiso   1.00
C311   C     0.92994   0.17780   0.60382   0.00000  Uiso   1.00
C312   C     0.67312   0.47780   0.39901   0.00000  Uiso   1.00
C313   C     0.91998   0.16998   0.25000   0.00000  Uiso   1.00
C314   C     0.67780   0.42994   0.39618   0.00000  Uiso   1.00
C315   C     0.80746   0.44360   0.59904   0.00000  Uiso   1.00
C316   C     0.78096   0.40334   0.60020   0.00000  Uiso   1.00
C317   C     0.55639   0.19254   0.40095   0.00000  Uiso   1.00
C318   C     0.59666   0.21904   0.39980   0.00000  Uiso   1.00
C319   C     0.52220   0.32688   0.60099   0.00000  Uiso   1.00
C320   C     0.57006   0.32220   0.60382   0.00000  Uiso   1.00
C321   C     0.82688   0.02220   0.39901   0.00000  Uiso   1.00
C322   C     0.82220   0.07006   0.39618   0.00000  Uiso   1.00
C323   C     0.69254   0.05640   0.59905   0.00000  Uiso   1.00
C324   C     0.58002   0.33001   0.75000   0.00000  Uiso   1.00
C325   C     0.71904   0.09666   0.60020   0.00000  Uiso   1.00
C326   C     0.81604   0.45295   0.90248   0.00000  Uiso   1.00
C327   C     0.79322   0.41339   0.88821   0.00000  Uiso   1.00
C328   C     0.68458   0.45213   0.09761   0.00000  Uiso   1.00
C329   C     0.70791   0.41289   0.11195   0.00000  Uiso   1.00
C330   C     0.95186   0.18478   0.90235   0.00000  Uiso   1.00
C331   C     0.91272   0.20827   0.88800   0.00000  Uiso   1.00
C332   C     0.95321   0.31623   0.09749   0.00000  Uiso   1.00
C333   C     0.91356   0.29358   0.11175   0.00000  Uiso   1.00
C334   C     0.68396   0.04705   0.90248   0.00000  Uiso   1.00
C335   C     0.83002   0.41998   0.25000   0.00000  Uiso   1.00
C336   C     0.70678   0.08661   0.88821   0.00000  Uiso   1.00
C337   C     0.81542   0.04787   0.09761   0.00000  Uiso   1.00
C338   C     0.79209   0.08711   0.11195   0.00000  Uiso   1.00
C339   C     0.54811   0.31523   0.90236   0.00000  Uiso   1.00
C340   C     0.58726   0.29177   0.88801   0.00000  Uiso   1.00
C341   C     0.54676   0.18375   0.09748   0.00000  Uiso   1.00
C342   C     0.58643   0.20640   0.11174   0.00000  Uiso   1.00
C343   C     0.66999   0.08002   0.75000   0.00000  Uiso   1.00
C344   C     0.58002   0.33002   0.25000   0.00000  Uiso   1.00
C345   C     0.91998   0.16999   0.75000   0.00000  Uiso   1.00
C346   C     0.66998   0.41998   0.75000   0.00000  Uiso   1.00
C347   C     0.83001   0.08002   0.25000   0.00000  Uiso   1.00
C348   C     0.91998   0.33002   0.75000   0.00000  Uiso   1.00
C349   C     0.75000  -0.00000   0.64388   0.00000  Uiso   1.00
C350   C     0.58002   0.16999   0.24999   0.00000  Uiso   1.00
C351   C     0.83002   0.08002   0.75000   0.00000  Uiso   1.00
C352   C     0.66999   0.41998   0.25000   0.00000  Uiso   1.00
C353   C     0.58002   0.16998   0.75000   0.00000  Uiso   1.00
C354   C     0.91998   0.33001   0.24999   0.00000  Uiso   1.00
C355   C     0.63834   0.38834   0.25000   0.00000  Uiso   1.00
C356   C     0.86166   0.11167   0.75000   0.00000  Uiso   1.00
C357   C     0.61167   0.13834   0.24999   0.00000  Uiso   1.00
C358   C     0.88833   0.36166   0.75000   0.00000  Uiso   1.00
C359   C     0.86166   0.11166   0.25000   0.00000  Uiso   1.00
C360   C     0.50000   0.25000   0.35612   0.00000  Uiso   1.00
C361   C     0.63834   0.38833   0.75000   0.00000  Uiso   1.00
C362   C     0.88833   0.36166   0.24999   0.00000  Uiso   1.00
C363   C     0.61167   0.13834   0.75000   0.00000  Uiso   1.00
C364   C     0.63834   0.11167   0.75001   0.00000  Uiso   1.00
C365   C     0.86166   0.38833   0.25000   0.00000  Uiso   1.00
C366   C     0.61166   0.36166   0.75000   0.00000  Uiso   1.00
C367   C     0.88833   0.13834   0.25000   0.00000  Uiso   1.00
C368   C     0.86166   0.38833   0.75001   0.00000  Uiso   1.00
C369   C     0.63834   0.11167   0.25000   0.00000  Uiso   1.00
C370   C     0.88834   0.13834   0.75000   0.00000  Uiso   1.00
C371   C     0.50000   0.25000   0.64410   0.00000  Uiso   1.00
C372   C     0.61167   0.36166   0.25000   0.00000  Uiso   1.00
C373   C     0.97958   0.28277   0.41951   0.00000  Uiso   1.00
C374   C     0.99743   0.21149   0.58141   0.00000  Uiso   1.00
C375   C     0.71149   0.49743   0.41859   0.00000  Uiso   1.00
C376   C     0.78277   0.47958   0.58048   0.00000  Uiso   1.00
C377   C     0.52042   0.21723   0.41951   0.00000  Uiso   1.00
C378   C     0.50257   0.28851   0.58141   0.00000  Uiso   1.00
C379   C     0.78851   0.00257   0.41859   0.00000  Uiso   1.00
C380   C     0.71723   0.02042   0.58049   0.00000  Uiso   1.00
C381   C     0.78570   0.48535   0.91971   0.00000  Uiso   1.00
C382   C     0.50000   0.25000   0.85612   0.00000  Uiso   1.00
C383   C     0.71450   0.48487   0.08033   0.00000  Uiso   1.00
C384   C     0.98471   0.21456   0.91965   0.00000  Uiso   1.00
C385   C     0.98549   0.28576   0.08028   0.00000  Uiso   1.00
C386   C     0.71430   0.01465   0.91971   0.00000  Uiso   1.00
C387   C     0.78550   0.01513   0.08033   0.00000  Uiso   1.00
C388   C     0.51527   0.28544   0.91966   0.00000  Uiso   1.00
C389   C     0.51450   0.21423   0.08028   0.00000  Uiso   1.00
C390   C     0.50000   0.25000   0.39885   0.00000  Uiso   1.00
C391   C     0.50000   0.25000   0.60172   0.00000  Uiso   1.00
C392   C     0.75000  -0.00000   0.39828   0.00000  Uiso   1.00
C393   C     0.50000   0.25000   0.14387   0.00000  Uiso   1.00
C394   C     0.75000  -0.00000   0.60115   0.00000  Uiso   1.00
C395   C     0.75000   0.00000   0.89883   0.00000  Uiso   1.00
C396   C     0.75000   0.00000   0.10119   0.00000  Uiso   1.00
C397   C     0.99999   0.25000   0.89880   0.00000  Uiso   1.00
C398   C     0.50000   0.25000   0.10116   0.00000  Uiso   1.00
C399   C     0.51200   0.21334   0.45959   0.00000  Uiso   1.00
C400   C     0.99380   0.28818   0.54124   0.00000  Uiso   1.00
C401   C     0.78818   0.49380   0.45875   0.00000  Uiso   1.00
C402   C     0.71334   0.01200   0.54041   0.00000  Uiso   1.00
C403   C     0.98800   0.28666   0.45959   0.00000  Uiso   1.00
C404   C     0.75000  -0.00000   0.85613   0.00000  Uiso   1.00
C405   C     0.50620   0.21182   0.54124   0.00000  Uiso   1.00
C406   C     0.71182   0.00620   0.45876   0.00000  Uiso   1.00
C407   C     0.78666   0.48800   0.54041   0.00000  Uiso   1.00
C408   C     0.71174   0.00449   0.95945   0.00000  Uiso   1.00
C409   C     0.78820   0.00502   0.04058   0.00000  Uiso   1.00
C410   C     0.50518   0.28818   0.95940   0.00000  Uiso   1.00
C411   C     0.50430   0.21172   0.04054   0.00000  Uiso   1.00
C412   C     0.78826   0.49552   0.95945   0.00000  Uiso   1.00
C413   C     0.71180   0.49498   0.04058   0.00000  Uiso   1.00
C414   C     0.99480   0.21182   0.95940   0.00000  Uiso   1.00
C415   C     0.75000  -0.00000   0.14388   0.00000  Uiso   1.00
C416   C     0.99567   0.28828   0.04054   0.00000  Uiso   1.00
C417   C     0.50000   0.25000   0.48004   0.00000  Uiso   1.00
C418   C     0.50000   0.25000   0.52081   0.00000  Uiso   1.00
C419   C     0.75000  -0.00000   0.47919   0.00000  Uiso   1.00
C420   C     0.75000  -0.00000   0.51996   0.00000  Uiso   1.00
C421   C     0.75000   0.00000   0.97978   0.00000  Uiso   1.00
C422   C     0.75000   0.00000   0.02026   0.00000  Uiso   1.00
C423   C     0.99999   0.25000   0.97973   0.00000  Uiso   1.00
C424   C     0.99999   0.25000   0.02021   0.00000  Uiso   1.00
C425   C     0.51741   0.17519   0.48010   0.00000  Uiso   1.00
C426   C     0.66998   0.08002   0.25000   0.00000  Uiso   1.00
C427   C     0.98130   0.32458   0.52064   0.00000  Uiso   1.00
C428   C     0.82458   0.48130   0.47936   0.00000  Uiso   1.00
C429   C     0.67519   0.01741   0.51990   0.00000  Uiso   1.00
C430   C     0.98258   0.32481   0.48010   0.00000  Uiso   1.00
C431   C     0.51869   0.17542   0.52064   0.00000  Uiso   1.00
C432   C     0.67542   0.01869   0.47936   0.00000  Uiso   1.00
C433   C     0.82481   0.48258   0.51990   0.00000  Uiso   1.00
C434   C     0.67306   0.00086   0.97967   0.00000  Uiso   1.00
C435   C     0.82693   0.00195   0.02036   0.00000  Uiso   1.00
C436   C     0.50227   0.32692   0.97963   0.00000  Uiso   1.00
H437   H     0.87854   0.29815   0.38352   0.00000  Uiso   1.00
H438   H     0.99164   0.16806   0.63018   0.00000  Uiso   1.00
H439   H     0.65017   0.41652   0.38076   0.00000  Uiso   1.00
H440   H     0.70668   0.42076   0.38031   0.00000  Uiso   1.00
H441   H     0.67917   0.41602   0.42570   0.00000  Uiso   1.00
H442   H     0.64383   0.48265   0.41551   0.00000  Uiso   1.00
H443   H     0.66806   0.49164   0.36982   0.00000  Uiso   1.00
H444   H     0.79815   0.37854   0.61648   0.00000  Uiso   1.00
H445   H     0.74997   0.40849   0.61420   0.00000  Uiso   1.00
H446   H     0.77532   0.39187   0.57023   0.00000  Uiso   1.00
H447   H     0.83578   0.43490   0.58242   0.00000  Uiso   1.00
H448   H     0.90849   0.24997   0.38580   0.00000  Uiso   1.00
H449   H     0.81860   0.45234   0.62845   0.00000  Uiso   1.00
H450   H     0.59151   0.25003   0.38580   0.00000  Uiso   1.00
H451   H     0.60813   0.22468   0.42977   0.00000  Uiso   1.00
H452   H     0.62146   0.20185   0.38352   0.00000  Uiso   1.00
H453   H     0.56509   0.16422   0.41758   0.00000  Uiso   1.00
H454   H     0.54766   0.18140   0.37155   0.00000  Uiso   1.00
H455   H     0.57923   0.29332   0.61969   0.00000  Uiso   1.00
H456   H     0.58398   0.32083   0.57430   0.00000  Uiso   1.00
H457   H     0.58348   0.34983   0.61924   0.00000  Uiso   1.00
H458   H     0.51735   0.35617   0.58449   0.00000  Uiso   1.00
H459   H     0.89187   0.27532   0.42977   0.00000  Uiso   1.00
H460   H     0.50836   0.33194   0.63018   0.00000  Uiso   1.00
H461   H     0.84983   0.08348   0.38076   0.00000  Uiso   1.00
H462   H     0.79332   0.07923   0.38031   0.00000  Uiso   1.00
H463   H     0.82083   0.08398   0.42570   0.00000  Uiso   1.00
H464   H     0.85617   0.01735   0.41551   0.00000  Uiso   1.00
H465   H     0.83194   0.00836   0.36982   0.00000  Uiso   1.00
H466   H     0.75003   0.09151   0.61420   0.00000  Uiso   1.00
H467   H     0.72468   0.10813   0.57023   0.00000  Uiso   1.00
H468   H     0.70185   0.12146   0.61648   0.00000  Uiso   1.00
H469   H     0.66422   0.06510   0.58242   0.00000  Uiso   1.00
H470   H     0.93490   0.33578   0.41758   0.00000  Uiso   1.00
H471   H     0.68140   0.04766   0.62845   0.00000  Uiso   1.00
H472   H     0.77342   0.42003   0.86248   0.00000  Uiso   1.00
H473   H     0.81678   0.38918   0.87983   0.00000  Uiso   1.00
H474   H     0.77309   0.40029   0.91163   0.00000  Uiso   1.00
H475   H     0.83538   0.46685   0.87899   0.00000  Uiso   1.00
H476   H     0.83829   0.44142   0.92486   0.00000  Uiso   1.00
H477   H     0.72756   0.41981   0.13770   0.00000  Uiso   1.00
H478   H     0.68466   0.38837   0.12031   0.00000  Uiso   1.00
H479   H     0.72825   0.40003   0.08857   0.00000  Uiso   1.00
H480   H     0.66509   0.46582   0.12110   0.00000  Uiso   1.00
H481   H     0.95234   0.31860   0.37155   0.00000  Uiso   1.00
H482   H     0.66248   0.44027   0.07526   0.00000  Uiso   1.00
H483   H     0.91973   0.22787   0.86223   0.00000  Uiso   1.00
H484   H     0.88810   0.18512   0.87964   0.00000  Uiso   1.00
H485   H     0.89994   0.22868   0.91136   0.00000  Uiso   1.00
H486   H     0.96548   0.16524   0.87887   0.00000  Uiso   1.00
H487   H     0.93990   0.16272   0.92470   0.00000  Uiso   1.00
H488   H     0.90037   0.27351   0.08833   0.00000  Uiso   1.00
H489   H     0.92010   0.27375   0.13748   0.00000  Uiso   1.00
H490   H     0.88944   0.31724   0.12014   0.00000  Uiso   1.00
H491   H     0.96717   0.33553   0.12098   0.00000  Uiso   1.00
H492   H     0.91652   0.15017   0.61924   0.00000  Uiso   1.00
H493   H     0.94178   0.33853   0.07510   0.00000  Uiso   1.00
H494   H     0.72691   0.09971   0.91163   0.00000  Uiso   1.00
H495   H     0.72658   0.07997   0.86248   0.00000  Uiso   1.00
H496   H     0.68322   0.11082   0.87983   0.00000  Uiso   1.00
H497   H     0.66462   0.03316   0.87899   0.00000  Uiso   1.00
H498   H     0.66171   0.05858   0.92486   0.00000  Uiso   1.00
H499   H     0.77175   0.09997   0.08857   0.00000  Uiso   1.00
H500   H     0.77244   0.08019   0.13770   0.00000  Uiso   1.00
H501   H     0.81534   0.11163   0.12031   0.00000  Uiso   1.00
H502   H     0.83491   0.03418   0.12110   0.00000  Uiso   1.00
H503   H     0.92076   0.20668   0.61969   0.00000  Uiso   1.00
H504   H     0.83752   0.05973   0.07526   0.00000  Uiso   1.00
H505   H     0.58026   0.27215   0.86226   0.00000  Uiso   1.00
H506   H     0.61186   0.31493   0.87964   0.00000  Uiso   1.00
H507   H     0.60006   0.27138   0.91138   0.00000  Uiso   1.00
H508   H     0.53448   0.33477   0.87887   0.00000  Uiso   1.00
H509   H     0.56006   0.33731   0.92471   0.00000  Uiso   1.00
H510   H     0.59965   0.22642   0.08829   0.00000  Uiso   1.00
H511   H     0.57990   0.22627   0.13743   0.00000  Uiso   1.00
H512   H     0.61053   0.18272   0.12015   0.00000  Uiso   1.00
H513   H     0.53280   0.16446   0.12098   0.00000  Uiso   1.00
H514   H     0.91602   0.17917   0.57430   0.00000  Uiso   1.00
H515   H     0.55818   0.16145   0.07510   0.00000  Uiso   1.00
H516   H     0.98265   0.14383   0.58449   0.00000  Uiso   1.00
I517   I     0.50576   0.11547   0.45302   0.00000  Uiso   1.00
I518   I     0.88457   0.48844   0.05059   0.00000  Uiso   1.00
I519   I     0.98898   0.38463   0.94941   0.00000  Uiso   1.00
I520   I     0.98594   0.11568   0.05059   0.00000  Uiso   1.00
I521   I     0.88438   0.01344   0.94941   0.00000  Uiso   1.00
I522   I     0.61543   0.01156   0.05059   0.00000  Uiso   1.00
I523   I     0.51095   0.11537   0.94941   0.00000  Uiso   1.00
I524   I     0.51401   0.38432   0.05059   0.00000  Uiso   1.00
I525   I     0.94353   0.37253   0.54733   0.00000  Uiso   1.00
I526   I     0.87253   0.44353   0.45266   0.00000  Uiso   1.00
I527   I     0.61547   0.00576   0.54698   0.00000  Uiso   1.00
I528   I     0.99424   0.38453   0.45302   0.00000  Uiso   1.00
I529   I     0.55647   0.12747   0.54734   0.00000  Uiso   1.00
I530   I     0.62747   0.05647   0.45266   0.00000  Uiso   1.00
I531   I     0.88453   0.49424   0.54698   0.00000  Uiso   1.00
I532   I     0.61562   0.48656   0.94941   0.00000  Uiso   1.00
O533   O     0.75000  -0.00000   0.25000   0.00000  Uiso   1.00
O534   O     0.75000   0.46538   0.66251   0.00000  Uiso   1.00
O535   O     0.96538   0.25000   0.33749   0.00000  Uiso   1.00
O536   O     0.53461   0.25000   0.66251   0.00000  Uiso   1.00
O537   O     0.50000   0.21539   0.83749   0.00000  Uiso   1.00
O538   O     0.50000   0.28462   0.16251   0.00000  Uiso   1.00
O539   O     0.78461  -0.00000   0.83749   0.00000  Uiso   1.00
O540   O     0.71538  -0.00000   0.16251   0.00000  Uiso   1.00
O541   O     0.50000   0.28462   0.83749   0.00000  Uiso   1.00
O542   O     0.50000   0.21538   0.16251   0.00000  Uiso   1.00
O543   O     0.71538  -0.00000   0.83749   0.00000  Uiso   1.00
O544   O     0.75000  -0.00000   0.75000   0.00000  Uiso   1.00
O545   O     0.78461  -0.00000   0.16251   0.00000  Uiso   1.00
O546   O     0.70126   0.08332   0.27298   0.00000  Uiso   1.00
O547   O     0.79873   0.41668   0.72702   0.00000  Uiso   1.00
O548   O     0.91668   0.20126   0.27298   0.00000  Uiso   1.00
O549   O     0.58332   0.29874   0.72702   0.00000  Uiso   1.00
O550   O     0.79873   0.41668   0.27298   0.00000  Uiso   1.00
O551   O     0.70126   0.08332   0.72702   0.00000  Uiso   1.00
O552   O     0.58332   0.29874   0.27298   0.00000  Uiso   1.00
O553   O     0.91668   0.20126   0.72702   0.00000  Uiso   1.00
O554   O     0.70126   0.41668   0.72702   0.00000  Uiso   1.00
O555   O     0.50000   0.25000   0.25000   0.00000  Uiso   1.00
O556   O     0.79873   0.08332   0.27298   0.00000  Uiso   1.00
O557   O     0.91668   0.29873   0.72702   0.00000  Uiso   1.00
O558   O     0.58332   0.20126   0.27298   0.00000  Uiso   1.00
O559   O     0.79873   0.08332   0.72702   0.00000  Uiso   1.00
O560   O     0.70126   0.41668   0.27298   0.00000  Uiso   1.00
O561   O     0.58332   0.20126   0.72702   0.00000  Uiso   1.00
O562   O     0.91668   0.29873   0.27298   0.00000  Uiso   1.00
O563   O     0.95126   0.33332   0.77298   0.00000  Uiso   1.00
O564   O     0.54873   0.16668   0.22702   0.00000  Uiso   1.00
O565   O     0.66668   0.45126   0.77298   0.00000  Uiso   1.00
O566   O     0.50000   0.25000   0.75000   0.00000  Uiso   1.00
O567   O     0.83332   0.04873   0.22702   0.00000  Uiso   1.00
O568   O     0.54873   0.16668   0.77298   0.00000  Uiso   1.00
O569   O     0.95126   0.33332   0.22702   0.00000  Uiso   1.00
O570   O     0.83332   0.04873   0.77298   0.00000  Uiso   1.00
O571   O     0.66668   0.45126   0.22702   0.00000  Uiso   1.00
O572   O     0.95126   0.16668   0.22702   0.00000  Uiso   1.00
O573   O     0.54873   0.33332   0.77298   0.00000  Uiso   1.00
O574   O     0.66668   0.04873   0.22702   0.00000  Uiso   1.00
O575   O     0.83332   0.45126   0.77298   0.00000  Uiso   1.00
O576   O     0.54873   0.33332   0.22702   0.00000  Uiso   1.00
O577   O     0.75000   0.46538   0.33749   0.00000  Uiso   1.00
O578   O     0.95126   0.16668   0.77298   0.00000  Uiso   1.00
O579   O     0.83332   0.45126   0.22702   0.00000  Uiso   1.00
O580   O     0.66668   0.04873   0.77298   0.00000  Uiso   1.00
O581   O     0.75000   0.03461   0.66251   0.00000  Uiso   1.00
O582   O     0.53461   0.25000   0.33749   0.00000  Uiso   1.00
O583   O     0.96538   0.25000   0.66251   0.00000  Uiso   1.00
O584   O     0.75000   0.03461   0.33749   0.00000  Uiso   1.00
Zn585  Zn    0.70052  -0.00000   0.21730   0.00000  Uiso   1.00
Zn586  Zn    0.54947   0.25000   0.28270   0.00000  Uiso   1.00
Zn587  Zn    0.75000   0.45052   0.71730   0.00000  Uiso   1.00
Zn588  Zn    0.75000   0.04947   0.28270   0.00000  Uiso   1.00
Zn589  Zn    0.54947   0.25000   0.71730   0.00000  Uiso   1.00
Zn590  Zn    0.95052   0.25000   0.28270   0.00000  Uiso   1.00
Zn591  Zn    0.75000   0.04947   0.71730   0.00000  Uiso   1.00
Zn592  Zn    0.75000   0.45052   0.28270   0.00000  Uiso   1.00
Zn593  Zn    0.79947  -0.00000   0.78270   0.00000  Uiso   1.00
Zn594  Zn    0.50000   0.20053   0.21730   0.00000  Uiso   1.00
Zn595  Zn    0.50000   0.29948   0.78270   0.00000  Uiso   1.00
Zn596  Zn    0.79947  -0.00000   0.21730   0.00000  Uiso   1.00
Zn597  Zn    0.70052  -0.00000   0.78270   0.00000  Uiso   1.00
Zn598  Zn    0.50000   0.29947   0.21730   0.00000  Uiso   1.00
Zn599  Zn    0.50000   0.20053   0.78270   0.00000  Uiso   1.00
Zn600  Zn    0.95052   0.25000   0.71730   0.00000  Uiso   1.00
C601   C     0.25000   0.50000   0.35590   0.00000  Uiso   1.00
C602   C     0.33001   0.91998   0.75000   0.00000  Uiso   1.00
C603   C     0.00050   0.67305   0.02032   0.00000  Uiso   1.00
C604   C     0.32694   0.99914   0.97967   0.00000  Uiso   1.00
C605   C     0.17307   0.99805   0.02036   0.00000  Uiso   1.00
C606   C     0.49769   0.67308   0.97963   0.00000  Uiso   1.00
C607   C     0.49947   0.82694   0.02033   0.00000  Uiso   1.00
C608   C     0.44360   0.80746   0.40095   0.00000  Uiso   1.00
C609   C     0.40334   0.78096   0.39980   0.00000  Uiso   1.00
C610   C     0.47780   0.67312   0.60099   0.00000  Uiso   1.00
C611   C     0.42994   0.67780   0.60382   0.00000  Uiso   1.00
C612   C     0.17312   0.97780   0.39901   0.00000  Uiso   1.00
C613   C     0.41998   0.66998   0.25000   0.00000  Uiso   1.00
C614   C     0.17780   0.92994   0.39618   0.00000  Uiso   1.00
C615   C     0.30746   0.94360   0.59904   0.00000  Uiso   1.00
C616   C     0.28096   0.90334   0.60020   0.00000  Uiso   1.00
C617   C     0.05639   0.69254   0.40095   0.00000  Uiso   1.00
C618   C     0.09666   0.71904   0.39980   0.00000  Uiso   1.00
C619   C     0.02220   0.82688   0.60099   0.00000  Uiso   1.00
C620   C     0.07006   0.82220   0.60382   0.00000  Uiso   1.00
C621   C     0.32688   0.52220   0.39901   0.00000  Uiso   1.00
C622   C     0.32220   0.57006   0.39618   0.00000  Uiso   1.00
C623   C     0.19254   0.55640   0.59905   0.00000  Uiso   1.00
C624   C     0.08002   0.83001   0.75000   0.00000  Uiso   1.00
C625   C     0.21904   0.59666   0.60020   0.00000  Uiso   1.00
C626   C     0.31604   0.95295   0.90248   0.00000  Uiso   1.00
C627   C     0.29322   0.91339   0.88821   0.00000  Uiso   1.00
C628   C     0.18458   0.95213   0.09761   0.00000  Uiso   1.00
C629   C     0.20791   0.91289   0.11195   0.00000  Uiso   1.00
C630   C     0.45186   0.68478   0.90235   0.00000  Uiso   1.00
C631   C     0.41272   0.70827   0.88800   0.00000  Uiso   1.00
C632   C     0.45321   0.81623   0.09749   0.00000  Uiso   1.00
C633   C     0.41356   0.79358   0.11175   0.00000  Uiso   1.00
C634   C     0.18396   0.54705   0.90248   0.00000  Uiso   1.00
C635   C     0.33002   0.91998   0.25000   0.00000  Uiso   1.00
C636   C     0.20678   0.58661   0.88821   0.00000  Uiso   1.00
C637   C     0.31542   0.54787   0.09761   0.00000  Uiso   1.00
C638   C     0.29209   0.58711   0.11195   0.00000  Uiso   1.00
C639   C     0.04811   0.81523   0.90236   0.00000  Uiso   1.00
C640   C     0.08726   0.79177   0.88801   0.00000  Uiso   1.00
C641   C     0.04676   0.68375   0.09748   0.00000  Uiso   1.00
C642   C     0.08643   0.70640   0.11174   0.00000  Uiso   1.00
C643   C     0.16999   0.58002   0.75000   0.00000  Uiso   1.00
C644   C     0.08002   0.83002   0.25000   0.00000  Uiso   1.00
C645   C     0.41998   0.66999   0.75000   0.00000  Uiso   1.00
C646   C     0.16998   0.91998   0.75000   0.00000  Uiso   1.00
C647   C     0.33001   0.58002   0.25000   0.00000  Uiso   1.00
C648   C     0.41998   0.83002   0.75000   0.00000  Uiso   1.00
C649   C     0.25000   0.50000   0.64388   0.00000  Uiso   1.00
C650   C     0.08002   0.66999   0.24999   0.00000  Uiso   1.00
C651   C     0.33002   0.58002   0.75000   0.00000  Uiso   1.00
C652   C     0.16999   0.91998   0.25000   0.00000  Uiso   1.00
C653   C     0.08002   0.66998   0.75000   0.00000  Uiso   1.00
C654   C     0.41998   0.83001   0.24999   0.00000  Uiso   1.00
C655   C     0.13834   0.88834   0.25000   0.00000  Uiso   1.00
C656   C     0.36166   0.61167   0.75000   0.00000  Uiso   1.00
C657   C     0.11167   0.63834   0.24999   0.00000  Uiso   1.00
C658   C     0.38833   0.86166   0.75000   0.00000  Uiso   1.00
C659   C     0.36166   0.61166   0.25000   0.00000  Uiso   1.00
C660   C    -0.00000   0.75000   0.35612   0.00000  Uiso   1.00
C661   C     0.13834   0.88833   0.75000   0.00000  Uiso   1.00
C662   C     0.38833   0.86166   0.24999   0.00000  Uiso   1.00
C663   C     0.11167   0.63834   0.75000   0.00000  Uiso   1.00
C664   C     0.13834   0.61167   0.75001   0.00000  Uiso   1.00
C665   C     0.36166   0.88833   0.25000   0.00000  Uiso   1.00
C666   C     0.11166   0.86166   0.75000   0.00000  Uiso   1.00
C667   C     0.38833   0.63834   0.25000   0.00000  Uiso   1.00
C668   C     0.36166   0.88833   0.75001   0.00000  Uiso   1.00
C669   C     0.13834   0.61167   0.25000   0.00000  Uiso   1.00
C670   C     0.38834   0.63834   0.75000   0.00000  Uiso   1.00
C671   C     0.00000   0.75000   0.64410   0.00000  Uiso   1.00
C672   C     0.11167   0.86166   0.25000   0.00000  Uiso   1.00
C673   C     0.47958   0.78277   0.41951   0.00000  Uiso   1.00
C674   C     0.49743   0.71149   0.58141   0.00000  Uiso   1.00
C675   C     0.21149   0.99743   0.41859   0.00000  Uiso   1.00
C676   C     0.28277   0.97958   0.58048   0.00000  Uiso   1.00
C677   C     0.02042   0.71723   0.41951   0.00000  Uiso   1.00
C678   C     0.00257   0.78851   0.58141   0.00000  Uiso   1.00
C679   C     0.28851   0.50257   0.41859   0.00000  Uiso   1.00
C680   C     0.21723   0.52042   0.58049   0.00000  Uiso   1.00
C681   C     0.28570   0.98535   0.91971   0.00000  Uiso   1.00
C682   C    -0.00000   0.75000   0.85612   0.00000  Uiso   1.00
C683   C     0.21450   0.98487   0.08033   0.00000  Uiso   1.00
C684   C     0.48471   0.71456   0.91965   0.00000  Uiso   1.00
C685   C     0.48549   0.78576   0.08028   0.00000  Uiso   1.00
C686   C     0.21430   0.51465   0.91971   0.00000  Uiso   1.00
C687   C     0.28550   0.51513   0.08033   0.00000  Uiso   1.00
C688   C     0.01527   0.78544   0.91966   0.00000  Uiso   1.00
C689   C     0.01450   0.71423   0.08028   0.00000  Uiso   1.00
C690   C    -0.00000   0.75000   0.39885   0.00000  Uiso   1.00
C691   C     0.00000   0.75000   0.60172   0.00000  Uiso   1.00
C692   C     0.25000   0.50000   0.39828   0.00000  Uiso   1.00
C693   C     0.00000   0.75000   0.14387   0.00000  Uiso   1.00
C694   C     0.25000   0.50000   0.60115   0.00000  Uiso   1.00
C695   C     0.25000   0.50000   0.89883   0.00000  Uiso   1.00
C696   C     0.25000   0.50000   0.10119   0.00000  Uiso   1.00
C697   C     0.49999   0.75000   0.89880   0.00000  Uiso   1.00
C698   C    -0.00000   0.75000   0.10116   0.00000  Uiso   1.00
C699   C     0.01200   0.71334   0.45959   0.00000  Uiso   1.00
C700   C     0.49380   0.78818   0.54124   0.00000  Uiso   1.00
C701   C     0.28818   0.99380   0.45875   0.00000  Uiso   1.00
C702   C     0.21334   0.51200   0.54041   0.00000  Uiso   1.00
C703   C     0.48800   0.78666   0.45959   0.00000  Uiso   1.00
C704   C     0.25000   0.50000   0.85613   0.00000  Uiso   1.00
C705   C     0.00620   0.71182   0.54124   0.00000  Uiso   1.00
C706   C     0.21182   0.50620   0.45876   0.00000  Uiso   1.00
C707   C     0.28666   0.98800   0.54041   0.00000  Uiso   1.00
C708   C     0.21174   0.50449   0.95945   0.00000  Uiso   1.00
C709   C     0.28820   0.50502   0.04058   0.00000  Uiso   1.00
C710   C     0.00518   0.78818   0.95940   0.00000  Uiso   1.00
C711   C     0.00430   0.71172   0.04054   0.00000  Uiso   1.00
C712   C     0.28826   0.99552   0.95945   0.00000  Uiso   1.00
C713   C     0.21180   0.99498   0.04058   0.00000  Uiso   1.00
C714   C     0.49480   0.71182   0.95940   0.00000  Uiso   1.00
C715   C     0.25000   0.50000   0.14388   0.00000  Uiso   1.00
C716   C     0.49567   0.78828   0.04054   0.00000  Uiso   1.00
C717   C    -0.00000   0.75000   0.48004   0.00000  Uiso   1.00
C718   C     0.00000   0.75000   0.52081   0.00000  Uiso   1.00
C719   C     0.25000   0.50000   0.47919   0.00000  Uiso   1.00
C720   C     0.25000   0.50000   0.51996   0.00000  Uiso   1.00
C721   C     0.25000   0.50000   0.97978   0.00000  Uiso   1.00
C722   C     0.25000   0.50000   0.02026   0.00000  Uiso   1.00
C723   C     0.49999   0.75000   0.97973   0.00000  Uiso   1.00
C724   C     0.49999   0.75000   0.02021   0.00000  Uiso   1.00
C725   C     0.01741   0.67519   0.48010   0.00000  Uiso   1.00
C726   C     0.16998   0.58002   0.25000   0.00000  Uiso   1.00
C727   C     0.48130   0.82458   0.52064   0.00000  Uiso   1.00
C728   C     0.32458   0.98130   0.47936   0.00000  Uiso   1.00
C729   C     0.17519   0.51741   0.51990   0.00000  Uiso   1.00
C730   C     0.48258   0.82481   0.48010   0.00000  Uiso   1.00
C731   C     0.01869   0.67542   0.52064   0.00000  Uiso   1.00
C732   C     0.17542   0.51869   0.47936   0.00000  Uiso   1.00
C733   C     0.32481   0.98258   0.51990   0.00000  Uiso   1.00
C734   C     0.17306   0.50086   0.97967   0.00000  Uiso   1.00
C735   C     0.32693   0.50195   0.02036   0.00000  Uiso   1.00
C736   C     0.00227   0.82692   0.97963   0.00000  Uiso   1.00
H737   H     0.37854   0.79815   0.38352   0.00000  Uiso   1.00
H738   H     0.49164   0.66806   0.63018   0.00000  Uiso   1.00
H739   H     0.15017   0.91652   0.38076   0.00000  Uiso   1.00
H740   H     0.20668   0.92076   0.38031   0.00000  Uiso   1.00
H741   H     0.17917   0.91602   0.42570   0.00000  Uiso   1.00
H742   H     0.14383   0.98265   0.41551   0.00000  Uiso   1.00
H743   H     0.16806   0.99164   0.36982   0.00000  Uiso   1.00
H744   H     0.29815   0.87854   0.61648   0.00000  Uiso   1.00
H745   H     0.24997   0.90849   0.61420   0.00000  Uiso   1.00
H746   H     0.27532   0.89187   0.57023   0.00000  Uiso   1.00
H747   H     0.33578   0.93490   0.58242   0.00000  Uiso   1.00
H748   H     0.40849   0.74997   0.38580   0.00000  Uiso   1.00
H749   H     0.31860   0.95234   0.62845   0.00000  Uiso   1.00
H750   H     0.09151   0.75003   0.38580   0.00000  Uiso   1.00
H751   H     0.10813   0.72468   0.42977   0.00000  Uiso   1.00
H752   H     0.12146   0.70185   0.38352   0.00000  Uiso   1.00
H753   H     0.06509   0.66422   0.41758   0.00000  Uiso   1.00
H754   H     0.04766   0.68140   0.37155   0.00000  Uiso   1.00
H755   H     0.07923   0.79332   0.61969   0.00000  Uiso   1.00
H756   H     0.08398   0.82083   0.57430   0.00000  Uiso   1.00
H757   H     0.08348   0.84983   0.61924   0.00000  Uiso   1.00
H758   H     0.01735   0.85617   0.58449   0.00000  Uiso   1.00
H759   H     0.39187   0.77532   0.42977   0.00000  Uiso   1.00
H760   H     0.00836   0.83194   0.63018   0.00000  Uiso   1.00
H761   H     0.34983   0.58348   0.38076   0.00000  Uiso   1.00
H762   H     0.29332   0.57923   0.38031   0.00000  Uiso   1.00
H763   H     0.32083   0.58398   0.42570   0.00000  Uiso   1.00
H764   H     0.35617   0.51735   0.41551   0.00000  Uiso   1.00
H765   H     0.33194   0.50836   0.36982   0.00000  Uiso   1.00
H766   H     0.25003   0.59151   0.61420   0.00000  Uiso   1.00
H767   H     0.22468   0.60813   0.57023   0.00000  Uiso   1.00
H768   H     0.20185   0.62146   0.61648   0.00000  Uiso   1.00
H769   H     0.16422   0.56510   0.58242   0.00000  Uiso   1.00
H770   H     0.43490   0.83578   0.41758   0.00000  Uiso   1.00
H771   H     0.18140   0.54766   0.62845   0.00000  Uiso   1.00
H772   H     0.27342   0.92003   0.86248   0.00000  Uiso   1.00
H773   H     0.31678   0.88918   0.87983   0.00000  Uiso   1.00
H774   H     0.27309   0.90029   0.91163   0.00000  Uiso   1.00
H775   H     0.33538   0.96685   0.87899   0.00000  Uiso   1.00
H776   H     0.33829   0.94142   0.92486   0.00000  Uiso   1.00
H777   H     0.22756   0.91981   0.13770   0.00000  Uiso   1.00
H778   H     0.18466   0.88837   0.12031   0.00000  Uiso   1.00
H779   H     0.22825   0.90003   0.08857   0.00000  Uiso   1.00
H780   H     0.16509   0.96582   0.12110   0.00000  Uiso   1.00
H781   H     0.45234   0.81860   0.37155   0.00000  Uiso   1.00
H782   H     0.16248   0.94027   0.07526   0.00000  Uiso   1.00
H783   H     0.41973   0.72787   0.86223   0.00000  Uiso   1.00
H784   H     0.38810   0.68512   0.87964   0.00000  Uiso   1.00
H785   H     0.39994   0.72868   0.91136   0.00000  Uiso   1.00
H786   H     0.46548   0.66524   0.87887   0.00000  Uiso   1.00
H787   H     0.43990   0.66272   0.92470   0.00000  Uiso   1.00
H788   H     0.40037   0.77351   0.08833   0.00000  Uiso   1.00
H789   H     0.42010   0.77375   0.13748   0.00000  Uiso   1.00
H790   H     0.38944   0.81724   0.12014   0.00000  Uiso   1.00
H791   H     0.46717   0.83553   0.12098   0.00000  Uiso   1.00
H792   H     0.41652   0.65017   0.61924   0.00000  Uiso   1.00
H793   H     0.44178   0.83853   0.07510   0.00000  Uiso   1.00
H794   H     0.22691   0.59971   0.91163   0.00000  Uiso   1.00
H795   H     0.22658   0.57997   0.86248   0.00000  Uiso   1.00
H796   H     0.18322   0.61082   0.87983   0.00000  Uiso   1.00
H797   H     0.16462   0.53316   0.87899   0.00000  Uiso   1.00
H798   H     0.16171   0.55858   0.92486   0.00000  Uiso   1.00
H799   H     0.27175   0.59997   0.08857   0.00000  Uiso   1.00
H800   H     0.27244   0.58019   0.13770   0.00000  Uiso   1.00
H801   H     0.31534   0.61163   0.12031   0.00000  Uiso   1.00
H802   H     0.33491   0.53418   0.12110   0.00000  Uiso   1.00
H803   H     0.42076   0.70668   0.61969   0.00000  Uiso   1.00
H804   H     0.33752   0.55973   0.07526   0.00000  Uiso   1.00
H805   H     0.08026   0.77215   0.86226   0.00000  Uiso   1.00
H806   H     0.11186   0.81493   0.87964   0.00000  Uiso   1.00
H807   H     0.10006   0.77138   0.91138   0.00000  Uiso   1.00
H808   H     0.03448   0.83477   0.87887   0.00000  Uiso   1.00
H809   H     0.06006   0.83731   0.92471   0.00000  Uiso   1.00
H810   H     0.09965   0.72642   0.08829   0.00000  Uiso   1.00
H811   H     0.07990   0.72627   0.13743   0.00000  Uiso   1.00
H812   H     0.11053   0.68272   0.12015   0.00000  Uiso   1.00
H813   H     0.03280   0.66446   0.12098   0.00000  Uiso   1.00
H814   H     0.41602   0.67917   0.57430   0.00000  Uiso   1.00
H815   H     0.05818   0.66145   0.07510   0.00000  Uiso   1.00
H816   H     0.48265   0.64383   0.58449   0.00000  Uiso   1.00
I817   I     0.00576   0.61547   0.45302   0.00000  Uiso   1.00
I818   I     0.38457   0.98844   0.05059   0.00000  Uiso   1.00
I819   I     0.48898   0.88463   0.94941   0.00000  Uiso   1.00
I820   I     0.48594   0.61568   0.05059   0.00000  Uiso   1.00
I821   I     0.38438   0.51344   0.94941   0.00000  Uiso   1.00
I822   I     0.11543   0.51156   0.05059   0.00000  Uiso   1.00
I823   I     0.01095   0.61537   0.94941   0.00000  Uiso   1.00
I824   I     0.01401   0.88432   0.05059   0.00000  Uiso   1.00
I825   I     0.44353   0.87253   0.54733   0.00000  Uiso   1.00
I826   I     0.37253   0.94353   0.45266   0.00000  Uiso   1.00
I827   I     0.11547   0.50576   0.54698   0.00000  Uiso   1.00
I828   I     0.49424   0.88453   0.45302   0.00000  Uiso   1.00
I829   I     0.05647   0.62747   0.54734   0.00000  Uiso   1.00
I830   I     0.12747   0.55647   0.45266   0.00000  Uiso   1.00
I831   I     0.38453   0.99424   0.54698   0.00000  Uiso   1.00
I832   I     0.11562   0.98656   0.94941   0.00000  Uiso   1.00
O833   O     0.25000   0.50000   0.25000   0.00000  Uiso   1.00
O834   O     0.25000   0.96538   0.66251   0.00000  Uiso   1.00
O835   O     0.46538   0.75000   0.33749   0.00000  Uiso   1.00
O836   O     0.03461   0.75000   0.66251   0.00000  Uiso   1.00
O837   O     0.00000   0.71539   0.83749   0.00000  Uiso   1.00
O838   O     0.00000   0.78462   0.16251   0.00000  Uiso   1.00
O839   O     0.28461   0.50000   0.83749   0.00000  Uiso   1.00
O840   O     0.21538   0.50000   0.16251   0.00000  Uiso   1.00
O841   O     0.00000   0.78462   0.83749   0.00000  Uiso   1.00
O842   O    -0.00000   0.71538   0.16251   0.00000  Uiso   1.00
O843   O     0.21538   0.50000   0.83749   0.00000  Uiso   1.00
O844   O     0.25000   0.50000   0.75000   0.00000  Uiso   1.00
O845   O     0.28461   0.50000   0.16251   0.00000  Uiso   1.00
O846   O     0.20126   0.58332   0.27298   0.00000  Uiso   1.00
O847   O     0.29873   0.91668   0.72702   0.00000  Uiso   1.00
O848   O     0.41668   0.70126   0.27298   0.00000  Uiso   1.00
O849   O     0.08332   0.79874   0.72702   0.00000  Uiso   1.00
O850   O     0.29873   0.91668   0.27298   0.00000  Uiso   1.00
O851   O     0.20126   0.58332   0.72702   0.00000  Uiso   1.00
O852   O     0.08332   0.79874   0.27298   0.00000  Uiso   1.00
O853   O     0.41668   0.70126   0.72702   0.00000  Uiso   1.00
O854   O     0.20126   0.91668   0.72702   0.00000  Uiso   1.00
O855   O     0.00000   0.75000   0.25000   0.00000  Uiso   1.00
O856   O     0.29873   0.58332   0.27298   0.00000  Uiso   1.00
O857   O     0.41668   0.79873   0.72702   0.00000  Uiso   1.00
O858   O     0.08332   0.70126   0.27298   0.00000  Uiso   1.00
O859   O     0.29873   0.58332   0.72702   0.00000  Uiso   1.00
O860   O     0.20126   0.91668   0.27298   0.00000  Uiso   1.00
O861   O     0.08332   0.70126   0.72702   0.00000  Uiso   1.00
O862   O     0.41668   0.79873   0.27298   0.00000  Uiso   1.00
O863   O     0.45126   0.83332   0.77298   0.00000  Uiso   1.00
O864   O     0.04873   0.66668   0.22702   0.00000  Uiso   1.00
O865   O     0.16668   0.95126   0.77298   0.00000  Uiso   1.00
O866   O     0.00000   0.75000   0.75000   0.00000  Uiso   1.00
O867   O     0.33332   0.54873   0.22702   0.00000  Uiso   1.00
O868   O     0.04873   0.66668   0.77298   0.00000  Uiso   1.00
O869   O     0.45126   0.83332   0.22702   0.00000  Uiso   1.00
O870   O     0.33332   0.54873   0.77298   0.00000  Uiso   1.00
O871   O     0.16668   0.95126   0.22702   0.00000  Uiso   1.00
O872   O     0.45126   0.66668   0.22702   0.00000  Uiso   1.00
O873   O     0.04873   0.83332   0.77298   0.00000  Uiso   1.00
O874   O     0.16668   0.54873   0.22702   0.00000  Uiso   1.00
O875   O     0.33332   0.95126   0.77298   0.00000  Uiso   1.00
O876   O     0.04873   0.83332   0.22702   0.00000  Uiso   1.00
O877   O     0.25000   0.96538   0.33749   0.00000  Uiso   1.00
O878   O     0.45126   0.66668   0.77298   0.00000  Uiso   1.00
O879   O     0.33332   0.95126   0.22702   0.00000  Uiso   1.00
O880   O     0.16668   0.54873   0.77298   0.00000  Uiso   1.00
O881   O     0.25000   0.53461   0.66251   0.00000  Uiso   1.00
O882   O     0.03461   0.75000   0.33749   0.00000  Uiso   1.00
O883   O     0.46538   0.75000   0.66251   0.00000  Uiso   1.00
O884   O     0.25000   0.53461   0.33749   0.00000  Uiso   1.00
Zn885  Zn    0.20052   0.50000   0.21730   0.00000  Uiso   1.00
Zn886  Zn    0.04947   0.75000   0.28270   0.00000  Uiso   1.00
Zn887  Zn    0.25000   0.95052   0.71730   0.00000  Uiso   1.00
Zn888  Zn    0.25000   0.54947   0.28270   0.00000  Uiso   1.00
Zn889  Zn    0.04947   0.75000   0.71730   0.00000  Uiso   1.00
Zn890  Zn    0.45052   0.75000   0.28270   0.00000  Uiso   1.00
Zn891  Zn    0.25000   0.54947   0.71730   0.00000  Uiso   1.00
Zn892  Zn    0.25000   0.95052   0.28270   0.00000  Uiso   1.00
Zn893  Zn    0.29947   0.50000   0.78270   0.00000  Uiso   1.00
Zn894  Zn    0.00000   0.70053   0.21730   0.00000  Uiso   1.00
Zn895  Zn    0.00000   0.79948   0.78270   0.00000  Uiso   1.00
Zn896  Zn    0.29947   0.50000   0.21730   0.00000  Uiso   1.00
Zn897  Zn    0.20052   0.50000   0.78270   0.00000  Uiso   1.00
Zn898  Zn   -0.00000   0.79947   0.21730   0.00000  Uiso   1.00
Zn899  Zn    0.00000   0.70053   0.78270   0.00000  Uiso   1.00
Zn900  Zn    0.45052   0.75000   0.71730   0.00000  Uiso   1.00
C901   C     0.75000   0.50000   0.35590   0.00000  Uiso   1.00
C902   C     0.83001   0.91998   0.75000   0.00000  Uiso   1.00
C903   C     0.50050   0.67305   0.02032   0.00000  Uiso   1.00
C904   C     0.82694   0.99914   0.97967   0.00000  Uiso   1.00
C905   C     0.67307   0.99805   0.02036   0.00000  Uiso   1.00
C906   C     0.99769   0.67308   0.97963   0.00000  Uiso   1.00
C907   C     0.99947   0.82694   0.02033   0.00000  Uiso   1.00
C908   C     0.94360   0.80746   0.40095   0.00000  Uiso   1.00
C909   C     0.90334   0.78096   0.39980   0.00000  Uiso   1.00
C910   C     0.97780   0.67312   0.60099   0.00000  Uiso   1.00
C911   C     0.92994   0.67780   0.60382   0.00000  Uiso   1.00
C912   C     0.67312   0.97780   0.39901   0.00000  Uiso   1.00
C913   C     0.91998   0.66998   0.25000   0.00000  Uiso   1.00
C914   C     0.67780   0.92994   0.39618   0.00000  Uiso   1.00
C915   C     0.80746   0.94360   0.59904   0.00000  Uiso   1.00
C916   C     0.78096   0.90334   0.60020   0.00000  Uiso   1.00
C917   C     0.55639   0.69254   0.40095   0.00000  Uiso   1.00
C918   C     0.59666   0.71904   0.39980   0.00000  Uiso   1.00
C919   C     0.52220   0.82688   0.60099   0.00000  Uiso   1.00
C920   C     0.57006   0.82220   0.60382   0.00000  Uiso   1.00
C921   C     0.82688   0.52220   0.39901   0.00000  Uiso   1.00
C922   C     0.82220   0.57006   0.39618   0.00000  Uiso   1.00
C923   C     0.69254   0.55640   0.59905   0.00000  Uiso   1.00
C924   C     0.58002   0.83001   0.75000   0.00000  Uiso   1.00
C925   C     0.71904   0.59666   0.60020   0.00000  Uiso   1.00
C926   C     0.81604   0.95295   0.90248   0.00000  Uiso   1.00
C927   C     0.79322   0.91339   0.88821   0.00000  Uiso   1.00
C928   C     0.68458   0.95213   0.09761   0.00000  Uiso   1.00
C929   C     0.70791   0.91289   0.11195   0.00000  Uiso   1.00
C930   C     0.95186   0.68478   0.90235   0.00000  Uiso   1.00
C931   C     0.91272   0.70827   0.88800   0.00000  Uiso   1.00
C932   C     0.95321   0.81623   0.09749   0.00000  Uiso   1.00
C933   C     0.91356   0.79358   0.11175   0.00000  Uiso   1.00
C934   C     0.68396   0.54705   0.90248   0.00000  Uiso   1.00
C935   C     0.83002   0.91998   0.25000   0.00000  Uiso   1.00
C936   C     0.70678   0.58661   0.88821   0.00000  Uiso   1.00
C937   C     0.81542   0.54787   0.09761   0.00000  Uiso   1.00
C938   C     0.79209   0.58711   0.11195   0.00000  Uiso   1.00
C939   C     0.54811   0.81523   0.90236   0.00000  Uiso   1.00
C940   C     0.58726   0.79177   0.88801   0.00000  Uiso   1.00
C941   C     0.54676   0.68375   0.09748   0.00000  Uiso   1.00
C942   C     0.58643   0.70640   0.11174   0.00000  Uiso   1.00
C943   C     0.66999   0.58002   0.75000   0.00000  Uiso   1.00
C944   C     0.58002   0.83002   0.25000   0.00000  Uiso   1.00
C945   C     0.91998   0.66999   0.75000   0.00000  Uiso   1.00
C946   C     0.66998   0.91998   0.75000   0.00000  Uiso   1.00
C947   C     0.83001   0.58002   0.25000   0.00000  Uiso   1.00
C948   C     0.91998   0.83002   0.75000   0.00000  Uiso   1.00
C949   C     0.75000   0.50000   0.64388   0.00000  Uiso   1.00
C950   C     0.58002   0.66999   0.24999   0.00000  Uiso   1.00
C951   C     0.83002   0.58002   0.75000   0.00000  Uiso   1.00
C952   C     0.66999   0.91998   0.25000   0.00000  Uiso   1.00
C953   C     0.58002   0.66998   0.75000   0.00000  Uiso   1.00
C954   C     0.91998   0.83001   0.24999   0.00000  Uiso   1.00
C955   C     0.63834   0.88834   0.25000   0.00000  Uiso   1.00
C956   C     0.86166   0.61167   0.75000   0.00000  Uiso   1.00
C957   C     0.61167   0.63834   0.24999   0.00000  Uiso   1.00
C958   C     0.88833   0.86166   0.75000   0.00000  Uiso   1.00
C959   C     0.86166   0.61166   0.25000   0.00000  Uiso   1.00
C960   C     0.50000   0.75000   0.35612   0.00000  Uiso   1.00
C961   C     0.63834   0.88833   0.75000   0.00000  Uiso   1.00
C962   C     0.88833   0.86166   0.24999   0.00000  Uiso   1.00
C963   C     0.61167   0.63834   0.75000   0.00000  Uiso   1.00
C964   C     0.63834   0.61167   0.75001   0.00000  Uiso   1.00
C965   C     0.86166   0.88833   0.25000   0.00000  Uiso   1.00
C966   C     0.61166   0.86166   0.75000   0.00000  Uiso   1.00
C967   C     0.88833   0.63834   0.25000   0.00000  Uiso   1.00
C968   C     0.86166   0.88833   0.75001   0.00000  Uiso   1.00
C969   C     0.63834   0.61167   0.25000   0.00000  Uiso   1.00
C970   C     0.88834   0.63834   0.75000   0.00000  Uiso   1.00
C971   C     0.50000   0.75000   0.64410   0.00000  Uiso   1.00
C972   C     0.61167   0.86166   0.25000   0.00000  Uiso   1.00
C973   C     0.97958   0.78277   0.41951   0.00000  Uiso   1.00
C974   C     0.99743   0.71149   0.58141   0.00000  Uiso   1.00
C975   C     0.71149   0.99743   0.41859   0.00000  Uiso   1.00
C976   C     0.78277   0.97958   0.58048   0.00000  Uiso   1.00
C977   C     0.52042   0.71723   0.41951   0.00000  Uiso   1.00
C978   C     0.50257   0.78851   0.58141   0.00000  Uiso   1.00
C979   C     0.78851   0.50257   0.41859   0.00000  Uiso   1.00
C980   C     0.71723   0.52042   0.58049   0.00000  Uiso   1.00
C981   C     0.78570   0.98535   0.91971   0.00000  Uiso   1.00
C982   C     0.50000   0.75000   0.85612   0.00000  Uiso   1.00
C983   C     0.71450   0.98487   0.08033   0.00000  Uiso   1.00
C984   C     0.98471   0.71456   0.91965   0.00000  Uiso   1.00
C985   C     0.98549   0.78576   0.08028   0.00000  Uiso   1.00
C986   C     0.71430   0.51465   0.91971   0.00000  Uiso   1.00
C987   C     0.78550   0.51513   0.08033   0.00000  Uiso   1.00
C988   C     0.51527   0.78544   0.91966   0.00000  Uiso   1.00
C989   C     0.51450   0.71423   0.08028   0.00000  Uiso   1.00
C990   C     0.50000   0.75000   0.39885   0.00000  Uiso   1.00
C991   C     0.50000   0.75000   0.60172   0.00000  Uiso   1.00
C992   C     0.75000   0.50000   0.39828   0.00000  Uiso   1.00
C993   C     0.50000   0.75000   0.14387   0.00000  Uiso   1.00
C994   C     0.75000   0.50000   0.60115   0.00000  Uiso   1.00
C995   C     0.75000   0.50000   0.89883   0.00000  Uiso   1.00
C996   C     0.75000   0.50000   0.10119   0.00000  Uiso   1.00
C997   C     0.99999   0.75000   0.89880   0.00000  Uiso   1.00
C998   C     0.50000   0.75000   0.10116   0.00000  Uiso   1.00
C999   C     0.51200   0.71334   0.45959   0.00000  Uiso   1.00
C1000  C     0.99380   0.78818   0.54124   0.00000  Uiso   1.00
C1001  C     0.78818   0.99380   0.45875   0.00000  Uiso   1.00
C1002  C     0.71334   0.51200   0.54041   0.00000  Uiso   1.00
C1003  C     0.98800   0.78666   0.45959   0.00000  Uiso   1.00
C1004  C     0.75000   0.50000   0.85613   0.00000  Uiso   1.00
C1005  C     0.50620   0.71182   0.54124   0.00000  Uiso   1.00
C1006  C     0.71182   0.50620   0.45876   0.00000  Uiso   1.00
C1007  C     0.78666   0.98800   0.54041   0.00000  Uiso   1.00
C1008  C     0.71174   0.50449   0.95945   0.00000  Uiso   1.00
C1009  C     0.78820   0.50502   0.04058   0.00000  Uiso   1.00
C1010  C     0.50518   0.78818   0.95940   0.00000  Uiso   1.00
C1011  C     0.50430   0.71172   0.04054   0.00000  Uiso   1.00
C1012  C     0.78826   0.99552   0.95945   0.00000  Uiso   1.00
C1013  C     0.71180   0.99498   0.04058   0.00000  Uiso   1.00
C1014  C     0.99480   0.71182   0.95940   0.00000  Uiso   1.00
C1015  C     0.75000   0.50000   0.14388   0.00000  Uiso   1.00
C1016  C     0.99567   0.78828   0.04054   0.00000  Uiso   1.00
C1017  C     0.50000   0.75000   0.48004   0.00000  Uiso   1.00
C1018  C     0.50000   0.75000   0.52081   0.00000  Uiso   1.00
C1019  C     0.75000   0.50000   0.47919   0.00000  Uiso   1.00
C1020  C     0.75000   0.50000   0.51996   0.00000  Uiso   1.00
C1021  C     0.75000   0.50000   0.97978   0.00000  Uiso   1.00
C1022  C     0.75000   0.50000   0.02026   0.00000  Uiso   1.00
C1023  C     0.99999   0.75000   0.97973   0.00000  Uiso   1.00
C1024  C     0.99999   0.75000   0.02021   0.00000  Uiso   1.00
C1025  C     0.51741   0.67519   0.48010   0.00000  Uiso   1.00
C1026  C     0.66998   0.58002   0.25000   0.00000  Uiso   1.00
C1027  C     0.98130   0.82458   0.52064   0.00000  Uiso   1.00
C1028  C     0.82458   0.98130   0.47936   0.00000  Uiso   1.00
C1029  C     0.67519   0.51741   0.51990   0.00000  Uiso   1.00
C1030  C     0.98258   0.82481   0.48010   0.00000  Uiso   1.00
C1031  C     0.51869   0.67542   0.52064   0.00000  Uiso   1.00
C1032  C     0.67542   0.51869   0.47936   0.00000  Uiso   1.00
C1033  C     0.82481   0.98258   0.51990   0.00000  Uiso   1.00
C1034  C     0.67306   0.50086   0.97967   0.00000  Uiso   1.00
C1035  C     0.82693   0.50195   0.02036   0.00000  Uiso   1.00
C1036  C     0.50227   0.82692   0.97963   0.00000  Uiso   1.00
H1037  H     0.87854   0.79815   0.38352   0.00000  Uiso   1.00
H1038  H     0.99164   0.66806   0.63018   0.00000  Uiso   1.00
H1039  H     0.65017   0.91652   0.38076   0.00000  Uiso   1.00
H1040  H     0.70668   0.92076   0.38031   0.00000  Uiso   1.00
H1041  H     0.67917   0.91602   0.42570   0.00000  Uiso   1.00
H1042  H     0.64383   0.98265   0.41551   0.00000  Uiso   1.00
H1043  H     0.66806   0.99164   0.36982   0.00000  Uiso   1.00
H1044  H     0.79815   0.87854   0.61648   0.00000  Uiso   1.00
H1045  H     0.74997   0.90849   0.61420   0.00000  Uiso   1.00
H1046  H     0.77532   0.89187   0.57023   0.00000  Uiso   1.00
H1047  H     0.83578   0.93490   0.58242   0.00000  Uiso   1.00
H1048  H     0.90849   0.74997   0.38580   0.00000  Uiso   1.00
H1049  H     0.81860   0.95234   0.62845   0.00000  Uiso   1.00
H1050  H     0.59151   0.75003   0.38580   0.00000  Uiso   1.00
H1051  H     0.60813   0.72468   0.42977   0.00000  Uiso   1.00
H1052  H     0.62146   0.70185   0.38352   0.00000  Uiso   1.00
H1053  H     0.56509   0.66422   0.41758   0.00000  Uiso   1.00
H1054  H     0.54766   0.68140   0.37155   0.00000  Uiso   1.00
H1055  H     0.57923   0.79332   0.61969   0.00000  Uiso   1.00
H1056  H     0.58398   0.82083   0.57430   0.00000  Uiso   1.00
H1057  H     0.58348   0.84983   0.61924   0.00000  Uiso   1.00
H1058  H     0.51735   0.85617   0.58449   0.00000  Uiso   1.00
H1059  H     0.89187   0.77532   0.42977   0.00000  Uiso   1.00
H1060  H     0.50836   0.83194   0.63018   0.00000  Uiso   1.00
H1061  H     0.84983   0.58348   0.38076   0.00000  Uiso   1.00
H1062  H     0.79332   0.57923   0.38031   0.00000  Uiso   1.00
H1063  H     0.82083   0.58398   0.42570   0.00000  Uiso   1.00
H1064  H     0.85617   0.51735   0.41551   0.00000  Uiso   1.00
H1065  H     0.83194   0.50836   0.36982   0.00000  Uiso   1.00
H1066  H     0.75003   0.59151   0.61420   0.00000  Uiso   1.00
H1067  H     0.72468   0.60813   0.57023   0.00000  Uiso   1.00
H1068  H     0.70185   0.62146   0.61648   0.00000  Uiso   1.00
H1069  H     0.66422   0.56510   0.58242   0.00000  Uiso   1.00
H1070  H     0.93490   0.83578   0.41758   0.00000  Uiso   1.00
H1071  H     0.68140   0.54766   0.62845   0.00000  Uiso   1.00
H1072  H     0.77342   0.92003   0.86248   0.00000  Uiso   1.00
H1073  H     0.81678   0.88918   0.87983   0.00000  Uiso   1.00
H1074  H     0.77309   0.90029   0.91163   0.00000  Uiso   1.00
H1075  H     0.83538   0.96685   0.87899   0.00000  Uiso   1.00
H1076  H     0.83829   0.94142   0.92486   0.00000  Uiso   1.00
H1077  H     0.72756   0.91981   0.13770   0.00000  Uiso   1.00
H1078  H     0.68466   0.88837   0.12031   0.00000  Uiso   1.00
H1079  H     0.72825   0.90003   0.08857   0.00000  Uiso   1.00
H1080  H     0.66509   0.96582   0.12110   0.00000  Uiso   1.00
H1081  H     0.95234   0.81860   0.37155   0.00000  Uiso   1.00
H1082  H     0.66248   0.94027   0.07526   0.00000  Uiso   1.00
H1083  H     0.91973   0.72787   0.86223   0.00000  Uiso   1.00
H1084  H     0.88810   0.68512   0.87964   0.00000  Uiso   1.00
H1085  H     0.89994   0.72868   0.91136   0.00000  Uiso   1.00
H1086  H     0.96548   0.66524   0.87887   0.00000  Uiso   1.00
H1087  H     0.93990   0.66272   0.92470   0.00000  Uiso   1.00
H1088  H     0.90037   0.77351   0.08833   0.00000  Uiso   1.00
H1089  H     0.92010   0.77375   0.13748   0.00000  Uiso   1.00
H1090  H     0.88944   0.81724   0.12014   0.00000  Uiso   1.00
H1091  H     0.96717   0.83553   0.12098   0.00000  Uiso   1.00
H1092  H     0.91652   0.65017   0.61924   0.00000  Uiso   1.00
H1093  H     0.94178   0.83853   0.07510   0.00000  Uiso   1.00
H1094  H     0.72691   0.59971   0.91163   0.00000  Uiso   1.00
H1095  H     0.72658   0.57997   0.86248   0.00000  Uiso   1.00
H1096  H     0.68322   0.61082   0.87983   0.00000  Uiso   1.00
H1097  H     0.66462   0.53316   0.87899   0.00000  Uiso   1.00
H1098  H     0.66171   0.55858   0.92486   0.00000  Uiso   1.00
H1099  H     0.77175   0.59997   0.08857   0.00000  Uiso   1.00
H1100  H     0.77244   0.58019   0.13770   0.00000  Uiso   1.00
H1101  H     0.81534   0.61163   0.12031   0.00000  Uiso   1.00
H1102  H     0.83491   0.53418   0.12110   0.00000  Uiso   1.00
H1103  H     0.92076   0.70668   0.61969   0.00000  Uiso   1.00
H1104  H     0.83752   0.55973   0.07526   0.00000  Uiso   1.00
H1105  H     0.58026   0.77215   0.86226   0.00000  Uiso   1.00
H1106  H     0.61186   0.81493   0.87964   0.00000  Uiso   1.00
H1107  H     0.60006   0.77138   0.91138   0.00000  Uiso   1.00
H1108  H     0.53448   0.83477   0.87887   0.00000  Uiso   1.00
H1109  H     0.56006   0.83731   0.92471   0.00000  Uiso   1.00
H1110  H     0.59965   0.72642   0.08829   0.00000  Uiso   1.00
H1111  H     0.57990   0.72627   0.13743   0.00000  Uiso   1.00
H1112  H     0.61053   0.68272   0.12015   0.00000  Uiso   1.00
H1113  H     0.53280   0.66446   0.12098   0.00000  Uiso   1.00
H1114  H     0.91602   0.67917   0.57430   0.00000  Uiso   1.00
H1115  H     0.55818   0.66145   0.07510   0.00000  Uiso   1.00
H1116  H     0.98265   0.64383   0.58449   0.00000  Uiso   1.00
I1117  I     0.50576   0.61547   0.45302   0.00000  Uiso   1.00
I1118  I     0.88457   0.98844   0.05059   0.00000  Uiso   1.00
I1119  I     0.98898   0.88463   0.94941   0.00000  Uiso   1.00
I1120  I     0.98594   0.61568   0.05059   0.00000  Uiso   1.00
I1121  I     0.88438   0.51344   0.94941   0.00000  Uiso   1.00
I1122  I     0.61543   0.51156   0.05059   0.00000  Uiso   1.00
I1123  I     0.51095   0.61537   0.94941   0.00000  Uiso   1.00
I1124  I     0.51401   0.88432   0.05059   0.00000  Uiso   1.00
I1125  I     0.94353   0.87253   0.54733   0.00000  Uiso   1.00
I1126  I     0.87253   0.94353   0.45266   0.00000  Uiso   1.00
I1127  I     0.61547   0.50576   0.54698   0.00000  Uiso   1.00
I1128  I     0.99424   0.88453   0.45302   0.00000  Uiso   1.00
I1129  I     0.55647   0.62747   0.54734   0.00000  Uiso   1.00
I1130  I     0.62747   0.55647   0.45266   0.00000  Uiso   1.00
I1131  I     0.88453   0.99424   0.54698   0.00000  Uiso   1.00
I1132  I     0.61562   0.98656   0.94941   0.00000  Uiso   1.00
O1133  O     0.75000   0.50000   0.25000   0.00000  Uiso   1.00
O1134  O     0.75000   0.96538   0.66251   0.00000  Uiso   1.00
O1135  O     0.96538   0.75000   0.33749   0.00000  Uiso   1.00
O1136  O     0.53461   0.75000   0.66251   0.00000  Uiso   1.00
O1137  O     0.50000   0.71539   0.83749   0.00000  Uiso   1.00
O1138  O     0.50000   0.78462   0.16251   0.00000  Uiso   1.00
O1139  O     0.78461   0.50000   0.83749   0.00000  Uiso   1.00
O1140  O     0.71538   0.50000   0.16251   0.00000  Uiso   1.00
O1141  O     0.50000   0.78462   0.83749   0.00000  Uiso   1.00
O1142  O     0.50000   0.71538   0.16251   0.00000  Uiso   1.00
O1143  O     0.71538   0.50000   0.83749   0.00000  Uiso   1.00
O1144  O     0.75000   0.50000   0.75000   0.00000  Uiso   1.00
O1145  O     0.78461   0.50000   0.16251   0.00000  Uiso   1.00
O1146  O     0.70126   0.58332   0.27298   0.00000  Uiso   1.00
O1147  O     0.79873   0.91668   0.72702   0.00000  Uiso   1.00
O1148  O     0.91668   0.70126   0.27298   0.00000  Uiso   1.00
O1149  O     0.58332   0.79874   0.72702   0.00000  Uiso   1.00
O1150  O     0.79873   0.91668   0.27298   0.00000  Uiso   1.00
O1151  O     0.70126   0.58332   0.72702   0.00000  Uiso   1.00
O1152  O     0.58332   0.79874   0.27298   0.00000  Uiso   1.00
O1153  O     0.91668   0.70126   0.72702   0.00000  Uiso   1.00
O1154  O     0.70126   0.91668   0.72702   0.00000  Uiso   1.00
O1155  O     0.50000   0.75000   0.25000   0.00000  Uiso   1.00
O1156  O     0.79873   0.58332   0.27298   0.00000  Uiso   1.00
O1157  O     0.91668   0.79873   0.72702   0.00000  Uiso   1.00
O1158  O     0.58332   0.70126   0.27298   0.00000  Uiso   1.00
O1159  O     0.79873   0.58332   0.72702   0.00000  Uiso   1.00
O1160  O     0.70126   0.91668   0.27298   0.00000  Uiso   1.00
O1161  O     0.58332   0.70126   0.72702   0.00000  Uiso   1.00
O1162  O     0.91668   0.79873   0.27298   0.00000  Uiso   1.00
O1163  O     0.95126   0.83332   0.77298   0.00000  Uiso   1.00
O1164  O     0.54873   0.66668   0.22702   0.00000  Uiso   1.00
O1165  O     0.66668   0.95126   0.77298   0.00000  Uiso   1.00
O1166  O     0.50000   0.75000   0.75000   0.00000  Uiso   1.00
O1167  O     0.83332   0.54873   0.22702   0.00000  Uiso   1.00
O1168  O     0.54873   0.66668   0.77298   0.00000  Uiso   1.00
O1169  O     0.95126   0.83332   0.22702   0.00000  Uiso   1.00
O1170  O     0.83332   0.54873   0.77298   0.00000  Uiso   1.00
O1171  O     0.66668   0.95126   0.22702   0.00000  Uiso   1.00
O1172  O     0.95126   0.66668   0.22702   0.00000  Uiso   1.00
O1173  O     0.54873   0.83332   0.77298   0.00000  Uiso   1.00
O1174  O     0.66668   0.54873   0.22702   0.00000  Uiso   1.00
O1175  O     0.83332   0.95126   0.77298   0.00000  Uiso   1.00
O1176  O     0.54873   0.83332   0.22702   0.00000  Uiso   1.00
O1177  O     0.75000   0.96538   0.33749   0.00000  Uiso   1.00
O1178  O     0.95126   0.66668   0.77298   0.00000  Uiso   1.00
O1179  O     0.83332   0.95126   0.22702   0.00000  Uiso   1.00
O1180  O     0.66668   0.54873   0.77298   0.00000  Uiso   1.00
O1181  O     0.75000   0.53461   0.66251   0.00000  Uiso   1.00
O1182  O     0.53461   0.75000   0.33749   0.00000  Uiso   1.00
O1183  O     0.96538   0.75000   0.66251   0.00000  Uiso   1.00
O1184  O     0.75000   0.53461   0.33749   0.00000  Uiso   1.00
Zn1185 Zn    0.70052   0.50000   0.21730   0.00000  Uiso   1.00
Zn1186 Zn    0.54947   0.75000   0.28270   0.00000  Uiso   1.00
Zn1187 Zn    0.75000   0.95052   0.71730   0.00000  Uiso   1.00
Zn1188 Zn    0.75000   0.54947   0.28270   0.00000  Uiso   1.00
Zn1189 Zn    0.54947   0.75000   0.71730   0.00000  Uiso   1.00
Zn1190 Zn    0.95052   0.75000   0.28270   0.00000  Uiso   1.00
Zn1191 Zn    0.75000   0.54947   0.71730   0.00000  Uiso   1.00
Zn1192 Zn    0.75000   0.95052   0.28270   0.00000  Uiso   1.00
Zn1193 Zn    0.79947   0.50000   0.78270   0.00000  Uiso   1.00
Zn1194 Zn    0.50000   0.70053   0.21730   0.00000  Uiso   1.00
Zn1195 Zn    0.50000   0.79948   0.78270   0.00000  Uiso   1.00
Zn1196 Zn    0.79947   0.50000   0.21730   0.00000  Uiso   1.00
Zn1197 Zn    0.70052   0.50000   0.78270   0.00000  Uiso   1.00
Zn1198 Zn    0.50000   0.79947   0.21730   0.00000  Uiso   1.00
Zn1199 Zn    0.50000   0.70053   0.78270   0.00000  Uiso   1.00
Zn1200 Zn    0.95052   0.75000   0.71730   0.00000  Uiso   1.00
loop_
_geom_bond_atom_site_label_1
_geom_bond_atom_site_label_2
_geom_bond_distance
_geom_bond_site_symmetry_2
_ccdc_geom_bond_type
C1     O877    1.269   1_545 A
C1     C92     1.463   .     S
C1     O284    1.269   .     S
C2     O247    1.275   .     A
C2     C68     1.420   .     S
C2     O275    1.275   .     A
C3     C111    1.417   .     A
C3     C306    1.407   1_454 S
C3     I520    2.149   1_455 S
C4     C112    1.417   .     A
C4     C735    1.407   1_556 S
C4     I821    2.149   .     S
C5     C113    1.417   .     A
C5     C734    1.407   1_554 S
C5     I822    2.149   .     S
C6     C114    1.417   .     A
C6     C303    1.407   1_556 S
C6     I523    2.149   .     S
C7     C116    1.417   .     A
C7     C436    1.407   1_554 S
C7     I524    2.149   .     S
C8     H181    1.110   .     S
C8     H170    1.101   .     S
C8     C73     1.526   .     S
C8     C9      1.530   .     S
C9     H137    1.110   .     S
C9     H148    1.108   .     S
C9     H159    1.111   .     S
C10    H138    1.111   .     S
C10    H216    1.101   .     S
C10    C11     1.529   .     S
C10    C74     1.526   .     S
C11    H192    1.111   .     S
C11    H214    1.111   .     S
C11    H203    1.107   .     S
C12    C75     1.526   .     S
C12    H143    1.111   .     S
C12    H142    1.101   .     S
C12    C14     1.529   .     S
C13    O272    1.275   .     A
C13    O248    1.275   .     A
C13    C67     1.421   .     S
C14    H140    1.107   .     S
C14    H141    1.111   .     S
C14    H139    1.111   .     S
C15    H149    1.110   .     S
C15    C76     1.526   .     S
C15    H147    1.101   .     S
C15    C16     1.530   .     S
C16    H144    1.110   .     S
C16    H145    1.108   .     S
C16    H146    1.111   .     S
C17    H153    1.101   .     S
C17    C18     1.530   .     S
C17    H154    1.110   .     S
C17    C77     1.526   .     S
C18    H152    1.110   .     S
C18    H150    1.108   .     S
C18    H151    1.111   .     S
C19    C20     1.529   .     S
C19    H160    1.111   .     S
C19    C78     1.526   .     S
C19    H158    1.101   .     S
C20    H155    1.107   .     S
C20    H156    1.111   .     S
C20    H157    1.111   .     S
C21    C22     1.529   .     S
C21    C79     1.526   .     S
C21    H165    1.111   .     S
C21    H164    1.101   .     S
C22    H161    1.111   .     S
C22    H162    1.107   .     S
C22    H163    1.111   .     S
C23    H171    1.110   .     S
C23    H169    1.101   .     S
C23    C80     1.526   .     S
C23    C25     1.530   .     S
C24    O249    1.275   .     A
C24    C66     1.420   .     S
C24    O273    1.275   .     A
C25    H166    1.108   .     S
C25    H168    1.110   .     S
C25    H167    1.111   .     S
C26    H176    1.109   .     S
C26    C27     1.531   .     S
C26    C81     1.529   .     S
C26    H175    1.109   .     S
C27    H174    1.111   .     S
C27    H172    1.108   .     S
C27    H173    1.111   .     S
C28    C83     1.529   .     S
C28    H180    1.109   .     S
C28    H182    1.109   .     S
C28    C29     1.531   .     S
C29    H177    1.108   .     S
C29    H179    1.111   .     S
C29    H178    1.111   .     S
C30    H187    1.109   .     S
C30    C31     1.531   .     S
C30    H186    1.109   .     S
C30    C84     1.529   .     S
C31    H185    1.111   .     S
C31    H184    1.111   .     S
C31    H183    1.108   .     S
C32    H191    1.109   .     S
C32    H193    1.109   .     S
C32    C33     1.531   .     S
C32    C85     1.529   .     S
C33    H189    1.108   .     S
C33    H188    1.111   .     S
C33    H190    1.111   .     S
C34    H198    1.109   .     S
C34    C36     1.531   .     S
C34    C86     1.529   .     S
C34    H197    1.109   .     S
C35    O250    1.275   .     A
C35    C65     1.420   .     S
C35    O279    1.275   .     A
C36    H194    1.111   .     S
C36    H196    1.111   .     S
C36    H195    1.108   .     S
C37    C38     1.531   .     S
C37    H202    1.109   .     S
C37    H204    1.109   .     S
C37    C87     1.529   .     S
C38    H200    1.108   .     S
C38    H199    1.111   .     S
C38    H201    1.111   .     S
C39    H209    1.109   .     S
C39    C40     1.531   .     S
C39    H208    1.109   .     S
C39    C88     1.529   .     S
C40    H205    1.108   .     S
C40    H207    1.111   .     S
C40    H206    1.111   .     S
C41    H213    1.109   .     S
C41    C89     1.529   .     S
C41    H215    1.109   .     S
C41    C42     1.531   .     S
C42    H212    1.111   .     S
C42    H210    1.111   .     S
C42    H211    1.108   .     S
C43    O251    1.275   .     A
C43    C64     1.420   .     S
C43    O280    1.275   .     A
C44    O276    1.275   .     A
C44    C72     1.421   .     S
C44    O252    1.275   .     A
C45    C70     1.420   .     S
C45    O278    1.275   .     A
C45    O253    1.275   .     A
C46    O265    1.275   .     A
C46    C61     1.420   .     S
C46    O254    1.275   .     A
C47    O267    1.275   .     A
C47    O256    1.275   .     A
C47    C59     1.420   .     S
C48    O263    1.275   .     A
C48    O257    1.275   .     A
C48    C58     1.420   .     S
C49    O834    1.273   1_545 A
C49    C94     1.475   .     S
C49    O281    1.273   .     S
C50    C57     1.420   .     S
C50    O258    1.275   .     A
C50    O264    1.275   .     A
C51    O270    1.275   .     A
C51    O259    1.275   .     A
C51    C56     1.421   .     S
C52    O260    1.275   .     A
C52    C55     1.420   .     S
C52    O271    1.275   .     A
C53    O261    1.275   .     A
C53    C63     1.420   .     S
C53    O268    1.275   .     A
C54    O269    1.275   .     A
C54    C62     1.420   .     S
C54    O262    1.275   .     A
C55    C72     1.197   .     T
C56    C70     1.197   .     T
C57    C69     1.197   .     T
C58    C68     1.197   .     T
C59    C67     1.197   .     T
C60    C90     1.475   .     S
C60    O535    1.273   1_455 A
C60    O282    1.273   .     S
C61    C66     1.197   .     T
C62    C65     1.197   .     T
C63    C64     1.197   .     T
C69    C126    1.420   .     S
C71    C91     1.463   .     S
C71    O236    1.269   .     A
C71    O583    1.269   1_455 S
C73    C103    1.414   .     A
C73    C390    1.418   .     A
C74    C391    1.412   .     S
C74    C405    1.414   .     S
C75    C692    1.412   .     A
C75    C706    1.414   .     S
C76    C107    1.414   .     A
C76    C694    1.418   .     S
C77    C99     1.414   .     A
C77    C90     1.418   .     S
C78    C91     1.412   .     A
C78    C400    1.414   1_455 S
C79    C92     1.412   .     S
C79    C701    1.414   1_545 S
C80    C102    1.414   .     A
C80    C94     1.418   .     A
C81    C112    1.412   .     A
C81    C695    1.421   .     S
C82    C397    1.473   1_455 S
C82    O237    1.273   .     S
C82    O241    1.273   .     S
C83    C113    1.412   .     A
C83    C696    1.421   .     S
C84    C114    1.412   .     A
C84    C97     1.421   .     A
C85    C116    1.412   .     A
C85    C398    1.421   .     A
C86    C108    1.412   .     A
C86    C95     1.421   .     A
C87    C109    1.412   .     A
C87    C96     1.421   .     A
C88    C110    1.412   .     A
C88    C397    1.421   1_455 S
C89    C111    1.412   .     A
C89    C98     1.421   .     S
C90    C373    1.418   1_455 A
C91    C374    1.412   1_455 S
C92    C675    1.412   1_545 A
C93    O238    1.273   .     A
C93    C98     1.474   .     S
C93    O242    1.273   .     S
C94    C676    1.418   1_545 S
C95    C104    1.474   .     S
C95    C681    1.421   1_545 S
C96    C115    1.474   .     S
C96    C683    1.421   1_545 S
C97    C382    1.473   .     S
C97    C388    1.421   .     S
C98    C385    1.421   1_455 A
C99    C125    1.413   .     A
C99    C117    1.413   .     S
C100   C127    1.414   .     A
C100   C378    1.414   .     S
C100   C418    1.416   .     S
C101   C128    1.414   .     A
C101   C679    1.414   .     S
C101   C719    1.416   .     S
C102   C120    1.413   .     A
C102   C129    1.413   .     A
C103   C417    1.413   .     A
C103   C130    1.413   .     A
C104   O239    1.273   .     S
C104   O243    1.273   .     S
C105   C131    1.414   .     A
C105   C118    1.416   .     A
C105   C374    1.414   1_455 S
C106   C132    1.414   .     A
C106   C119    1.416   .     A
C106   C675    1.414   1_545 S
C107   C133    1.413   .     A
C107   C720    1.413   .     S
C108   C121    1.410   .     A
C108   C134    1.417   .     A
C109   C135    1.417   .     A
C109   C122    1.410   .     A
C110   C136    1.417   .     A
C110   C423    1.410   1_455 S
C111   C424    1.410   1_455 S
C112   C721    1.410   .     S
C113   C722    1.410   .     S
C114   C123    1.410   .     A
C115   O240    1.273   .     S
C115   O245    1.273   .     S
C116   C124    1.410   .     A
C117   C403    1.413   1_455 A
C117   C118    1.408   .     S
C118   C400    1.416   1_455 S
C119   C120    1.408   .     A
C119   C701    1.416   1_545 S
C120   C707    1.413   1_545 S
C121   C712    1.410   1_545 S
C121   C122    1.397   1_556 S
C122   C713    1.410   1_545 S
C122   C121    1.397   1_554 S
C123   C410    1.410   .     S
C123   C124    1.397   1_556 S
C124   C411    1.410   .     S
C124   C123    1.397   1_554 S
C125   I217    2.145   .     S
C125   C131    1.400   .     A
C126   O246    1.275   .     A
C126   O274    1.275   .     A
C127   I225    2.145   .     S
C127   C130    1.400   .     A
C128   I226    2.145   .     S
C128   C133    1.400   .     A
C129   C132    1.400   .     A
C129   I227    2.145   .     S
C130   I228    2.145   .     S
C131   I229    2.145   .     S
C132   I230    2.145   .     S
C133   I231    2.145   .     S
C134   C605    1.407   1_546 S
C134   I832    2.149   1_545 S
C135   C604    1.407   1_544 S
C135   I818    2.149   1_545 S
C136   C307    1.407   1_456 S
C136   I519    2.149   1_455 S
I218   C735    2.149   .     S
I219   C436    2.149   .     S
I220   C303    2.149   .     S
I221   C604    2.149   1_545 S
I222   C605    2.149   1_545 S
I223   C306    2.149   1_455 S
I224   C307    2.149   1_455 S
I232   C734    2.149   .     S
O233   Zn288   1.934   .     S
O233   Zn285   1.934   .     S
O233   Zn296   1.934   .     S
O233   Zn892   1.934   1_545 S
O234   Zn287   1.949   .     S
O234   C649    1.273   .     A
O235   Zn290   1.949   .     S
O235   C360    1.273   .     A
O236   Zn289   1.949   .     S
O237   Zn299   1.949   .     S
O238   Zn298   1.949   .     S
O239   Zn293   1.949   .     S
O240   Zn285   1.949   .     S
O241   Zn295   1.949   .     S
O242   Zn294   1.949   .     S
O243   Zn297   1.949   .     S
O244   Zn293   1.934   .     S
O244   Zn297   1.934   .     S
O244   Zn887   1.934   1_545 S
O244   Zn291   1.934   .     S
O245   Zn296   1.949   .     S
O246   Zn288   1.913   .     S
O247   Zn287   1.913   .     S
O248   Zn290   1.913   .     S
O249   Zn289   1.913   .     S
O250   Zn292   1.913   .     S
O251   Zn291   1.913   .     S
O252   Zn286   1.913   .     S
O253   Zn300   1.913   .     S
O254   Zn287   1.913   .     S
O255   Zn286   1.934   .     S
O255   Zn294   1.934   .     S
O255   Zn590   1.934   1_455 S
O255   Zn298   1.934   .     S
O256   Zn288   1.913   .     S
O257   Zn300   1.913   .     S
O258   Zn286   1.913   .     S
O259   Zn291   1.913   .     S
O260   Zn292   1.913   .     S
O261   Zn289   1.913   .     S
O262   Zn290   1.913   .     S
O263   Zn595   1.913   .     S
O264   Zn294   1.913   .     S
O265   Zn897   1.913   .     S
O266   Zn295   1.934   .     S
O266   Zn299   1.934   .     S
O266   Zn289   1.934   .     S
O266   Zn600   1.934   1_455 S
O267   Zn296   1.913   .     S
O268   Zn299   1.913   .     S
O269   Zn598   1.913   .     S
O270   Zn293   1.913   .     S
O271   Zn885   1.913   .     S
O272   Zn594   1.913   .     S
O273   Zn295   1.913   .     S
O274   Zn285   1.913   .     S
O275   Zn893   1.913   .     S
O276   Zn298   1.913   .     S
O277   Zn292   1.949   .     S
O277   C601    1.269   .     A
O278   Zn599   1.913   .     S
O279   Zn896   1.913   .     S
O280   Zn297   1.913   .     S
O281   Zn291   1.949   .     S
O282   Zn286   1.949   .     S
O283   Zn300   1.949   .     S
O283   C371    1.269   .     S
O284   Zn288   1.949   .     S
Zn285  O871    1.913   1_545 S
Zn287  O844    1.934   .     S
Zn290  O555    1.934   .     S
Zn292  O833    1.934   .     S
Zn293  O875    1.913   1_545 S
Zn294  O572    1.913   1_455 S
Zn295  O563    1.913   1_455 S
Zn296  O879    1.913   1_545 S
Zn297  O865    1.913   1_545 S
Zn298  O569    1.913   1_455 S
Zn299  O578    1.913   1_455 S
Zn300  O566    1.934   .     S
C301   O1177   1.269   1_545 A
C301   C392    1.463   .     S
C301   O584    1.269   .     S
C302   O547    1.275   .     A
C302   C368    1.420   .     S
C302   O575    1.275   .     A
C303   C411    1.417   .     A
C303   C6      1.407   1_554 S
C304   C412    1.417   .     A
C304   C1035   1.407   1_556 S
C304   I1121   2.149   .     S
C305   C413    1.417   .     A
C305   C1034   1.407   1_554 S
C305   I1122   2.149   .     S
C306   C414    1.417   .     A
C306   C3      1.407   1_656 S
C306   I223    2.149   1_655 S
C307   C416    1.417   .     A
C307   C136    1.407   1_654 S
C307   I224    2.149   1_655 S
C308   H481    1.110   .     S
C308   H470    1.101   .     S
C308   C373    1.526   .     S
C308   C309    1.530   .     S
C309   H437    1.110   .     S
C309   H448    1.108   .     S
C309   H459    1.111   .     S
C310   H438    1.111   .     S
C310   H516    1.101   .     S
C310   C311    1.529   .     S
C310   C374    1.526   .     S
C311   H492    1.111   .     S
C311   H514    1.111   .     S
C311   H503    1.107   .     S
C312   C375    1.526   .     S
C312   H443    1.111   .     S
C312   H442    1.101   .     S
C312   C314    1.529   .     S
C313   O572    1.275   .     A
C313   O548    1.275   .     A
C313   C367    1.421   .     S
C314   H440    1.107   .     S
C314   H441    1.111   .     S
C314   H439    1.111   .     S
C315   H449    1.110   .     S
C315   C376    1.526   .     S
C315   H447    1.101   .     S
C315   C316    1.530   .     S
C316   H444    1.110   .     S
C316   H445    1.108   .     S
C316   H446    1.111   .     S
C317   H453    1.101   .     S
C317   C318    1.530   .     S
C317   H454    1.110   .     S
C317   C377    1.526   .     S
C318   H452    1.110   .     S
C318   H450    1.108   .     S
C318   H451    1.111   .     S
C319   C320    1.529   .     S
C319   H460    1.111   .     S
C319   C378    1.526   .     S
C319   H458    1.101   .     S
C320   H455    1.107   .     S
C320   H456    1.111   .     S
C320   H457    1.111   .     S
C321   C322    1.529   .     S
C321   C379    1.526   .     S
C321   H465    1.111   .     S
C321   H464    1.101   .     S
C322   H461    1.111   .     S
C322   H462    1.107   .     S
C322   H463    1.111   .     S
C323   H471    1.110   .     S
C323   H469    1.101   .     S
C323   C380    1.526   .     S
C323   C325    1.530   .     S
C324   O549    1.275   .     A
C324   C366    1.420   .     S
C324   O573    1.275   .     A
C325   H466    1.108   .     S
C325   H468    1.110   .     S
C325   H467    1.111   .     S
C326   H476    1.109   .     S
C326   C327    1.531   .     S
C326   C381    1.529   .     S
C326   H475    1.109   .     S
C327   H474    1.111   .     S
C327   H472    1.108   .     S
C327   H473    1.111   .     S
C328   C383    1.529   .     S
C328   H480    1.109   .     S
C328   H482    1.109   .     S
C328   C329    1.531   .     S
C329   H477    1.108   .     S
C329   H479    1.111   .     S
C329   H478    1.111   .     S
C330   H487    1.109   .     S
C330   C331    1.531   .     S
C330   H486    1.109   .     S
C330   C384    1.529   .     S
C331   H485    1.111   .     S
C331   H484    1.111   .     S
C331   H483    1.108   .     S
C332   H491    1.109   .     S
C332   H493    1.109   .     S
C332   C333    1.531   .     S
C332   C385    1.529   .     S
C333   H489    1.108   .     S
C333   H488    1.111   .     S
C333   H490    1.111   .     S
C334   H498    1.109   .     S
C334   C336    1.531   .     S
C334   C386    1.529   .     S
C334   H497    1.109   .     S
C335   O550    1.275   .     A
C335   C365    1.420   .     S
C335   O579    1.275   .     A
C336   H494    1.111   .     S
C336   H496    1.111   .     S
C336   H495    1.108   .     S
C337   C338    1.531   .     S
C337   H502    1.109   .     S
C337   H504    1.109   .     S
C337   C387    1.529   .     S
C338   H500    1.108   .     S
C338   H499    1.111   .     S
C338   H501    1.111   .     S
C339   H509    1.109   .     S
C339   C340    1.531   .     S
C339   H508    1.109   .     S
C339   C388    1.529   .     S
C340   H505    1.108   .     S
C340   H507    1.111   .     S
C340   H506    1.111   .     S
C341   H513    1.109   .     S
C341   C389    1.529   .     S
C341   H515    1.109   .     S
C341   C342    1.531   .     S
C342   H512    1.111   .     S
C342   H510    1.111   .     S
C342   H511    1.108   .     S
C343   O551    1.275   .     A
C343   C364    1.420   .     S
C343   O580    1.275   .     A
C344   O576    1.275   .     A
C344   C372    1.421   .     S
C344   O552    1.275   .     A
C345   C370    1.420   .     S
C345   O578    1.275   .     A
C345   O553    1.275   .     A
C346   O565    1.275   .     A
C346   C361    1.420   .     S
C346   O554    1.275   .     A
C347   O567    1.275   .     A
C347   O556    1.275   .     A
C347   C359    1.420   .     S
C348   O563    1.275   .     A
C348   O557    1.275   .     A
C348   C358    1.420   .     S
C349   O1134   1.273   1_545 A
C349   C394    1.475   .     S
C349   O581    1.273   .     S
C350   C357    1.420   .     S
C350   O558    1.275   .     A
C350   O564    1.275   .     A
C351   O570    1.275   .     A
C351   O559    1.275   .     A
C351   C356    1.421   .     S
C352   O560    1.275   .     A
C352   C355    1.420   .     S
C352   O571    1.275   .     A
C353   O561    1.275   .     A
C353   C363    1.420   .     S
C353   O568    1.275   .     A
C354   O569    1.275   .     A
C354   C362    1.420   .     S
C354   O562    1.275   .     A
C355   C372    1.197   .     T
C356   C370    1.197   .     T
C357   C369    1.197   .     T
C358   C368    1.197   .     T
C359   C367    1.197   .     T
C360   C390    1.475   .     S
C360   O582    1.273   .     S
C361   C366    1.197   .     T
C362   C365    1.197   .     T
C363   C364    1.197   .     T
C369   C426    1.420   .     S
C371   C391    1.463   .     S
C371   O536    1.269   .     A
C373   C403    1.414   .     A
C373   C90     1.418   1_655 A
C374   C91     1.412   1_655 S
C374   C105    1.414   1_655 S
C375   C992    1.412   .     A
C375   C1006   1.414   .     S
C376   C407    1.414   .     A
C376   C994    1.418   .     S
C377   C399    1.414   .     A
C377   C390    1.418   .     S
C378   C391    1.412   .     A
C379   C392    1.412   .     S
C379   C1001   1.414   1_545 S
C380   C402    1.414   .     A
C380   C394    1.418   .     A
C381   C412    1.412   .     A
C381   C995    1.421   .     S
C382   O537    1.273   .     S
C382   O541    1.273   .     S
C383   C413    1.412   .     A
C383   C996    1.421   .     S
C384   C414    1.412   .     A
C384   C397    1.421   .     A
C385   C416    1.412   .     A
C385   C98     1.421   1_655 A
C386   C408    1.412   .     A
C386   C395    1.421   .     A
C387   C409    1.412   .     A
C387   C396    1.421   .     A
C388   C410    1.412   .     A
C389   C411    1.412   .     A
C389   C398    1.421   .     S
C392   C975    1.412   1_545 A
C393   O538    1.273   .     A
C393   C398    1.474   .     S
C393   O542    1.273   .     S
C394   C976    1.418   1_545 S
C395   C404    1.474   .     S
C395   C981    1.421   1_545 S
C396   C415    1.474   .     S
C396   C983    1.421   1_545 S
C397   C82     1.473   1_655 S
C397   C88     1.421   1_655 S
C399   C425    1.413   .     A
C399   C417    1.413   .     S
C400   C427    1.414   .     A
C400   C78     1.414   1_655 S
C400   C118    1.416   1_655 S
C401   C428    1.414   .     A
C401   C979    1.414   .     S
C401   C1019   1.416   .     S
C402   C420    1.413   .     A
C402   C429    1.413   .     A
C403   C117    1.413   1_655 A
C403   C430    1.413   .     A
C404   O539    1.273   .     S
C404   O543    1.273   .     S
C405   C431    1.414   .     A
C405   C418    1.416   .     A
C406   C432    1.414   .     A
C406   C419    1.416   .     A
C406   C975    1.414   1_545 S
C407   C433    1.413   .     A
C407   C1020   1.413   .     S
C408   C421    1.410   .     A
C408   C434    1.417   .     A
C409   C435    1.417   .     A
C409   C422    1.410   .     A
C410   C436    1.417   .     A
C412   C1021   1.410   .     S
C413   C1022   1.410   .     S
C414   C423    1.410   .     A
C415   O540    1.273   .     S
C415   O545    1.273   .     S
C416   C424    1.410   .     A
C417   C418    1.408   .     S
C419   C420    1.408   .     A
C419   C1001   1.416   1_545 S
C420   C1007   1.413   1_545 S
C421   C1012   1.410   1_545 S
C421   C422    1.397   1_556 S
C422   C1013   1.410   1_545 S
C422   C421    1.397   1_554 S
C423   C110    1.410   1_655 S
C423   C424    1.397   1_556 S
C424   C111    1.410   1_655 S
C424   C423    1.397   1_554 S
C425   I517    2.145   .     S
C425   C431    1.400   .     A
C426   O546    1.275   .     A
C426   O574    1.275   .     A
C427   I525    2.145   .     S
C427   C430    1.400   .     A
C428   I526    2.145   .     S
C428   C433    1.400   .     A
C429   C432    1.400   .     A
C429   I527    2.145   .     S
C430   I528    2.145   .     S
C431   I529    2.145   .     S
C432   I530    2.145   .     S
C433   I531    2.145   .     S
C434   C905    1.407   1_546 S
C434   I1132   2.149   1_545 S
C435   C904    1.407   1_544 S
C435   I1118   2.149   1_545 S
C436   C7      1.407   1_556 S
I518   C1035   2.149   .     S
I519   C136    2.149   1_655 S
I520   C3      2.149   1_655 S
I521   C904    2.149   1_545 S
I522   C905    2.149   1_545 S
I532   C1034   2.149   .     S
O533   Zn588   1.934   .     S
O533   Zn585   1.934   .     S
O533   Zn596   1.934   .     S
O533   Zn1192  1.934   1_545 S
O534   Zn587   1.949   .     S
O534   C949    1.273   .     A
O535   Zn590   1.949   .     S
O535   C60     1.273   1_655 A
O536   Zn589   1.949   .     S
O537   Zn599   1.949   .     S
O538   Zn598   1.949   .     S
O539   Zn593   1.949   .     S
O540   Zn585   1.949   .     S
O541   Zn595   1.949   .     S
O542   Zn594   1.949   .     S
O543   Zn597   1.949   .     S
O544   Zn593   1.934   .     S
O544   Zn597   1.934   .     S
O544   Zn1187  1.934   1_545 S
O544   Zn591   1.934   .     S
O545   Zn596   1.949   .     S
O546   Zn588   1.913   .     S
O547   Zn587   1.913   .     S
O548   Zn590   1.913   .     S
O549   Zn589   1.913   .     S
O550   Zn592   1.913   .     S
O551   Zn591   1.913   .     S
O552   Zn586   1.913   .     S
O553   Zn600   1.913   .     S
O554   Zn587   1.913   .     S
O555   Zn586   1.934   .     S
O555   Zn594   1.934   .     S
O555   Zn598   1.934   .     S
O556   Zn588   1.913   .     S
O557   Zn600   1.913   .     S
O558   Zn586   1.913   .     S
O559   Zn591   1.913   .     S
O560   Zn592   1.913   .     S
O561   Zn589   1.913   .     S
O562   Zn590   1.913   .     S
O563   Zn295   1.913   1_655 S
O564   Zn594   1.913   .     S
O565   Zn1197  1.913   .     S
O566   Zn595   1.934   .     S
O566   Zn599   1.934   .     S
O566   Zn589   1.934   .     S
O567   Zn596   1.913   .     S
O568   Zn599   1.913   .     S
O569   Zn298   1.913   1_655 S
O570   Zn593   1.913   .     S
O571   Zn1185  1.913   .     S
O572   Zn294   1.913   1_655 S
O573   Zn595   1.913   .     S
O574   Zn585   1.913   .     S
O575   Zn1193  1.913   .     S
O576   Zn598   1.913   .     S
O577   Zn592   1.949   .     S
O577   C901    1.269   .     A
O578   Zn299   1.913   1_655 S
O579   Zn1196  1.913   .     S
O580   Zn597   1.913   .     S
O581   Zn591   1.949   .     S
O582   Zn586   1.949   .     S
O583   Zn600   1.949   .     S
O583   C71     1.269   1_655 S
O584   Zn588   1.949   .     S
Zn585  O1171   1.913   1_545 S
Zn587  O1144   1.934   .     S
Zn590  O255    1.934   1_655 S
Zn592  O1133   1.934   .     S
Zn593  O1175   1.913   1_545 S
Zn596  O1179   1.913   1_545 S
Zn597  O1165   1.913   1_545 S
Zn600  O266    1.934   1_655 S
C601   C692    1.463   .     S
C601   O884    1.269   .     S
C602   O847    1.275   .     A
C602   C668    1.420   .     S
C602   O875    1.275   .     A
C603   C711    1.417   .     A
C603   C906    1.407   1_454 S
C603   I1120   2.149   1_455 S
C604   C712    1.417   .     A
C604   C135    1.407   1_566 S
C604   I221    2.149   1_565 S
C605   C713    1.417   .     A
C605   C134    1.407   1_564 S
C605   I222    2.149   1_565 S
C606   C714    1.417   .     A
C606   C903    1.407   1_556 S
C606   I1123   2.149   .     S
C607   C716    1.417   .     A
C607   C1036   1.407   1_554 S
C607   I1124   2.149   .     S
C608   H781    1.110   .     S
C608   H770    1.101   .     S
C608   C673    1.526   .     S
C608   C609    1.530   .     S
C609   H737    1.110   .     S
C609   H748    1.108   .     S
C609   H759    1.111   .     S
C610   H738    1.111   .     S
C610   H816    1.101   .     S
C610   C611    1.529   .     S
C610   C674    1.526   .     S
C611   H792    1.111   .     S
C611   H814    1.111   .     S
C611   H803    1.107   .     S
C612   C675    1.526   .     S
C612   H743    1.111   .     S
C612   H742    1.101   .     S
C612   C614    1.529   .     S
C613   O872    1.275   .     A
C613   O848    1.275   .     A
C613   C667    1.421   .     S
C614   H740    1.107   .     S
C614   H741    1.111   .     S
C614   H739    1.111   .     S
C615   H749    1.110   .     S
C615   C676    1.526   .     S
C615   H747    1.101   .     S
C615   C616    1.530   .     S
C616   H744    1.110   .     S
C616   H745    1.108   .     S
C616   H746    1.111   .     S
C617   H753    1.101   .     S
C617   C618    1.530   .     S
C617   H754    1.110   .     S
C617   C677    1.526   .     S
C618   H752    1.110   .     S
C618   H750    1.108   .     S
C618   H751    1.111   .     S
C619   C620    1.529   .     S
C619   H760    1.111   .     S
C619   C678    1.526   .     S
C619   H758    1.101   .     S
C620   H755    1.107   .     S
C620   H756    1.111   .     S
C620   H757    1.111   .     S
C621   C622    1.529   .     S
C621   C679    1.526   .     S
C621   H765    1.111   .     S
C621   H764    1.101   .     S
C622   H761    1.111   .     S
C622   H762    1.107   .     S
C622   H763    1.111   .     S
C623   H771    1.110   .     S
C623   H769    1.101   .     S
C623   C680    1.526   .     S
C623   C625    1.530   .     S
C624   O849    1.275   .     A
C624   C666    1.420   .     S
C624   O873    1.275   .     A
C625   H766    1.108   .     S
C625   H768    1.110   .     S
C625   H767    1.111   .     S
C626   H776    1.109   .     S
C626   C627    1.531   .     S
C626   C681    1.529   .     S
C626   H775    1.109   .     S
C627   H774    1.111   .     S
C627   H772    1.108   .     S
C627   H773    1.111   .     S
C628   C683    1.529   .     S
C628   H780    1.109   .     S
C628   H782    1.109   .     S
C628   C629    1.531   .     S
C629   H777    1.108   .     S
C629   H779    1.111   .     S
C629   H778    1.111   .     S
C630   H787    1.109   .     S
C630   C631    1.531   .     S
C630   H786    1.109   .     S
C630   C684    1.529   .     S
C631   H785    1.111   .     S
C631   H784    1.111   .     S
C631   H783    1.108   .     S
C632   H791    1.109   .     S
C632   H793    1.109   .     S
C632   C633    1.531   .     S
C632   C685    1.529   .     S
C633   H789    1.108   .     S
C633   H788    1.111   .     S
C633   H790    1.111   .     S
C634   H798    1.109   .     S
C634   C636    1.531   .     S
C634   C686    1.529   .     S
C634   H797    1.109   .     S
C635   O850    1.275   .     A
C635   C665    1.420   .     S
C635   O879    1.275   .     A
C636   H794    1.111   .     S
C636   H796    1.111   .     S
C636   H795    1.108   .     S
C637   C638    1.531   .     S
C637   H802    1.109   .     S
C637   H804    1.109   .     S
C637   C687    1.529   .     S
C638   H800    1.108   .     S
C638   H799    1.111   .     S
C638   H801    1.111   .     S
C639   H809    1.109   .     S
C639   C640    1.531   .     S
C639   H808    1.109   .     S
C639   C688    1.529   .     S
C640   H805    1.108   .     S
C640   H807    1.111   .     S
C640   H806    1.111   .     S
C641   H813    1.109   .     S
C641   C689    1.529   .     S
C641   H815    1.109   .     S
C641   C642    1.531   .     S
C642   H812    1.111   .     S
C642   H810    1.111   .     S
C642   H811    1.108   .     S
C643   O851    1.275   .     A
C643   C664    1.420   .     S
C643   O880    1.275   .     A
C644   O876    1.275   .     A
C644   C672    1.421   .     S
C644   O852    1.275   .     A
C645   C670    1.420   .     S
C645   O878    1.275   .     A
C645   O853    1.275   .     A
C646   O865    1.275   .     A
C646   C661    1.420   .     S
C646   O854    1.275   .     A
C647   O867    1.275   .     A
C647   O856    1.275   .     A
C647   C659    1.420   .     S
C648   O863    1.275   .     A
C648   O857    1.275   .     A
C648   C658    1.420   .     S
C649   C694    1.475   .     S
C649   O881    1.273   .     S
C650   C657    1.420   .     S
C650   O858    1.275   .     A
C650   O864    1.275   .     A
C651   O870    1.275   .     A
C651   O859    1.275   .     A
C651   C656    1.421   .     S
C652   O860    1.275   .     A
C652   C655    1.420   .     S
C652   O871    1.275   .     A
C653   O861    1.275   .     A
C653   C663    1.420   .     S
C653   O868    1.275   .     A
C654   O869    1.275   .     A
C654   C662    1.420   .     S
C654   O862    1.275   .     A
C655   C672    1.197   .     T
C656   C670    1.197   .     T
C657   C669    1.197   .     T
C658   C668    1.197   .     T
C659   C667    1.197   .     T
C660   C690    1.475   .     S
C660   O1135   1.273   1_455 A
C660   O882    1.273   .     S
C661   C666    1.197   .     T
C662   C665    1.197   .     T
C663   C664    1.197   .     T
C669   C726    1.420   .     S
C671   C691    1.463   .     S
C671   O836    1.269   .     A
C671   O1183   1.269   1_455 S
C673   C703    1.414   .     A
C673   C990    1.418   .     A
C674   C991    1.412   .     S
C674   C1005   1.414   .     S
C675   C92     1.412   1_565 A
C675   C106    1.414   1_565 S
C676   C707    1.414   .     A
C676   C94     1.418   1_565 S
C677   C699    1.414   .     A
C677   C690    1.418   .     S
C678   C691    1.412   .     A
C678   C1000   1.414   1_455 S
C679   C692    1.412   .     S
C680   C702    1.414   .     A
C680   C694    1.418   .     A
C681   C712    1.412   .     A
C681   C95     1.421   1_565 S
C682   C997    1.473   1_455 S
C682   O837    1.273   .     S
C682   O841    1.273   .     S
C683   C713    1.412   .     A
C683   C96     1.421   1_565 S
C684   C714    1.412   .     A
C684   C697    1.421   .     A
C685   C716    1.412   .     A
C685   C998    1.421   .     A
C686   C708    1.412   .     A
C686   C695    1.421   .     A
C687   C709    1.412   .     A
C687   C696    1.421   .     A
C688   C710    1.412   .     A
C688   C997    1.421   1_455 S
C689   C711    1.412   .     A
C689   C698    1.421   .     S
C690   C973    1.418   1_455 A
C691   C974    1.412   1_455 S
C693   O838    1.273   .     A
C693   C698    1.474   .     S
C693   O842    1.273   .     S
C695   C704    1.474   .     S
C696   C715    1.474   .     S
C697   C982    1.473   .     S
C697   C988    1.421   .     S
C698   C985    1.421   1_455 A
C699   C725    1.413   .     A
C699   C717    1.413   .     S
C700   C727    1.414   .     A
C700   C978    1.414   .     S
C700   C1018   1.416   .     S
C701   C728    1.414   .     A
C701   C79     1.414   1_565 S
C701   C119    1.416   1_565 S
C702   C720    1.413   .     A
C702   C729    1.413   .     A
C703   C1017   1.413   .     A
C703   C730    1.413   .     A
C704   O839    1.273   .     S
C704   O843    1.273   .     S
C705   C731    1.414   .     A
C705   C718    1.416   .     A
C705   C974    1.414   1_455 S
C706   C732    1.414   .     A
C706   C719    1.416   .     A
C707   C733    1.413   .     A
C707   C120    1.413   1_565 S
C708   C721    1.410   .     A
C708   C734    1.417   .     A
C709   C735    1.417   .     A
C709   C722    1.410   .     A
C710   C736    1.417   .     A
C710   C1023   1.410   1_455 S
C711   C1024   1.410   1_455 S
C712   C121    1.410   1_565 S
C713   C122    1.410   1_565 S
C714   C723    1.410   .     A
C715   O840    1.273   .     S
C715   O845    1.273   .     S
C716   C724    1.410   .     A
C717   C1003   1.413   1_455 A
C717   C718    1.408   .     S
C718   C1000   1.416   1_455 S
C719   C720    1.408   .     A
C721   C722    1.397   1_556 S
C722   C721    1.397   1_554 S
C723   C1010   1.410   .     S
C723   C724    1.397   1_556 S
C724   C1011   1.410   .     S
C724   C723    1.397   1_554 S
C725   I817    2.145   .     S
C725   C731    1.400   .     A
C726   O846    1.275   .     A
C726   O874    1.275   .     A
C727   I825    2.145   .     S
C727   C730    1.400   .     A
C728   I826    2.145   .     S
C728   C733    1.400   .     A
C729   C732    1.400   .     A
C729   I827    2.145   .     S
C730   I828    2.145   .     S
C731   I829    2.145   .     S
C732   I830    2.145   .     S
C733   I831    2.145   .     S
C734   C5      1.407   1_556 S
C735   C4      1.407   1_554 S
C736   C907    1.407   1_456 S
C736   I1119   2.149   1_455 S
I818   C135    2.149   1_565 S
I819   C1036   2.149   .     S
I820   C903    2.149   .     S
I823   C906    2.149   1_455 S
I824   C907    2.149   1_455 S
I832   C134    2.149   1_565 S
O833   Zn888   1.934   .     S
O833   Zn885   1.934   .     S
O833   Zn896   1.934   .     S
O834   Zn887   1.949   .     S
O834   C49     1.273   1_565 A
O835   Zn890   1.949   .     S
O835   C960    1.273   .     A
O836   Zn889   1.949   .     S
O837   Zn899   1.949   .     S
O838   Zn898   1.949   .     S
O839   Zn893   1.949   .     S
O840   Zn885   1.949   .     S
O841   Zn895   1.949   .     S
O842   Zn894   1.949   .     S
O843   Zn897   1.949   .     S
O844   Zn893   1.934   .     S
O844   Zn897   1.934   .     S
O844   Zn891   1.934   .     S
O845   Zn896   1.949   .     S
O846   Zn888   1.913   .     S
O847   Zn887   1.913   .     S
O848   Zn890   1.913   .     S
O849   Zn889   1.913   .     S
O850   Zn892   1.913   .     S
O851   Zn891   1.913   .     S
O852   Zn886   1.913   .     S
O853   Zn900   1.913   .     S
O854   Zn887   1.913   .     S
O855   Zn886   1.934   .     S
O855   Zn894   1.934   .     S
O855   Zn1190  1.934   1_455 S
O855   Zn898   1.934   .     S
O856   Zn888   1.913   .     S
O857   Zn900   1.913   .     S
O858   Zn886   1.913   .     S
O859   Zn891   1.913   .     S
O860   Zn892   1.913   .     S
O861   Zn889   1.913   .     S
O862   Zn890   1.913   .     S
O863   Zn1195  1.913   .     S
O864   Zn894   1.913   .     S
O865   Zn297   1.913   1_565 S
O866   Zn895   1.934   .     S
O866   Zn899   1.934   .     S
O866   Zn889   1.934   .     S
O866   Zn1200  1.934   1_455 S
O867   Zn896   1.913   .     S
O868   Zn899   1.913   .     S
O869   Zn1198  1.913   .     S
O870   Zn893   1.913   .     S
O871   Zn285   1.913   1_565 S
O872   Zn1194  1.913   .     S
O873   Zn895   1.913   .     S
O874   Zn885   1.913   .     S
O875   Zn293   1.913   1_565 S
O876   Zn898   1.913   .     S
O877   Zn892   1.949   .     S
O877   C1      1.269   1_565 A
O878   Zn1199  1.913   .     S
O879   Zn296   1.913   1_565 S
O880   Zn897   1.913   .     S
O881   Zn891   1.949   .     S
O882   Zn886   1.949   .     S
O883   Zn900   1.949   .     S
O883   C971    1.269   .     S
O884   Zn888   1.949   .     S
Zn887  O244    1.934   1_565 S
Zn890  O1155   1.934   .     S
Zn892  O233    1.934   1_565 S
Zn894  O1172   1.913   1_455 S
Zn895  O1163   1.913   1_455 S
Zn898  O1169   1.913   1_455 S
Zn899  O1178   1.913   1_455 S
Zn900  O1166   1.934   .     S
C901   C992    1.463   .     S
C901   O1184   1.269   .     S
C902   O1147   1.275   .     A
C902   C968    1.420   .     S
C902   O1175   1.275   .     A
C903   C1011   1.417   .     A
C903   C606    1.407   1_554 S
C904   C1012   1.417   .     A
C904   C435    1.407   1_566 S
C904   I521    2.149   1_565 S
C905   C1013   1.417   .     A
C905   C434    1.407   1_564 S
C905   I522    2.149   1_565 S
C906   C1014   1.417   .     A
C906   C603    1.407   1_656 S
C906   I823    2.149   1_655 S
C907   C1016   1.417   .     A
C907   C736    1.407   1_654 S
C907   I824    2.149   1_655 S
C908   H1081   1.110   .     S
C908   H1070   1.101   .     S
C908   C973    1.526   .     S
C908   C909    1.530   .     S
C909   H1037   1.110   .     S
C909   H1048   1.108   .     S
C909   H1059   1.111   .     S
C910   H1038   1.111   .     S
C910   H1116   1.101   .     S
C910   C911    1.529   .     S
C910   C974    1.526   .     S
C911   H1092   1.111   .     S
C911   H1114   1.111   .     S
C911   H1103   1.107   .     S
C912   C975    1.526   .     S
C912   H1043   1.111   .     S
C912   H1042   1.101   .     S
C912   C914    1.529   .     S
C913   O1172   1.275   .     A
C913   O1148   1.275   .     A
C913   C967    1.421   .     S
C914   H1040   1.107   .     S
C914   H1041   1.111   .     S
C914   H1039   1.111   .     S
C915   H1049   1.110   .     S
C915   C976    1.526   .     S
C915   H1047   1.101   .     S
C915   C916    1.530   .     S
C916   H1044   1.110   .     S
C916   H1045   1.108   .     S
C916   H1046   1.111   .     S
C917   H1053   1.101   .     S
C917   C918    1.530   .     S
C917   H1054   1.110   .     S
C917   C977    1.526   .     S
C918   H1052   1.110   .     S
C918   H1050   1.108   .     S
C918   H1051   1.111   .     S
C919   C920    1.529   .     S
C919   H1060   1.111   .     S
C919   C978    1.526   .     S
C919   H1058   1.101   .     S
C920   H1055   1.107   .     S
C920   H1056   1.111   .     S
C920   H1057   1.111   .     S
C921   C922    1.529   .     S
C921   C979    1.526   .     S
C921   H1065   1.111   .     S
C921   H1064   1.101   .     S
C922   H1061   1.111   .     S
C922   H1062   1.107   .     S
C922   H1063   1.111   .     S
C923   H1071   1.110   .     S
C923   H1069   1.101   .     S
C923   C980    1.526   .     S
C923   C925    1.530   .     S
C924   O1149   1.275   .     A
C924   C966    1.420   .     S
C924   O1173   1.275   .     A
C925   H1066   1.108   .     S
C925   H1068   1.110   .     S
C925   H1067   1.111   .     S
C926   H1076   1.109   .     S
C926   C927    1.531   .     S
C926   C981    1.529   .     S
C926   H1075   1.109   .     S
C927   H1074   1.111   .     S
C927   H1072   1.108   .     S
C927   H1073   1.111   .     S
C928   C983    1.529   .     S
C928   H1080   1.109   .     S
C928   H1082   1.109   .     S
C928   C929    1.531   .     S
C929   H1077   1.108   .     S
C929   H1079   1.111   .     S
C929   H1078   1.111   .     S
C930   H1087   1.109   .     S
C930   C931    1.531   .     S
C930   H1086   1.109   .     S
C930   C984    1.529   .     S
C931   H1085   1.111   .     S
C931   H1084   1.111   .     S
C931   H1083   1.108   .     S
C932   H1091   1.109   .     S
C932   H1093   1.109   .     S
C932   C933    1.531   .     S
C932   C985    1.529   .     S
C933   H1089   1.108   .     S
C933   H1088   1.111   .     S
C933   H1090   1.111   .     S
C934   H1098   1.109   .     S
C934   C936    1.531   .     S
C934   C986    1.529   .     S
C934   H1097   1.109   .     S
C935   O1150   1.275   .     A
C935   C965    1.420   .     S
C935   O1179   1.275   .     A
C936   H1094   1.111   .     S
C936   H1096   1.111   .     S
C936   H1095   1.108   .     S
C937   C938    1.531   .     S
C937   H1102   1.109   .     S
C937   H1104   1.109   .     S
C937   C987    1.529   .     S
C938   H1100   1.108   .     S
C938   H1099   1.111   .     S
C938   H1101   1.111   .     S
C939   H1109   1.109   .     S
C939   C940    1.531   .     S
C939   H1108   1.109   .     S
C939   C988    1.529   .     S
C940   H1105   1.108   .     S
C940   H1107   1.111   .     S
C940   H1106   1.111   .     S
C941   H1113   1.109   .     S
C941   C989    1.529   .     S
C941   H1115   1.109   .     S
C941   C942    1.531   .     S
C942   H1112   1.111   .     S
C942   H1110   1.111   .     S
C942   H1111   1.108   .     S
C943   O1151   1.275   .     A
C943   C964    1.420   .     S
C943   O1180   1.275   .     A
C944   O1176   1.275   .     A
C944   C972    1.421   .     S
C944   O1152   1.275   .     A
C945   C970    1.420   .     S
C945   O1178   1.275   .     A
C945   O1153   1.275   .     A
C946   O1165   1.275   .     A
C946   C961    1.420   .     S
C946   O1154   1.275   .     A
C947   O1167   1.275   .     A
C947   O1156   1.275   .     A
C947   C959    1.420   .     S
C948   O1163   1.275   .     A
C948   O1157   1.275   .     A
C948   C958    1.420   .     S
C949   C994    1.475   .     S
C949   O1181   1.273   .     S
C950   C957    1.420   .     S
C950   O1158   1.275   .     A
C950   O1164   1.275   .     A
C951   O1170   1.275   .     A
C951   O1159   1.275   .     A
C951   C956    1.421   .     S
C952   O1160   1.275   .     A
C952   C955    1.420   .     S
C952   O1171   1.275   .     A
C953   O1161   1.275   .     A
C953   C963    1.420   .     S
C953   O1168   1.275   .     A
C954   O1169   1.275   .     A
C954   C962    1.420   .     S
C954   O1162   1.275   .     A
C955   C972    1.197   .     T
C956   C970    1.197   .     T
C957   C969    1.197   .     T
C958   C968    1.197   .     T
C959   C967    1.197   .     T
C960   C990    1.475   .     S
C960   O1182   1.273   .     S
C961   C966    1.197   .     T
C962   C965    1.197   .     T
C963   C964    1.197   .     T
C969   C1026   1.420   .     S
C971   C991    1.463   .     S
C971   O1136   1.269   .     A
C973   C1003   1.414   .     A
C973   C690    1.418   1_655 A
C974   C691    1.412   1_655 S
C974   C705    1.414   1_655 S
C975   C392    1.412   1_565 A
C975   C406    1.414   1_565 S
C976   C1007   1.414   .     A
C976   C394    1.418   1_565 S
C977   C999    1.414   .     A
C977   C990    1.418   .     S
C978   C991    1.412   .     A
C979   C992    1.412   .     S
C980   C1002   1.414   .     A
C980   C994    1.418   .     A
C981   C1012   1.412   .     A
C981   C395    1.421   1_565 S
C982   O1137   1.273   .     S
C982   O1141   1.273   .     S
C983   C1013   1.412   .     A
C983   C396    1.421   1_565 S
C984   C1014   1.412   .     A
C984   C997    1.421   .     A
C985   C1016   1.412   .     A
C985   C698    1.421   1_655 A
C986   C1008   1.412   .     A
C986   C995    1.421   .     A
C987   C1009   1.412   .     A
C987   C996    1.421   .     A
C988   C1010   1.412   .     A
C989   C1011   1.412   .     A
C989   C998    1.421   .     S
C993   O1138   1.273   .     A
C993   C998    1.474   .     S
C993   O1142   1.273   .     S
C995   C1004   1.474   .     S
C996   C1015   1.474   .     S
C997   C682    1.473   1_655 S
C997   C688    1.421   1_655 S
C999   C1025   1.413   .     A
C999   C1017   1.413   .     S
C1000  C1027   1.414   .     A
C1000  C678    1.414   1_655 S
C1000  C718    1.416   1_655 S
C1001  C1028   1.414   .     A
C1001  C379    1.414   1_565 S
C1001  C419    1.416   1_565 S
C1002  C1020   1.413   .     A
C1002  C1029   1.413   .     A
C1003  C717    1.413   1_655 A
C1003  C1030   1.413   .     A
C1004  O1139   1.273   .     S
C1004  O1143   1.273   .     S
C1005  C1031   1.414   .     A
C1005  C1018   1.416   .     A
C1006  C1032   1.414   .     A
C1006  C1019   1.416   .     A
C1007  C1033   1.413   .     A
C1007  C420    1.413   1_565 S
C1008  C1021   1.410   .     A
C1008  C1034   1.417   .     A
C1009  C1035   1.417   .     A
C1009  C1022   1.410   .     A
C1010  C1036   1.417   .     A
C1012  C421    1.410   1_565 S
C1013  C422    1.410   1_565 S
C1014  C1023   1.410   .     A
C1015  O1140   1.273   .     S
C1015  O1145   1.273   .     S
C1016  C1024   1.410   .     A
C1017  C1018   1.408   .     S
C1019  C1020   1.408   .     A
C1021  C1022   1.397   1_556 S
C1022  C1021   1.397   1_554 S
C1023  C710    1.410   1_655 S
C1023  C1024   1.397   1_556 S
C1024  C711    1.410   1_655 S
C1024  C1023   1.397   1_554 S
C1025  I1117   2.145   .     S
C1025  C1031   1.400   .     A
C1026  O1146   1.275   .     A
C1026  O1174   1.275   .     A
C1027  I1125   2.145   .     S
C1027  C1030   1.400   .     A
C1028  I1126   2.145   .     S
C1028  C1033   1.400   .     A
C1029  C1032   1.400   .     A
C1029  I1127   2.145   .     S
C1030  I1128   2.145   .     S
C1031  I1129   2.145   .     S
C1032  I1130   2.145   .     S
C1033  I1131   2.145   .     S
C1034  C305    1.407   1_556 S
C1035  C304    1.407   1_554 S
C1036  C607    1.407   1_556 S
I1118  C435    2.149   1_565 S
I1119  C736    2.149   1_655 S
I1120  C603    2.149   1_655 S
I1132  C434    2.149   1_565 S
O1133  Zn1188  1.934   .     S
O1133  Zn1185  1.934   .     S
O1133  Zn1196  1.934   .     S
O1134  Zn1187  1.949   .     S
O1134  C349    1.273   1_565 A
O1135  Zn1190  1.949   .     S
O1135  C660    1.273   1_655 A
O1136  Zn1189  1.949   .     S
O1137  Zn1199  1.949   .     S
O1138  Zn1198  1.949   .     S
O1139  Zn1193  1.949   .     S
O1140  Zn1185  1.949   .     S
O1141  Zn1195  1.949   .     S
O1142  Zn1194  1.949   .     S
O1143  Zn1197  1.949   .     S
O1144  Zn1193  1.934   .     S
O1144  Zn1197  1.934   .     S
O1144  Zn1191  1.934   .     S
O1145  Zn1196  1.949   .     S
O1146  Zn1188  1.913   .     S
O1147  Zn1187  1.913   .     S
O1148  Zn1190  1.913   .     S
O1149  Zn1189  1.913   .     S
O1150  Zn1192  1.913   .     S
O1151  Zn1191  1.913   .     S
O1152  Zn1186  1.913   .     S
O1153  Zn1200  1.913   .     S
O1154  Zn1187  1.913   .     S
O1155  Zn1186  1.934   .     S
O1155  Zn1194  1.934   .     S
O1155  Zn1198  1.934   .     S
O1156  Zn1188  1.913   .     S
O1157  Zn1200  1.913   .     S
O1158  Zn1186  1.913   .     S
O1159  Zn1191  1.913   .     S
O1160  Zn1192  1.913   .     S
O1161  Zn1189  1.913   .     S
O1162  Zn1190  1.913   .     S
O1163  Zn895   1.913   1_655 S
O1164  Zn1194  1.913   .     S
O1165  Zn597   1.913   1_565 S
O1166  Zn1195  1.934   .     S
O1166  Zn1199  1.934   .     S
O1166  Zn1189  1.934   .     S
O1167  Zn1196  1.913   .     S
O1168  Zn1199  1.913   .     S
O1169  Zn898   1.913   1_655 S
O1170  Zn1193  1.913   .     S
O1171  Zn585   1.913   1_565 S
O1172  Zn894   1.913   1_655 S
O1173  Zn1195  1.913   .     S
O1174  Zn1185  1.913   .     S
O1175  Zn593   1.913   1_565 S
O1176  Zn1198  1.913   .     S
O1177  Zn1192  1.949   .     S
O1177  C301    1.269   1_565 A
O1178  Zn899   1.913   1_655 S
O1179  Zn596   1.913   1_565 S
O1180  Zn1197  1.913   .     S
O1181  Zn1191  1.949   .     S
O1182  Zn1186  1.949   .     S
O1183  Zn1200  1.949   .     S
O1183  C671    1.269   1_655 S
O1184  Zn1188  1.949   .     S
Zn1187 O544    1.934   1_565 S
Zn1190 O855    1.934   1_655 S
Zn1192 O533    1.934   1_565 S
Zn1200 O866    1.934   1_655 S
