data_str_m2_o10_o18_pcu_sym.154
_audit_creation_date              2020-01-03
_audit_creation_method            'Materials Studio'
_symmetry_space_group_name_H-M    'P1'
_symmetry_Int_Tables_number       1
_symmetry_cell_setting            triclinic
loop_
_symmetry_equiv_pos_as_xyz
  x,y,z
_cell_length_a                    22.2993
_cell_length_b                    26.3282
_cell_length_c                    31.6028
_cell_angle_alpha                 93.4804
_cell_angle_beta                  74.9220
_cell_angle_gamma                 101.8422
loop_
_atom_site_label
_atom_site_type_symbol
_atom_site_fract_x
_atom_site_fract_y
_atom_site_fract_z
_atom_site_U_iso_or_equiv
_atom_site_adp_type
_atom_site_occupancy
C1     C     0.18132   0.26625   0.25006   0.00000  Uiso   1.00
C2     C     0.15201   0.06709   0.24993   0.00000  Uiso   1.00
C3     C     0.09105   0.13773   0.04095   0.00000  Uiso   1.00
C4     C     0.24231   0.19543   0.45901   0.00000  Uiso   1.00
C5     C     0.05141   0.11939   0.01366   0.00000  Uiso   1.00
C6     C     0.28196   0.21373   0.48629   0.00000  Uiso   1.00
C7     C     0.19071   0.32050   0.24208   0.00000  Uiso   1.00
C8     C     0.14262   0.01284   0.25789   0.00000  Uiso   1.00
C9     C     0.12788   0.16279   0.33313   0.00000  Uiso   1.00
C10    C     0.20546   0.17053   0.16686   0.00000  Uiso   1.00
C11    C     0.10389   0.15543   0.38064   0.00000  Uiso   1.00
C12    C     0.22945   0.17783   0.11934   0.00000  Uiso   1.00
C13    C     0.02859   0.11141   0.44303   0.00000  Uiso   1.00
C14    C     0.30482   0.22169   0.05690   0.00000  Uiso   1.00
C15    C     0.04593   0.12296   0.39862   0.00000  Uiso   1.00
C16    C     0.28747   0.21019   0.10132   0.00000  Uiso   1.00
C17    C     0.14333   0.17676   0.40767   0.00000  Uiso   1.00
C18    C     0.18999   0.15649   0.09233   0.00000  Uiso   1.00
C19    C     0.13168   0.15953   0.45095   0.00000  Uiso   1.00
C20    C     0.20167   0.17365   0.04902   0.00000  Uiso   1.00
C21    C     0.07101   0.12925   0.46916   0.00000  Uiso   1.00
C22    C     0.26237   0.20388   0.03080   0.00000  Uiso   1.00
C23    C     0.17698   0.17247   0.47695   0.00000  Uiso   1.00
C24    C     0.15637   0.16071   0.02302   0.00000  Uiso   1.00
Cu25   Cu    0.10737   0.16108   0.24516   0.00000  Uiso   1.00
Cu26   Cu    0.22596   0.17225   0.25483   0.00000  Uiso   1.00
H27    H     0.00295   0.09979   0.02778   0.00000  Uiso   1.00
H28    H     0.33044   0.23330   0.47216   0.00000  Uiso   1.00
H29    H     0.15177   0.12522   0.10588   0.00000  Uiso   1.00
H30    H     0.18153   0.20807   0.39415   0.00000  Uiso   1.00
H31    H     0.31962   0.22605   0.12133   0.00000  Uiso   1.00
H32    H     0.01384   0.10707   0.37858   0.00000  Uiso   1.00
H33    H     0.31563   0.08793   0.45687   0.00000  Uiso   1.00
H34    H     0.01781   0.24511   0.04305   0.00000  Uiso   1.00
H35    H     0.33129   0.19875   0.28786   0.00000  Uiso   1.00
H36    H     0.00201   0.13452   0.21218   0.00000  Uiso   1.00
N37    N     0.31506   0.18068   0.26212   0.00000  Uiso   1.00
N38    N     0.01827   0.15265   0.23788   0.00000  Uiso   1.00
O39    O     0.12815   0.23809   0.24686   0.00000  Uiso   1.00
O40    O     0.20518   0.09524   0.25314   0.00000  Uiso   1.00
O41    O     0.22829   0.24753   0.25502   0.00000  Uiso   1.00
O42    O     0.10504   0.08580   0.24497   0.00000  Uiso   1.00
O43    O     0.08851   0.15930   0.30854   0.00000  Uiso   1.00
O44    O     0.24482   0.17403   0.19145   0.00000  Uiso   1.00
O45    O     0.18866   0.16874   0.31671   0.00000  Uiso   1.00
O46    O     0.14468   0.16460   0.18329   0.00000  Uiso   1.00
C47    C     0.05934   0.13597   0.08705   0.00000  Uiso   1.00
N48    N     0.03356   0.13428   0.12394   0.00000  Uiso   1.00
C49    C     0.27400   0.19721   0.41290   0.00000  Uiso   1.00
N50    N     0.29977   0.19893   0.37601   0.00000  Uiso   1.00
S51    S     0.26428   0.01390   0.20515   0.00000  Uiso   1.00
O52    O     0.25613   0.05224   0.17475   0.00000  Uiso   1.00
O53    O     0.30907   0.04040   0.23152   0.00000  Uiso   1.00
O54    O     0.29523   0.29975   0.17471   0.00000  Uiso   1.00
H55    H     0.33255   0.29671   0.18513   0.00000  Uiso   1.00
S56    S     0.06890   0.31936   0.29461   0.00000  Uiso   1.00
O57    O     0.02469   0.29244   0.26803   0.00000  Uiso   1.00
O58    O     0.07728   0.28166   0.32547   0.00000  Uiso   1.00
O59    O     0.03700   0.03355   0.32413   0.00000  Uiso   1.00
H60    H     0.32713   0.01637   0.34001   0.00000  Uiso   1.00
C61    C     0.51466   0.26625   0.25006   0.00000  Uiso   1.00
C62    C     0.48534   0.06709   0.24993   0.00000  Uiso   1.00
C63    C     0.42438   0.13773   0.04095   0.00000  Uiso   1.00
C64    C     0.57564   0.19543   0.45901   0.00000  Uiso   1.00
C65    C     0.38475   0.11939   0.01366   0.00000  Uiso   1.00
C66    C     0.61530   0.21373   0.48629   0.00000  Uiso   1.00
C67    C     0.52404   0.32050   0.24208   0.00000  Uiso   1.00
C68    C     0.47595   0.01284   0.25789   0.00000  Uiso   1.00
C69    C     0.46121   0.16279   0.33313   0.00000  Uiso   1.00
C70    C     0.53879   0.17053   0.16686   0.00000  Uiso   1.00
C71    C     0.43722   0.15543   0.38064   0.00000  Uiso   1.00
C72    C     0.56279   0.17783   0.11934   0.00000  Uiso   1.00
C73    C     0.36192   0.11141   0.44303   0.00000  Uiso   1.00
C74    C     0.63815   0.22169   0.05690   0.00000  Uiso   1.00
C75    C     0.37927   0.12296   0.39862   0.00000  Uiso   1.00
C76    C     0.62080   0.21019   0.10132   0.00000  Uiso   1.00
C77    C     0.47667   0.17676   0.40767   0.00000  Uiso   1.00
C78    C     0.52333   0.15649   0.09233   0.00000  Uiso   1.00
C79    C     0.46502   0.15953   0.45095   0.00000  Uiso   1.00
C80    C     0.53500   0.17365   0.04902   0.00000  Uiso   1.00
C81    C     0.40434   0.12925   0.46916   0.00000  Uiso   1.00
C82    C     0.59570   0.20388   0.03080   0.00000  Uiso   1.00
C83    C     0.51031   0.17247   0.47695   0.00000  Uiso   1.00
C84    C     0.48971   0.16071   0.02302   0.00000  Uiso   1.00
Cu85   Cu    0.44071   0.16108   0.24516   0.00000  Uiso   1.00
Cu86   Cu    0.55929   0.17225   0.25483   0.00000  Uiso   1.00
H87    H     0.33628   0.09979   0.02778   0.00000  Uiso   1.00
H88    H     0.66377   0.23330   0.47216   0.00000  Uiso   1.00
H89    H     0.48511   0.12522   0.10588   0.00000  Uiso   1.00
H90    H     0.51486   0.20807   0.39415   0.00000  Uiso   1.00
H91    H     0.65295   0.22605   0.12133   0.00000  Uiso   1.00
H92    H     0.34718   0.10707   0.37858   0.00000  Uiso   1.00
H93    H     0.64896   0.08793   0.45687   0.00000  Uiso   1.00
H94    H     0.35115   0.24511   0.04305   0.00000  Uiso   1.00
H95    H     0.66462   0.19875   0.28786   0.00000  Uiso   1.00
H96    H     0.33534   0.13452   0.21218   0.00000  Uiso   1.00
N97    N     0.64839   0.18068   0.26212   0.00000  Uiso   1.00
N98    N     0.35161   0.15265   0.23788   0.00000  Uiso   1.00
O99    O     0.46148   0.23809   0.24686   0.00000  Uiso   1.00
O100   O     0.53852   0.09524   0.25314   0.00000  Uiso   1.00
O101   O     0.56163   0.24753   0.25502   0.00000  Uiso   1.00
O102   O     0.43837   0.08580   0.24497   0.00000  Uiso   1.00
O103   O     0.42185   0.15930   0.30854   0.00000  Uiso   1.00
O104   O     0.57815   0.17403   0.19145   0.00000  Uiso   1.00
O105   O     0.52199   0.16874   0.31671   0.00000  Uiso   1.00
O106   O     0.47801   0.16460   0.18329   0.00000  Uiso   1.00
C107   C     0.39267   0.13597   0.08705   0.00000  Uiso   1.00
N108   N     0.36689   0.13428   0.12394   0.00000  Uiso   1.00
C109   C     0.60733   0.19721   0.41290   0.00000  Uiso   1.00
N110   N     0.63311   0.19893   0.37601   0.00000  Uiso   1.00
S111   S     0.59762   0.01390   0.20515   0.00000  Uiso   1.00
O112   O     0.58946   0.05224   0.17475   0.00000  Uiso   1.00
O113   O     0.64240   0.04040   0.23152   0.00000  Uiso   1.00
O114   O     0.62856   0.29975   0.17471   0.00000  Uiso   1.00
H115   H     0.66588   0.29671   0.18513   0.00000  Uiso   1.00
S116   S     0.40223   0.31936   0.29461   0.00000  Uiso   1.00
O117   O     0.35802   0.29244   0.26803   0.00000  Uiso   1.00
O118   O     0.41062   0.28166   0.32547   0.00000  Uiso   1.00
O119   O     0.37033   0.03355   0.32413   0.00000  Uiso   1.00
H120   H     0.66047   0.01637   0.34001   0.00000  Uiso   1.00
C121   C     0.84799   0.26625   0.25006   0.00000  Uiso   1.00
C122   C     0.81867   0.06709   0.24993   0.00000  Uiso   1.00
C123   C     0.75771   0.13773   0.04095   0.00000  Uiso   1.00
C124   C     0.90898   0.19543   0.45901   0.00000  Uiso   1.00
C125   C     0.71808   0.11939   0.01366   0.00000  Uiso   1.00
C126   C     0.94863   0.21373   0.48629   0.00000  Uiso   1.00
C127   C     0.85737   0.32050   0.24208   0.00000  Uiso   1.00
C128   C     0.80928   0.01284   0.25789   0.00000  Uiso   1.00
C129   C     0.79454   0.16279   0.33313   0.00000  Uiso   1.00
C130   C     0.87213   0.17053   0.16686   0.00000  Uiso   1.00
C131   C     0.77056   0.15543   0.38064   0.00000  Uiso   1.00
C132   C     0.89612   0.17783   0.11934   0.00000  Uiso   1.00
C133   C     0.69526   0.11141   0.44303   0.00000  Uiso   1.00
C134   C     0.97148   0.22169   0.05690   0.00000  Uiso   1.00
C135   C     0.71260   0.12296   0.39862   0.00000  Uiso   1.00
C136   C     0.95414   0.21019   0.10132   0.00000  Uiso   1.00
C137   C     0.81000   0.17676   0.40767   0.00000  Uiso   1.00
C138   C     0.85666   0.15649   0.09233   0.00000  Uiso   1.00
C139   C     0.79835   0.15953   0.45095   0.00000  Uiso   1.00
C140   C     0.86834   0.17365   0.04902   0.00000  Uiso   1.00
C141   C     0.73768   0.12925   0.46916   0.00000  Uiso   1.00
C142   C     0.92903   0.20388   0.03080   0.00000  Uiso   1.00
C143   C     0.84365   0.17247   0.47695   0.00000  Uiso   1.00
C144   C     0.82304   0.16071   0.02302   0.00000  Uiso   1.00
Cu145  Cu    0.77404   0.16108   0.24516   0.00000  Uiso   1.00
Cu146  Cu    0.89263   0.17225   0.25483   0.00000  Uiso   1.00
H147   H     0.66962   0.09979   0.02778   0.00000  Uiso   1.00
H148   H     0.99710   0.23330   0.47216   0.00000  Uiso   1.00
H149   H     0.81844   0.12522   0.10588   0.00000  Uiso   1.00
H150   H     0.84819   0.20807   0.39415   0.00000  Uiso   1.00
H151   H     0.98628   0.22605   0.12133   0.00000  Uiso   1.00
H152   H     0.68051   0.10707   0.37858   0.00000  Uiso   1.00
H153   H     0.98229   0.08793   0.45687   0.00000  Uiso   1.00
H154   H     0.68448   0.24511   0.04305   0.00000  Uiso   1.00
H155   H     0.99795   0.19875   0.28786   0.00000  Uiso   1.00
H156   H     0.66868   0.13452   0.21218   0.00000  Uiso   1.00
N157   N     0.98173   0.18068   0.26212   0.00000  Uiso   1.00
N158   N     0.68494   0.15265   0.23788   0.00000  Uiso   1.00
O159   O     0.79482   0.23809   0.24686   0.00000  Uiso   1.00
O160   O     0.87185   0.09524   0.25314   0.00000  Uiso   1.00
O161   O     0.89496   0.24753   0.25502   0.00000  Uiso   1.00
O162   O     0.77171   0.08580   0.24497   0.00000  Uiso   1.00
O163   O     0.75518   0.15930   0.30854   0.00000  Uiso   1.00
O164   O     0.91149   0.17403   0.19145   0.00000  Uiso   1.00
O165   O     0.85532   0.16874   0.31671   0.00000  Uiso   1.00
O166   O     0.81134   0.16460   0.18329   0.00000  Uiso   1.00
C167   C     0.72601   0.13597   0.08705   0.00000  Uiso   1.00
N168   N     0.70022   0.13428   0.12394   0.00000  Uiso   1.00
C169   C     0.94066   0.19721   0.41290   0.00000  Uiso   1.00
N170   N     0.96644   0.19893   0.37601   0.00000  Uiso   1.00
S171   S     0.93095   0.01390   0.20515   0.00000  Uiso   1.00
O172   O     0.92279   0.05224   0.17475   0.00000  Uiso   1.00
O173   O     0.97574   0.04040   0.23152   0.00000  Uiso   1.00
O174   O     0.96189   0.29975   0.17471   0.00000  Uiso   1.00
H175   H     0.99922   0.29671   0.18513   0.00000  Uiso   1.00
S176   S     0.73556   0.31936   0.29461   0.00000  Uiso   1.00
O177   O     0.69135   0.29244   0.26803   0.00000  Uiso   1.00
O178   O     0.74395   0.28166   0.32547   0.00000  Uiso   1.00
O179   O     0.70367   0.03355   0.32413   0.00000  Uiso   1.00
H180   H     0.99380   0.01637   0.34001   0.00000  Uiso   1.00
C181   C     0.18132   0.59958   0.25006   0.00000  Uiso   1.00
C182   C     0.15201   0.40042   0.24993   0.00000  Uiso   1.00
C183   C     0.09105   0.47106   0.04095   0.00000  Uiso   1.00
C184   C     0.24231   0.52876   0.45901   0.00000  Uiso   1.00
C185   C     0.05141   0.45272   0.01366   0.00000  Uiso   1.00
C186   C     0.28196   0.54706   0.48629   0.00000  Uiso   1.00
C187   C     0.19071   0.65384   0.24208   0.00000  Uiso   1.00
C188   C     0.14262   0.34617   0.25789   0.00000  Uiso   1.00
C189   C     0.12788   0.49612   0.33313   0.00000  Uiso   1.00
C190   C     0.20546   0.50387   0.16686   0.00000  Uiso   1.00
C191   C     0.10389   0.48876   0.38064   0.00000  Uiso   1.00
C192   C     0.22945   0.51116   0.11934   0.00000  Uiso   1.00
C193   C     0.02859   0.44474   0.44303   0.00000  Uiso   1.00
C194   C     0.30482   0.55502   0.05690   0.00000  Uiso   1.00
C195   C     0.04593   0.45630   0.39862   0.00000  Uiso   1.00
C196   C     0.28747   0.54352   0.10132   0.00000  Uiso   1.00
C197   C     0.14333   0.51009   0.40767   0.00000  Uiso   1.00
C198   C     0.18999   0.48982   0.09233   0.00000  Uiso   1.00
C199   C     0.13168   0.49286   0.45095   0.00000  Uiso   1.00
C200   C     0.20167   0.50699   0.04902   0.00000  Uiso   1.00
C201   C     0.07101   0.46259   0.46916   0.00000  Uiso   1.00
C202   C     0.26237   0.53721   0.03080   0.00000  Uiso   1.00
C203   C     0.17698   0.50580   0.47695   0.00000  Uiso   1.00
C204   C     0.15637   0.49404   0.02302   0.00000  Uiso   1.00
Cu205  Cu    0.10737   0.49441   0.24516   0.00000  Uiso   1.00
Cu206  Cu    0.22596   0.50559   0.25483   0.00000  Uiso   1.00
H207   H     0.00295   0.43312   0.02778   0.00000  Uiso   1.00
H208   H     0.33044   0.56663   0.47216   0.00000  Uiso   1.00
H209   H     0.15177   0.45855   0.10588   0.00000  Uiso   1.00
H210   H     0.18153   0.54140   0.39415   0.00000  Uiso   1.00
H211   H     0.31962   0.55939   0.12133   0.00000  Uiso   1.00
H212   H     0.01384   0.44041   0.37858   0.00000  Uiso   1.00
H213   H     0.31563   0.42126   0.45687   0.00000  Uiso   1.00
H214   H     0.01781   0.57844   0.04305   0.00000  Uiso   1.00
H215   H     0.33129   0.53209   0.28786   0.00000  Uiso   1.00
H216   H     0.00201   0.46785   0.21218   0.00000  Uiso   1.00
N217   N     0.31506   0.51401   0.26212   0.00000  Uiso   1.00
N218   N     0.01827   0.48599   0.23788   0.00000  Uiso   1.00
O219   O     0.12815   0.57142   0.24686   0.00000  Uiso   1.00
O220   O     0.20518   0.42858   0.25314   0.00000  Uiso   1.00
O221   O     0.22829   0.58086   0.25502   0.00000  Uiso   1.00
O222   O     0.10504   0.41914   0.24497   0.00000  Uiso   1.00
O223   O     0.08851   0.49263   0.30854   0.00000  Uiso   1.00
O224   O     0.24482   0.50737   0.19145   0.00000  Uiso   1.00
O225   O     0.18866   0.50207   0.31671   0.00000  Uiso   1.00
O226   O     0.14468   0.49793   0.18329   0.00000  Uiso   1.00
C227   C     0.05934   0.46931   0.08705   0.00000  Uiso   1.00
N228   N     0.03356   0.46761   0.12394   0.00000  Uiso   1.00
C229   C     0.27400   0.53055   0.41290   0.00000  Uiso   1.00
N230   N     0.29977   0.53227   0.37601   0.00000  Uiso   1.00
S231   S     0.26428   0.34723   0.20515   0.00000  Uiso   1.00
O232   O     0.25613   0.38558   0.17475   0.00000  Uiso   1.00
O233   O     0.30907   0.37373   0.23152   0.00000  Uiso   1.00
O234   O     0.29523   0.63308   0.17471   0.00000  Uiso   1.00
H235   H     0.33255   0.63004   0.18513   0.00000  Uiso   1.00
S236   S     0.06890   0.65269   0.29461   0.00000  Uiso   1.00
O237   O     0.02469   0.62578   0.26803   0.00000  Uiso   1.00
O238   O     0.07728   0.61499   0.32547   0.00000  Uiso   1.00
O239   O     0.03700   0.36688   0.32413   0.00000  Uiso   1.00
H240   H     0.32713   0.34971   0.34001   0.00000  Uiso   1.00
C241   C     0.51466   0.59958   0.25006   0.00000  Uiso   1.00
C242   C     0.48534   0.40042   0.24993   0.00000  Uiso   1.00
C243   C     0.42438   0.47106   0.04095   0.00000  Uiso   1.00
C244   C     0.57564   0.52876   0.45901   0.00000  Uiso   1.00
C245   C     0.38475   0.45272   0.01366   0.00000  Uiso   1.00
C246   C     0.61530   0.54706   0.48629   0.00000  Uiso   1.00
C247   C     0.52404   0.65384   0.24208   0.00000  Uiso   1.00
C248   C     0.47595   0.34617   0.25789   0.00000  Uiso   1.00
C249   C     0.46121   0.49612   0.33313   0.00000  Uiso   1.00
C250   C     0.53879   0.50387   0.16686   0.00000  Uiso   1.00
C251   C     0.43722   0.48876   0.38064   0.00000  Uiso   1.00
C252   C     0.56279   0.51116   0.11934   0.00000  Uiso   1.00
C253   C     0.36192   0.44474   0.44303   0.00000  Uiso   1.00
C254   C     0.63815   0.55502   0.05690   0.00000  Uiso   1.00
C255   C     0.37927   0.45630   0.39862   0.00000  Uiso   1.00
C256   C     0.62080   0.54352   0.10132   0.00000  Uiso   1.00
C257   C     0.47667   0.51009   0.40767   0.00000  Uiso   1.00
C258   C     0.52333   0.48982   0.09233   0.00000  Uiso   1.00
C259   C     0.46502   0.49286   0.45095   0.00000  Uiso   1.00
C260   C     0.53500   0.50699   0.04902   0.00000  Uiso   1.00
C261   C     0.40434   0.46259   0.46916   0.00000  Uiso   1.00
C262   C     0.59570   0.53721   0.03080   0.00000  Uiso   1.00
C263   C     0.51031   0.50580   0.47695   0.00000  Uiso   1.00
C264   C     0.48971   0.49404   0.02302   0.00000  Uiso   1.00
Cu265  Cu    0.44071   0.49441   0.24516   0.00000  Uiso   1.00
Cu266  Cu    0.55929   0.50559   0.25483   0.00000  Uiso   1.00
H267   H     0.33628   0.43312   0.02778   0.00000  Uiso   1.00
H268   H     0.66377   0.56663   0.47216   0.00000  Uiso   1.00
H269   H     0.48511   0.45855   0.10588   0.00000  Uiso   1.00
H270   H     0.51486   0.54140   0.39415   0.00000  Uiso   1.00
H271   H     0.65295   0.55939   0.12133   0.00000  Uiso   1.00
H272   H     0.34718   0.44041   0.37858   0.00000  Uiso   1.00
H273   H     0.64896   0.42126   0.45687   0.00000  Uiso   1.00
H274   H     0.35115   0.57844   0.04305   0.00000  Uiso   1.00
H275   H     0.66462   0.53209   0.28786   0.00000  Uiso   1.00
H276   H     0.33534   0.46785   0.21218   0.00000  Uiso   1.00
N277   N     0.64839   0.51401   0.26212   0.00000  Uiso   1.00
N278   N     0.35161   0.48599   0.23788   0.00000  Uiso   1.00
O279   O     0.46148   0.57142   0.24686   0.00000  Uiso   1.00
O280   O     0.53852   0.42858   0.25314   0.00000  Uiso   1.00
O281   O     0.56163   0.58086   0.25502   0.00000  Uiso   1.00
O282   O     0.43837   0.41914   0.24497   0.00000  Uiso   1.00
O283   O     0.42185   0.49263   0.30854   0.00000  Uiso   1.00
O284   O     0.57815   0.50737   0.19145   0.00000  Uiso   1.00
O285   O     0.52199   0.50207   0.31671   0.00000  Uiso   1.00
O286   O     0.47801   0.49793   0.18329   0.00000  Uiso   1.00
C287   C     0.39267   0.46931   0.08705   0.00000  Uiso   1.00
N288   N     0.36689   0.46761   0.12394   0.00000  Uiso   1.00
C289   C     0.60733   0.53055   0.41290   0.00000  Uiso   1.00
N290   N     0.63311   0.53227   0.37601   0.00000  Uiso   1.00
S291   S     0.59762   0.34723   0.20515   0.00000  Uiso   1.00
O292   O     0.58946   0.38558   0.17475   0.00000  Uiso   1.00
O293   O     0.64240   0.37373   0.23152   0.00000  Uiso   1.00
O294   O     0.62856   0.63308   0.17471   0.00000  Uiso   1.00
H295   H     0.66588   0.63004   0.18513   0.00000  Uiso   1.00
S296   S     0.40223   0.65269   0.29461   0.00000  Uiso   1.00
O297   O     0.35802   0.62578   0.26803   0.00000  Uiso   1.00
O298   O     0.41062   0.61499   0.32547   0.00000  Uiso   1.00
O299   O     0.37033   0.36688   0.32413   0.00000  Uiso   1.00
H300   H     0.66047   0.34971   0.34001   0.00000  Uiso   1.00
C301   C     0.84799   0.59958   0.25006   0.00000  Uiso   1.00
C302   C     0.81867   0.40042   0.24993   0.00000  Uiso   1.00
C303   C     0.75771   0.47106   0.04095   0.00000  Uiso   1.00
C304   C     0.90898   0.52876   0.45901   0.00000  Uiso   1.00
C305   C     0.71808   0.45272   0.01366   0.00000  Uiso   1.00
C306   C     0.94863   0.54706   0.48629   0.00000  Uiso   1.00
C307   C     0.85737   0.65384   0.24208   0.00000  Uiso   1.00
C308   C     0.80928   0.34617   0.25789   0.00000  Uiso   1.00
C309   C     0.79454   0.49612   0.33313   0.00000  Uiso   1.00
C310   C     0.87213   0.50387   0.16686   0.00000  Uiso   1.00
C311   C     0.77056   0.48876   0.38064   0.00000  Uiso   1.00
C312   C     0.89612   0.51116   0.11934   0.00000  Uiso   1.00
C313   C     0.69526   0.44474   0.44303   0.00000  Uiso   1.00
C314   C     0.97148   0.55502   0.05690   0.00000  Uiso   1.00
C315   C     0.71260   0.45630   0.39862   0.00000  Uiso   1.00
C316   C     0.95414   0.54352   0.10132   0.00000  Uiso   1.00
C317   C     0.81000   0.51009   0.40767   0.00000  Uiso   1.00
C318   C     0.85666   0.48982   0.09233   0.00000  Uiso   1.00
C319   C     0.79835   0.49286   0.45095   0.00000  Uiso   1.00
C320   C     0.86834   0.50699   0.04902   0.00000  Uiso   1.00
C321   C     0.73768   0.46259   0.46916   0.00000  Uiso   1.00
C322   C     0.92903   0.53721   0.03080   0.00000  Uiso   1.00
C323   C     0.84365   0.50580   0.47695   0.00000  Uiso   1.00
C324   C     0.82304   0.49404   0.02302   0.00000  Uiso   1.00
Cu325  Cu    0.77404   0.49441   0.24516   0.00000  Uiso   1.00
Cu326  Cu    0.89263   0.50559   0.25483   0.00000  Uiso   1.00
H327   H     0.66962   0.43312   0.02778   0.00000  Uiso   1.00
H328   H     0.99710   0.56663   0.47216   0.00000  Uiso   1.00
H329   H     0.81844   0.45855   0.10588   0.00000  Uiso   1.00
H330   H     0.84819   0.54140   0.39415   0.00000  Uiso   1.00
H331   H     0.98628   0.55939   0.12133   0.00000  Uiso   1.00
H332   H     0.68051   0.44041   0.37858   0.00000  Uiso   1.00
H333   H     0.98229   0.42126   0.45687   0.00000  Uiso   1.00
H334   H     0.68448   0.57844   0.04305   0.00000  Uiso   1.00
H335   H     0.99795   0.53209   0.28786   0.00000  Uiso   1.00
H336   H     0.66868   0.46785   0.21218   0.00000  Uiso   1.00
N337   N     0.98173   0.51401   0.26212   0.00000  Uiso   1.00
N338   N     0.68494   0.48599   0.23788   0.00000  Uiso   1.00
O339   O     0.79482   0.57142   0.24686   0.00000  Uiso   1.00
O340   O     0.87185   0.42858   0.25314   0.00000  Uiso   1.00
O341   O     0.89496   0.58086   0.25502   0.00000  Uiso   1.00
O342   O     0.77171   0.41914   0.24497   0.00000  Uiso   1.00
O343   O     0.75518   0.49263   0.30854   0.00000  Uiso   1.00
O344   O     0.91149   0.50737   0.19145   0.00000  Uiso   1.00
O345   O     0.85532   0.50207   0.31671   0.00000  Uiso   1.00
O346   O     0.81134   0.49793   0.18329   0.00000  Uiso   1.00
C347   C     0.72601   0.46931   0.08705   0.00000  Uiso   1.00
N348   N     0.70022   0.46761   0.12394   0.00000  Uiso   1.00
C349   C     0.94066   0.53055   0.41290   0.00000  Uiso   1.00
N350   N     0.96644   0.53227   0.37601   0.00000  Uiso   1.00
S351   S     0.93095   0.34723   0.20515   0.00000  Uiso   1.00
O352   O     0.92279   0.38558   0.17475   0.00000  Uiso   1.00
O353   O     0.97574   0.37373   0.23152   0.00000  Uiso   1.00
O354   O     0.96189   0.63308   0.17471   0.00000  Uiso   1.00
H355   H     0.99922   0.63004   0.18513   0.00000  Uiso   1.00
S356   S     0.73556   0.65269   0.29461   0.00000  Uiso   1.00
O357   O     0.69135   0.62578   0.26803   0.00000  Uiso   1.00
O358   O     0.74395   0.61499   0.32547   0.00000  Uiso   1.00
O359   O     0.70367   0.36688   0.32413   0.00000  Uiso   1.00
H360   H     0.99380   0.34971   0.34001   0.00000  Uiso   1.00
C361   C     0.18132   0.93291   0.25006   0.00000  Uiso   1.00
C362   C     0.15201   0.73376   0.24993   0.00000  Uiso   1.00
C363   C     0.09105   0.80440   0.04095   0.00000  Uiso   1.00
C364   C     0.24231   0.86209   0.45901   0.00000  Uiso   1.00
C365   C     0.05141   0.78606   0.01366   0.00000  Uiso   1.00
C366   C     0.28196   0.88039   0.48629   0.00000  Uiso   1.00
C367   C     0.19071   0.98717   0.24208   0.00000  Uiso   1.00
C368   C     0.14262   0.67950   0.25789   0.00000  Uiso   1.00
C369   C     0.12788   0.82945   0.33313   0.00000  Uiso   1.00
C370   C     0.20546   0.83720   0.16686   0.00000  Uiso   1.00
C371   C     0.10389   0.82209   0.38064   0.00000  Uiso   1.00
C372   C     0.22945   0.84449   0.11934   0.00000  Uiso   1.00
C373   C     0.02859   0.77808   0.44303   0.00000  Uiso   1.00
C374   C     0.30482   0.88836   0.05690   0.00000  Uiso   1.00
C375   C     0.04593   0.78963   0.39862   0.00000  Uiso   1.00
C376   C     0.28747   0.87686   0.10132   0.00000  Uiso   1.00
C377   C     0.14333   0.84342   0.40767   0.00000  Uiso   1.00
C378   C     0.18999   0.82316   0.09233   0.00000  Uiso   1.00
C379   C     0.13168   0.82620   0.45095   0.00000  Uiso   1.00
C380   C     0.20167   0.84032   0.04902   0.00000  Uiso   1.00
C381   C     0.07101   0.79592   0.46916   0.00000  Uiso   1.00
C382   C     0.26237   0.87054   0.03080   0.00000  Uiso   1.00
C383   C     0.17698   0.83913   0.47695   0.00000  Uiso   1.00
C384   C     0.15637   0.82737   0.02302   0.00000  Uiso   1.00
Cu385  Cu    0.10737   0.82775   0.24516   0.00000  Uiso   1.00
Cu386  Cu    0.22596   0.83892   0.25483   0.00000  Uiso   1.00
H387   H     0.00295   0.76646   0.02778   0.00000  Uiso   1.00
H388   H     0.33044   0.89997   0.47216   0.00000  Uiso   1.00
H389   H     0.15177   0.79188   0.10588   0.00000  Uiso   1.00
H390   H     0.18153   0.87473   0.39415   0.00000  Uiso   1.00
H391   H     0.31962   0.89272   0.12133   0.00000  Uiso   1.00
H392   H     0.01384   0.77374   0.37858   0.00000  Uiso   1.00
H393   H     0.31563   0.75460   0.45687   0.00000  Uiso   1.00
H394   H     0.01781   0.91177   0.04305   0.00000  Uiso   1.00
H395   H     0.33129   0.86542   0.28786   0.00000  Uiso   1.00
H396   H     0.00201   0.80118   0.21218   0.00000  Uiso   1.00
N397   N     0.31506   0.84735   0.26212   0.00000  Uiso   1.00
N398   N     0.01827   0.81932   0.23788   0.00000  Uiso   1.00
O399   O     0.12815   0.90476   0.24686   0.00000  Uiso   1.00
O400   O     0.20518   0.76191   0.25314   0.00000  Uiso   1.00
O401   O     0.22829   0.91420   0.25502   0.00000  Uiso   1.00
O402   O     0.10504   0.75247   0.24497   0.00000  Uiso   1.00
O403   O     0.08851   0.82597   0.30854   0.00000  Uiso   1.00
O404   O     0.24482   0.84070   0.19145   0.00000  Uiso   1.00
O405   O     0.18866   0.83540   0.31671   0.00000  Uiso   1.00
O406   O     0.14468   0.83126   0.18329   0.00000  Uiso   1.00
C407   C     0.05934   0.80264   0.08705   0.00000  Uiso   1.00
N408   N     0.03356   0.80095   0.12394   0.00000  Uiso   1.00
C409   C     0.27400   0.86388   0.41290   0.00000  Uiso   1.00
N410   N     0.29977   0.86560   0.37601   0.00000  Uiso   1.00
S411   S     0.26428   0.68056   0.20515   0.00000  Uiso   1.00
O412   O     0.25613   0.71891   0.17475   0.00000  Uiso   1.00
O413   O     0.30907   0.70706   0.23152   0.00000  Uiso   1.00
O414   O     0.29523   0.96642   0.17471   0.00000  Uiso   1.00
H415   H     0.33255   0.96337   0.18513   0.00000  Uiso   1.00
S416   S     0.06890   0.98603   0.29461   0.00000  Uiso   1.00
O417   O     0.02469   0.95911   0.26803   0.00000  Uiso   1.00
O418   O     0.07728   0.94833   0.32547   0.00000  Uiso   1.00
O419   O     0.03700   0.70021   0.32413   0.00000  Uiso   1.00
H420   H     0.32713   0.68304   0.34001   0.00000  Uiso   1.00
C421   C     0.51466   0.93291   0.25006   0.00000  Uiso   1.00
C422   C     0.48534   0.73376   0.24993   0.00000  Uiso   1.00
C423   C     0.42438   0.80440   0.04095   0.00000  Uiso   1.00
C424   C     0.57564   0.86209   0.45901   0.00000  Uiso   1.00
C425   C     0.38475   0.78606   0.01366   0.00000  Uiso   1.00
C426   C     0.61530   0.88039   0.48629   0.00000  Uiso   1.00
C427   C     0.52404   0.98717   0.24208   0.00000  Uiso   1.00
C428   C     0.47595   0.67950   0.25789   0.00000  Uiso   1.00
C429   C     0.46121   0.82945   0.33313   0.00000  Uiso   1.00
C430   C     0.53879   0.83720   0.16686   0.00000  Uiso   1.00
C431   C     0.43722   0.82209   0.38064   0.00000  Uiso   1.00
C432   C     0.56279   0.84449   0.11934   0.00000  Uiso   1.00
C433   C     0.36192   0.77808   0.44303   0.00000  Uiso   1.00
C434   C     0.63815   0.88836   0.05690   0.00000  Uiso   1.00
C435   C     0.37927   0.78963   0.39862   0.00000  Uiso   1.00
C436   C     0.62080   0.87686   0.10132   0.00000  Uiso   1.00
C437   C     0.47667   0.84342   0.40767   0.00000  Uiso   1.00
C438   C     0.52333   0.82316   0.09233   0.00000  Uiso   1.00
C439   C     0.46502   0.82620   0.45095   0.00000  Uiso   1.00
C440   C     0.53500   0.84032   0.04902   0.00000  Uiso   1.00
C441   C     0.40434   0.79592   0.46916   0.00000  Uiso   1.00
C442   C     0.59570   0.87054   0.03080   0.00000  Uiso   1.00
C443   C     0.51031   0.83913   0.47695   0.00000  Uiso   1.00
C444   C     0.48971   0.82737   0.02302   0.00000  Uiso   1.00
Cu445  Cu    0.44071   0.82775   0.24516   0.00000  Uiso   1.00
Cu446  Cu    0.55929   0.83892   0.25483   0.00000  Uiso   1.00
H447   H     0.33628   0.76646   0.02778   0.00000  Uiso   1.00
H448   H     0.66377   0.89997   0.47216   0.00000  Uiso   1.00
H449   H     0.48511   0.79188   0.10588   0.00000  Uiso   1.00
H450   H     0.51486   0.87473   0.39415   0.00000  Uiso   1.00
H451   H     0.65295   0.89272   0.12133   0.00000  Uiso   1.00
H452   H     0.34718   0.77374   0.37858   0.00000  Uiso   1.00
H453   H     0.64896   0.75460   0.45687   0.00000  Uiso   1.00
H454   H     0.35115   0.91177   0.04305   0.00000  Uiso   1.00
H455   H     0.66462   0.86542   0.28786   0.00000  Uiso   1.00
H456   H     0.33534   0.80118   0.21218   0.00000  Uiso   1.00
N457   N     0.64839   0.84735   0.26212   0.00000  Uiso   1.00
N458   N     0.35161   0.81932   0.23788   0.00000  Uiso   1.00
O459   O     0.46148   0.90476   0.24686   0.00000  Uiso   1.00
O460   O     0.53852   0.76191   0.25314   0.00000  Uiso   1.00
O461   O     0.56163   0.91420   0.25502   0.00000  Uiso   1.00
O462   O     0.43837   0.75247   0.24497   0.00000  Uiso   1.00
O463   O     0.42185   0.82597   0.30854   0.00000  Uiso   1.00
O464   O     0.57815   0.84070   0.19145   0.00000  Uiso   1.00
O465   O     0.52199   0.83540   0.31671   0.00000  Uiso   1.00
O466   O     0.47801   0.83126   0.18329   0.00000  Uiso   1.00
C467   C     0.39267   0.80264   0.08705   0.00000  Uiso   1.00
N468   N     0.36689   0.80095   0.12394   0.00000  Uiso   1.00
C469   C     0.60733   0.86388   0.41290   0.00000  Uiso   1.00
N470   N     0.63311   0.86560   0.37601   0.00000  Uiso   1.00
S471   S     0.59762   0.68056   0.20515   0.00000  Uiso   1.00
O472   O     0.58946   0.71891   0.17475   0.00000  Uiso   1.00
O473   O     0.64240   0.70706   0.23152   0.00000  Uiso   1.00
O474   O     0.62856   0.96642   0.17471   0.00000  Uiso   1.00
H475   H     0.66588   0.96337   0.18513   0.00000  Uiso   1.00
S476   S     0.40223   0.98603   0.29461   0.00000  Uiso   1.00
O477   O     0.35802   0.95911   0.26803   0.00000  Uiso   1.00
O478   O     0.41062   0.94833   0.32547   0.00000  Uiso   1.00
O479   O     0.37033   0.70021   0.32413   0.00000  Uiso   1.00
H480   H     0.66047   0.68304   0.34001   0.00000  Uiso   1.00
C481   C     0.84799   0.93291   0.25006   0.00000  Uiso   1.00
C482   C     0.81867   0.73376   0.24993   0.00000  Uiso   1.00
C483   C     0.75771   0.80440   0.04095   0.00000  Uiso   1.00
C484   C     0.90898   0.86209   0.45901   0.00000  Uiso   1.00
C485   C     0.71808   0.78606   0.01366   0.00000  Uiso   1.00
C486   C     0.94863   0.88039   0.48629   0.00000  Uiso   1.00
C487   C     0.85737   0.98717   0.24208   0.00000  Uiso   1.00
C488   C     0.80928   0.67950   0.25789   0.00000  Uiso   1.00
C489   C     0.79454   0.82945   0.33313   0.00000  Uiso   1.00
C490   C     0.87213   0.83720   0.16686   0.00000  Uiso   1.00
C491   C     0.77056   0.82209   0.38064   0.00000  Uiso   1.00
C492   C     0.89612   0.84449   0.11934   0.00000  Uiso   1.00
C493   C     0.69526   0.77808   0.44303   0.00000  Uiso   1.00
C494   C     0.97148   0.88836   0.05690   0.00000  Uiso   1.00
C495   C     0.71260   0.78963   0.39862   0.00000  Uiso   1.00
C496   C     0.95414   0.87686   0.10132   0.00000  Uiso   1.00
C497   C     0.81000   0.84342   0.40767   0.00000  Uiso   1.00
C498   C     0.85666   0.82316   0.09233   0.00000  Uiso   1.00
C499   C     0.79835   0.82620   0.45095   0.00000  Uiso   1.00
C500   C     0.86834   0.84032   0.04902   0.00000  Uiso   1.00
C501   C     0.73768   0.79592   0.46916   0.00000  Uiso   1.00
C502   C     0.92903   0.87054   0.03080   0.00000  Uiso   1.00
C503   C     0.84365   0.83913   0.47695   0.00000  Uiso   1.00
C504   C     0.82304   0.82737   0.02302   0.00000  Uiso   1.00
Cu505  Cu    0.77404   0.82775   0.24516   0.00000  Uiso   1.00
Cu506  Cu    0.89263   0.83892   0.25483   0.00000  Uiso   1.00
H507   H     0.66962   0.76646   0.02778   0.00000  Uiso   1.00
H508   H     0.99710   0.89997   0.47216   0.00000  Uiso   1.00
H509   H     0.81844   0.79188   0.10588   0.00000  Uiso   1.00
H510   H     0.84819   0.87473   0.39415   0.00000  Uiso   1.00
H511   H     0.98628   0.89272   0.12133   0.00000  Uiso   1.00
H512   H     0.68051   0.77374   0.37858   0.00000  Uiso   1.00
H513   H     0.98229   0.75460   0.45687   0.00000  Uiso   1.00
H514   H     0.68448   0.91177   0.04305   0.00000  Uiso   1.00
H515   H     0.99795   0.86542   0.28786   0.00000  Uiso   1.00
H516   H     0.66868   0.80118   0.21218   0.00000  Uiso   1.00
N517   N     0.98173   0.84735   0.26212   0.00000  Uiso   1.00
N518   N     0.68494   0.81932   0.23788   0.00000  Uiso   1.00
O519   O     0.79482   0.90476   0.24686   0.00000  Uiso   1.00
O520   O     0.87185   0.76191   0.25314   0.00000  Uiso   1.00
O521   O     0.89496   0.91420   0.25502   0.00000  Uiso   1.00
O522   O     0.77171   0.75247   0.24497   0.00000  Uiso   1.00
O523   O     0.75518   0.82597   0.30854   0.00000  Uiso   1.00
O524   O     0.91149   0.84070   0.19145   0.00000  Uiso   1.00
O525   O     0.85532   0.83540   0.31671   0.00000  Uiso   1.00
O526   O     0.81134   0.83126   0.18329   0.00000  Uiso   1.00
C527   C     0.72601   0.80264   0.08705   0.00000  Uiso   1.00
N528   N     0.70022   0.80095   0.12394   0.00000  Uiso   1.00
C529   C     0.94066   0.86388   0.41290   0.00000  Uiso   1.00
N530   N     0.96644   0.86560   0.37601   0.00000  Uiso   1.00
S531   S     0.93095   0.68056   0.20515   0.00000  Uiso   1.00
O532   O     0.92279   0.71891   0.17475   0.00000  Uiso   1.00
O533   O     0.97574   0.70706   0.23152   0.00000  Uiso   1.00
O534   O     0.96189   0.96642   0.17471   0.00000  Uiso   1.00
H535   H     0.99922   0.96337   0.18513   0.00000  Uiso   1.00
S536   S     0.73556   0.98603   0.29461   0.00000  Uiso   1.00
O537   O     0.69135   0.95911   0.26803   0.00000  Uiso   1.00
O538   O     0.74395   0.94833   0.32547   0.00000  Uiso   1.00
O539   O     0.70367   0.70021   0.32413   0.00000  Uiso   1.00
H540   H     0.99380   0.68304   0.34001   0.00000  Uiso   1.00
C541   C     0.18132   0.26625   0.75006   0.00000  Uiso   1.00
C542   C     0.15201   0.06709   0.74993   0.00000  Uiso   1.00
C543   C     0.09105   0.13773   0.54095   0.00000  Uiso   1.00
C544   C     0.24231   0.19543   0.95901   0.00000  Uiso   1.00
C545   C     0.05141   0.11939   0.51366   0.00000  Uiso   1.00
C546   C     0.28196   0.21373   0.98629   0.00000  Uiso   1.00
C547   C     0.19071   0.32050   0.74208   0.00000  Uiso   1.00
C548   C     0.14262   0.01284   0.75789   0.00000  Uiso   1.00
C549   C     0.12788   0.16279   0.83313   0.00000  Uiso   1.00
C550   C     0.20546   0.17053   0.66686   0.00000  Uiso   1.00
C551   C     0.10389   0.15543   0.88064   0.00000  Uiso   1.00
C552   C     0.22945   0.17783   0.61934   0.00000  Uiso   1.00
C553   C     0.02859   0.11141   0.94303   0.00000  Uiso   1.00
C554   C     0.30482   0.22169   0.55690   0.00000  Uiso   1.00
C555   C     0.04593   0.12296   0.89862   0.00000  Uiso   1.00
C556   C     0.28747   0.21019   0.60132   0.00000  Uiso   1.00
C557   C     0.14333   0.17676   0.90767   0.00000  Uiso   1.00
C558   C     0.18999   0.15649   0.59233   0.00000  Uiso   1.00
C559   C     0.13168   0.15953   0.95095   0.00000  Uiso   1.00
C560   C     0.20167   0.17365   0.54902   0.00000  Uiso   1.00
C561   C     0.07101   0.12925   0.96916   0.00000  Uiso   1.00
C562   C     0.26237   0.20388   0.53080   0.00000  Uiso   1.00
C563   C     0.17698   0.17247   0.97695   0.00000  Uiso   1.00
C564   C     0.15637   0.16071   0.52302   0.00000  Uiso   1.00
Cu565  Cu    0.10737   0.16108   0.74516   0.00000  Uiso   1.00
Cu566  Cu    0.22596   0.17225   0.75483   0.00000  Uiso   1.00
H567   H     0.00295   0.09979   0.52778   0.00000  Uiso   1.00
H568   H     0.33044   0.23330   0.97216   0.00000  Uiso   1.00
H569   H     0.15177   0.12522   0.60588   0.00000  Uiso   1.00
H570   H     0.18153   0.20807   0.89415   0.00000  Uiso   1.00
H571   H     0.31962   0.22605   0.62133   0.00000  Uiso   1.00
H572   H     0.01384   0.10707   0.87858   0.00000  Uiso   1.00
H573   H     0.31563   0.08793   0.95687   0.00000  Uiso   1.00
H574   H     0.01781   0.24511   0.54305   0.00000  Uiso   1.00
H575   H     0.33129   0.19875   0.78786   0.00000  Uiso   1.00
H576   H     0.00201   0.13452   0.71218   0.00000  Uiso   1.00
N577   N     0.31506   0.18068   0.76212   0.00000  Uiso   1.00
N578   N     0.01827   0.15265   0.73788   0.00000  Uiso   1.00
O579   O     0.12815   0.23809   0.74686   0.00000  Uiso   1.00
O580   O     0.20518   0.09524   0.75314   0.00000  Uiso   1.00
O581   O     0.22829   0.24753   0.75502   0.00000  Uiso   1.00
O582   O     0.10504   0.08580   0.74497   0.00000  Uiso   1.00
O583   O     0.08851   0.15930   0.80854   0.00000  Uiso   1.00
O584   O     0.24482   0.17403   0.69145   0.00000  Uiso   1.00
O585   O     0.18866   0.16874   0.81671   0.00000  Uiso   1.00
O586   O     0.14468   0.16460   0.68329   0.00000  Uiso   1.00
C587   C     0.05934   0.13597   0.58705   0.00000  Uiso   1.00
N588   N     0.03356   0.13428   0.62394   0.00000  Uiso   1.00
C589   C     0.27400   0.19721   0.91290   0.00000  Uiso   1.00
N590   N     0.29977   0.19893   0.87601   0.00000  Uiso   1.00
S591   S     0.26428   0.01390   0.70515   0.00000  Uiso   1.00
O592   O     0.25613   0.05224   0.67475   0.00000  Uiso   1.00
O593   O     0.30907   0.04040   0.73152   0.00000  Uiso   1.00
O594   O     0.29523   0.29975   0.67471   0.00000  Uiso   1.00
H595   H     0.33255   0.29671   0.68513   0.00000  Uiso   1.00
S596   S     0.06890   0.31936   0.79461   0.00000  Uiso   1.00
O597   O     0.02469   0.29244   0.76803   0.00000  Uiso   1.00
O598   O     0.07728   0.28166   0.82547   0.00000  Uiso   1.00
O599   O     0.03700   0.03355   0.82413   0.00000  Uiso   1.00
H600   H     0.32713   0.01637   0.84001   0.00000  Uiso   1.00
C601   C     0.51466   0.26625   0.75006   0.00000  Uiso   1.00
C602   C     0.48534   0.06709   0.74993   0.00000  Uiso   1.00
C603   C     0.42438   0.13773   0.54095   0.00000  Uiso   1.00
C604   C     0.57564   0.19543   0.95901   0.00000  Uiso   1.00
C605   C     0.38475   0.11939   0.51366   0.00000  Uiso   1.00
C606   C     0.61530   0.21373   0.98629   0.00000  Uiso   1.00
C607   C     0.52404   0.32050   0.74208   0.00000  Uiso   1.00
C608   C     0.47595   0.01284   0.75789   0.00000  Uiso   1.00
C609   C     0.46121   0.16279   0.83313   0.00000  Uiso   1.00
C610   C     0.53879   0.17053   0.66686   0.00000  Uiso   1.00
C611   C     0.43722   0.15543   0.88064   0.00000  Uiso   1.00
C612   C     0.56279   0.17783   0.61934   0.00000  Uiso   1.00
C613   C     0.36192   0.11141   0.94303   0.00000  Uiso   1.00
C614   C     0.63815   0.22169   0.55690   0.00000  Uiso   1.00
C615   C     0.37927   0.12296   0.89862   0.00000  Uiso   1.00
C616   C     0.62080   0.21019   0.60132   0.00000  Uiso   1.00
C617   C     0.47667   0.17676   0.90767   0.00000  Uiso   1.00
C618   C     0.52333   0.15649   0.59233   0.00000  Uiso   1.00
C619   C     0.46502   0.15953   0.95095   0.00000  Uiso   1.00
C620   C     0.53500   0.17365   0.54902   0.00000  Uiso   1.00
C621   C     0.40434   0.12925   0.96916   0.00000  Uiso   1.00
C622   C     0.59570   0.20388   0.53080   0.00000  Uiso   1.00
C623   C     0.51031   0.17247   0.97695   0.00000  Uiso   1.00
C624   C     0.48971   0.16071   0.52302   0.00000  Uiso   1.00
Cu625  Cu    0.44071   0.16108   0.74516   0.00000  Uiso   1.00
Cu626  Cu    0.55929   0.17225   0.75483   0.00000  Uiso   1.00
H627   H     0.33628   0.09979   0.52778   0.00000  Uiso   1.00
H628   H     0.66377   0.23330   0.97216   0.00000  Uiso   1.00
H629   H     0.48511   0.12522   0.60588   0.00000  Uiso   1.00
H630   H     0.51486   0.20807   0.89415   0.00000  Uiso   1.00
H631   H     0.65295   0.22605   0.62133   0.00000  Uiso   1.00
H632   H     0.34718   0.10707   0.87858   0.00000  Uiso   1.00
H633   H     0.64896   0.08793   0.95687   0.00000  Uiso   1.00
H634   H     0.35115   0.24511   0.54305   0.00000  Uiso   1.00
H635   H     0.66462   0.19875   0.78786   0.00000  Uiso   1.00
H636   H     0.33534   0.13452   0.71218   0.00000  Uiso   1.00
N637   N     0.64839   0.18068   0.76212   0.00000  Uiso   1.00
N638   N     0.35161   0.15265   0.73788   0.00000  Uiso   1.00
O639   O     0.46148   0.23809   0.74686   0.00000  Uiso   1.00
O640   O     0.53852   0.09524   0.75314   0.00000  Uiso   1.00
O641   O     0.56163   0.24753   0.75502   0.00000  Uiso   1.00
O642   O     0.43837   0.08580   0.74497   0.00000  Uiso   1.00
O643   O     0.42185   0.15930   0.80854   0.00000  Uiso   1.00
O644   O     0.57815   0.17403   0.69145   0.00000  Uiso   1.00
O645   O     0.52199   0.16874   0.81671   0.00000  Uiso   1.00
O646   O     0.47801   0.16460   0.68329   0.00000  Uiso   1.00
C647   C     0.39267   0.13597   0.58705   0.00000  Uiso   1.00
N648   N     0.36689   0.13428   0.62394   0.00000  Uiso   1.00
C649   C     0.60733   0.19721   0.91290   0.00000  Uiso   1.00
N650   N     0.63311   0.19893   0.87601   0.00000  Uiso   1.00
S651   S     0.59762   0.01390   0.70515   0.00000  Uiso   1.00
O652   O     0.58946   0.05224   0.67475   0.00000  Uiso   1.00
O653   O     0.64240   0.04040   0.73152   0.00000  Uiso   1.00
O654   O     0.62856   0.29975   0.67471   0.00000  Uiso   1.00
H655   H     0.66588   0.29671   0.68513   0.00000  Uiso   1.00
S656   S     0.40223   0.31936   0.79461   0.00000  Uiso   1.00
O657   O     0.35802   0.29244   0.76803   0.00000  Uiso   1.00
O658   O     0.41062   0.28166   0.82547   0.00000  Uiso   1.00
O659   O     0.37033   0.03355   0.82413   0.00000  Uiso   1.00
H660   H     0.66047   0.01637   0.84001   0.00000  Uiso   1.00
C661   C     0.84799   0.26625   0.75006   0.00000  Uiso   1.00
C662   C     0.81867   0.06709   0.74993   0.00000  Uiso   1.00
C663   C     0.75771   0.13773   0.54095   0.00000  Uiso   1.00
C664   C     0.90898   0.19543   0.95901   0.00000  Uiso   1.00
C665   C     0.71808   0.11939   0.51366   0.00000  Uiso   1.00
C666   C     0.94863   0.21373   0.98629   0.00000  Uiso   1.00
C667   C     0.85737   0.32050   0.74208   0.00000  Uiso   1.00
C668   C     0.80928   0.01284   0.75789   0.00000  Uiso   1.00
C669   C     0.79454   0.16279   0.83313   0.00000  Uiso   1.00
C670   C     0.87213   0.17053   0.66686   0.00000  Uiso   1.00
C671   C     0.77056   0.15543   0.88064   0.00000  Uiso   1.00
C672   C     0.89612   0.17783   0.61934   0.00000  Uiso   1.00
C673   C     0.69526   0.11141   0.94303   0.00000  Uiso   1.00
C674   C     0.97148   0.22169   0.55690   0.00000  Uiso   1.00
C675   C     0.71260   0.12296   0.89862   0.00000  Uiso   1.00
C676   C     0.95414   0.21019   0.60132   0.00000  Uiso   1.00
C677   C     0.81000   0.17676   0.90767   0.00000  Uiso   1.00
C678   C     0.85666   0.15649   0.59233   0.00000  Uiso   1.00
C679   C     0.79835   0.15953   0.95095   0.00000  Uiso   1.00
C680   C     0.86834   0.17365   0.54902   0.00000  Uiso   1.00
C681   C     0.73768   0.12925   0.96916   0.00000  Uiso   1.00
C682   C     0.92903   0.20388   0.53080   0.00000  Uiso   1.00
C683   C     0.84365   0.17247   0.97695   0.00000  Uiso   1.00
C684   C     0.82304   0.16071   0.52302   0.00000  Uiso   1.00
Cu685  Cu    0.77404   0.16108   0.74516   0.00000  Uiso   1.00
Cu686  Cu    0.89263   0.17225   0.75483   0.00000  Uiso   1.00
H687   H     0.66962   0.09979   0.52778   0.00000  Uiso   1.00
H688   H     0.99710   0.23330   0.97216   0.00000  Uiso   1.00
H689   H     0.81844   0.12522   0.60588   0.00000  Uiso   1.00
H690   H     0.84819   0.20807   0.89415   0.00000  Uiso   1.00
H691   H     0.98628   0.22605   0.62133   0.00000  Uiso   1.00
H692   H     0.68051   0.10707   0.87858   0.00000  Uiso   1.00
H693   H     0.98229   0.08793   0.95687   0.00000  Uiso   1.00
H694   H     0.68448   0.24511   0.54305   0.00000  Uiso   1.00
H695   H     0.99795   0.19875   0.78786   0.00000  Uiso   1.00
H696   H     0.66868   0.13452   0.71218   0.00000  Uiso   1.00
N697   N     0.98173   0.18068   0.76212   0.00000  Uiso   1.00
N698   N     0.68494   0.15265   0.73788   0.00000  Uiso   1.00
O699   O     0.79482   0.23809   0.74686   0.00000  Uiso   1.00
O700   O     0.87185   0.09524   0.75314   0.00000  Uiso   1.00
O701   O     0.89496   0.24753   0.75502   0.00000  Uiso   1.00
O702   O     0.77171   0.08580   0.74497   0.00000  Uiso   1.00
O703   O     0.75518   0.15930   0.80854   0.00000  Uiso   1.00
O704   O     0.91149   0.17403   0.69145   0.00000  Uiso   1.00
O705   O     0.85532   0.16874   0.81671   0.00000  Uiso   1.00
O706   O     0.81134   0.16460   0.68329   0.00000  Uiso   1.00
C707   C     0.72601   0.13597   0.58705   0.00000  Uiso   1.00
N708   N     0.70022   0.13428   0.62394   0.00000  Uiso   1.00
C709   C     0.94066   0.19721   0.91290   0.00000  Uiso   1.00
N710   N     0.96644   0.19893   0.87601   0.00000  Uiso   1.00
S711   S     0.93095   0.01390   0.70515   0.00000  Uiso   1.00
O712   O     0.92279   0.05224   0.67475   0.00000  Uiso   1.00
O713   O     0.97574   0.04040   0.73152   0.00000  Uiso   1.00
O714   O     0.96189   0.29975   0.67471   0.00000  Uiso   1.00
H715   H     0.99922   0.29671   0.68513   0.00000  Uiso   1.00
S716   S     0.73556   0.31936   0.79461   0.00000  Uiso   1.00
O717   O     0.69135   0.29244   0.76803   0.00000  Uiso   1.00
O718   O     0.74395   0.28166   0.82547   0.00000  Uiso   1.00
O719   O     0.70367   0.03355   0.82413   0.00000  Uiso   1.00
H720   H     0.99380   0.01637   0.84001   0.00000  Uiso   1.00
C721   C     0.18132   0.59958   0.75006   0.00000  Uiso   1.00
C722   C     0.15201   0.40042   0.74993   0.00000  Uiso   1.00
C723   C     0.09105   0.47106   0.54095   0.00000  Uiso   1.00
C724   C     0.24231   0.52876   0.95901   0.00000  Uiso   1.00
C725   C     0.05141   0.45272   0.51366   0.00000  Uiso   1.00
C726   C     0.28196   0.54706   0.98629   0.00000  Uiso   1.00
C727   C     0.19071   0.65384   0.74208   0.00000  Uiso   1.00
C728   C     0.14262   0.34617   0.75789   0.00000  Uiso   1.00
C729   C     0.12788   0.49612   0.83313   0.00000  Uiso   1.00
C730   C     0.20546   0.50387   0.66686   0.00000  Uiso   1.00
C731   C     0.10389   0.48876   0.88064   0.00000  Uiso   1.00
C732   C     0.22945   0.51116   0.61934   0.00000  Uiso   1.00
C733   C     0.02859   0.44474   0.94303   0.00000  Uiso   1.00
C734   C     0.30482   0.55502   0.55690   0.00000  Uiso   1.00
C735   C     0.04593   0.45630   0.89862   0.00000  Uiso   1.00
C736   C     0.28747   0.54352   0.60132   0.00000  Uiso   1.00
C737   C     0.14333   0.51009   0.90767   0.00000  Uiso   1.00
C738   C     0.18999   0.48982   0.59233   0.00000  Uiso   1.00
C739   C     0.13168   0.49286   0.95095   0.00000  Uiso   1.00
C740   C     0.20167   0.50699   0.54902   0.00000  Uiso   1.00
C741   C     0.07101   0.46259   0.96916   0.00000  Uiso   1.00
C742   C     0.26237   0.53721   0.53080   0.00000  Uiso   1.00
C743   C     0.17698   0.50580   0.97695   0.00000  Uiso   1.00
C744   C     0.15637   0.49404   0.52302   0.00000  Uiso   1.00
Cu745  Cu    0.10737   0.49441   0.74516   0.00000  Uiso   1.00
Cu746  Cu    0.22596   0.50559   0.75483   0.00000  Uiso   1.00
H747   H     0.00295   0.43312   0.52778   0.00000  Uiso   1.00
H748   H     0.33044   0.56663   0.97216   0.00000  Uiso   1.00
H749   H     0.15177   0.45855   0.60588   0.00000  Uiso   1.00
H750   H     0.18153   0.54140   0.89415   0.00000  Uiso   1.00
H751   H     0.31962   0.55939   0.62133   0.00000  Uiso   1.00
H752   H     0.01384   0.44041   0.87858   0.00000  Uiso   1.00
H753   H     0.31563   0.42126   0.95687   0.00000  Uiso   1.00
H754   H     0.01781   0.57844   0.54305   0.00000  Uiso   1.00
H755   H     0.33129   0.53209   0.78786   0.00000  Uiso   1.00
H756   H     0.00201   0.46785   0.71218   0.00000  Uiso   1.00
N757   N     0.31506   0.51401   0.76212   0.00000  Uiso   1.00
N758   N     0.01827   0.48599   0.73788   0.00000  Uiso   1.00
O759   O     0.12815   0.57142   0.74686   0.00000  Uiso   1.00
O760   O     0.20518   0.42858   0.75314   0.00000  Uiso   1.00
O761   O     0.22829   0.58086   0.75502   0.00000  Uiso   1.00
O762   O     0.10504   0.41914   0.74497   0.00000  Uiso   1.00
O763   O     0.08851   0.49263   0.80854   0.00000  Uiso   1.00
O764   O     0.24482   0.50737   0.69145   0.00000  Uiso   1.00
O765   O     0.18866   0.50207   0.81671   0.00000  Uiso   1.00
O766   O     0.14468   0.49793   0.68329   0.00000  Uiso   1.00
C767   C     0.05934   0.46931   0.58705   0.00000  Uiso   1.00
N768   N     0.03356   0.46761   0.62394   0.00000  Uiso   1.00
C769   C     0.27400   0.53055   0.91290   0.00000  Uiso   1.00
N770   N     0.29977   0.53227   0.87601   0.00000  Uiso   1.00
S771   S     0.26428   0.34723   0.70515   0.00000  Uiso   1.00
O772   O     0.25613   0.38558   0.67475   0.00000  Uiso   1.00
O773   O     0.30907   0.37373   0.73152   0.00000  Uiso   1.00
O774   O     0.29523   0.63308   0.67471   0.00000  Uiso   1.00
H775   H     0.33255   0.63004   0.68513   0.00000  Uiso   1.00
S776   S     0.06890   0.65269   0.79461   0.00000  Uiso   1.00
O777   O     0.02469   0.62578   0.76803   0.00000  Uiso   1.00
O778   O     0.07728   0.61499   0.82547   0.00000  Uiso   1.00
O779   O     0.03700   0.36688   0.82413   0.00000  Uiso   1.00
H780   H     0.32713   0.34971   0.84001   0.00000  Uiso   1.00
C781   C     0.51466   0.59958   0.75006   0.00000  Uiso   1.00
C782   C     0.48534   0.40042   0.74993   0.00000  Uiso   1.00
C783   C     0.42438   0.47106   0.54095   0.00000  Uiso   1.00
C784   C     0.57564   0.52876   0.95901   0.00000  Uiso   1.00
C785   C     0.38475   0.45272   0.51366   0.00000  Uiso   1.00
C786   C     0.61530   0.54706   0.98629   0.00000  Uiso   1.00
C787   C     0.52404   0.65384   0.74208   0.00000  Uiso   1.00
C788   C     0.47595   0.34617   0.75789   0.00000  Uiso   1.00
C789   C     0.46121   0.49612   0.83313   0.00000  Uiso   1.00
C790   C     0.53879   0.50387   0.66686   0.00000  Uiso   1.00
C791   C     0.43722   0.48876   0.88064   0.00000  Uiso   1.00
C792   C     0.56279   0.51116   0.61934   0.00000  Uiso   1.00
C793   C     0.36192   0.44474   0.94303   0.00000  Uiso   1.00
C794   C     0.63815   0.55502   0.55690   0.00000  Uiso   1.00
C795   C     0.37927   0.45630   0.89862   0.00000  Uiso   1.00
C796   C     0.62080   0.54352   0.60132   0.00000  Uiso   1.00
C797   C     0.47667   0.51009   0.90767   0.00000  Uiso   1.00
C798   C     0.52333   0.48982   0.59233   0.00000  Uiso   1.00
C799   C     0.46502   0.49286   0.95095   0.00000  Uiso   1.00
C800   C     0.53500   0.50699   0.54902   0.00000  Uiso   1.00
C801   C     0.40434   0.46259   0.96916   0.00000  Uiso   1.00
C802   C     0.59570   0.53721   0.53080   0.00000  Uiso   1.00
C803   C     0.51031   0.50580   0.97695   0.00000  Uiso   1.00
C804   C     0.48971   0.49404   0.52302   0.00000  Uiso   1.00
Cu805  Cu    0.44071   0.49441   0.74516   0.00000  Uiso   1.00
Cu806  Cu    0.55929   0.50559   0.75483   0.00000  Uiso   1.00
H807   H     0.33628   0.43312   0.52778   0.00000  Uiso   1.00
H808   H     0.66377   0.56663   0.97216   0.00000  Uiso   1.00
H809   H     0.48511   0.45855   0.60588   0.00000  Uiso   1.00
H810   H     0.51486   0.54140   0.89415   0.00000  Uiso   1.00
H811   H     0.65295   0.55939   0.62133   0.00000  Uiso   1.00
H812   H     0.34718   0.44041   0.87858   0.00000  Uiso   1.00
H813   H     0.64896   0.42126   0.95687   0.00000  Uiso   1.00
H814   H     0.35115   0.57844   0.54305   0.00000  Uiso   1.00
H815   H     0.66462   0.53209   0.78786   0.00000  Uiso   1.00
H816   H     0.33534   0.46785   0.71218   0.00000  Uiso   1.00
N817   N     0.64839   0.51401   0.76212   0.00000  Uiso   1.00
N818   N     0.35161   0.48599   0.73788   0.00000  Uiso   1.00
O819   O     0.46148   0.57142   0.74686   0.00000  Uiso   1.00
O820   O     0.53852   0.42858   0.75314   0.00000  Uiso   1.00
O821   O     0.56163   0.58086   0.75502   0.00000  Uiso   1.00
O822   O     0.43837   0.41914   0.74497   0.00000  Uiso   1.00
O823   O     0.42185   0.49263   0.80854   0.00000  Uiso   1.00
O824   O     0.57815   0.50737   0.69145   0.00000  Uiso   1.00
O825   O     0.52199   0.50207   0.81671   0.00000  Uiso   1.00
O826   O     0.47801   0.49793   0.68329   0.00000  Uiso   1.00
C827   C     0.39267   0.46931   0.58705   0.00000  Uiso   1.00
N828   N     0.36689   0.46761   0.62394   0.00000  Uiso   1.00
C829   C     0.60733   0.53055   0.91290   0.00000  Uiso   1.00
N830   N     0.63311   0.53227   0.87601   0.00000  Uiso   1.00
S831   S     0.59762   0.34723   0.70515   0.00000  Uiso   1.00
O832   O     0.58946   0.38558   0.67475   0.00000  Uiso   1.00
O833   O     0.64240   0.37373   0.73152   0.00000  Uiso   1.00
O834   O     0.62856   0.63308   0.67471   0.00000  Uiso   1.00
H835   H     0.66588   0.63004   0.68513   0.00000  Uiso   1.00
S836   S     0.40223   0.65269   0.79461   0.00000  Uiso   1.00
O837   O     0.35802   0.62578   0.76803   0.00000  Uiso   1.00
O838   O     0.41062   0.61499   0.82547   0.00000  Uiso   1.00
O839   O     0.37033   0.36688   0.82413   0.00000  Uiso   1.00
H840   H     0.66047   0.34971   0.84001   0.00000  Uiso   1.00
C841   C     0.84799   0.59958   0.75006   0.00000  Uiso   1.00
C842   C     0.81867   0.40042   0.74993   0.00000  Uiso   1.00
C843   C     0.75771   0.47106   0.54095   0.00000  Uiso   1.00
C844   C     0.90898   0.52876   0.95901   0.00000  Uiso   1.00
C845   C     0.71808   0.45272   0.51366   0.00000  Uiso   1.00
C846   C     0.94863   0.54706   0.98629   0.00000  Uiso   1.00
C847   C     0.85737   0.65384   0.74208   0.00000  Uiso   1.00
C848   C     0.80928   0.34617   0.75789   0.00000  Uiso   1.00
C849   C     0.79454   0.49612   0.83313   0.00000  Uiso   1.00
C850   C     0.87213   0.50387   0.66686   0.00000  Uiso   1.00
C851   C     0.77056   0.48876   0.88064   0.00000  Uiso   1.00
C852   C     0.89612   0.51116   0.61934   0.00000  Uiso   1.00
C853   C     0.69526   0.44474   0.94303   0.00000  Uiso   1.00
C854   C     0.97148   0.55502   0.55690   0.00000  Uiso   1.00
C855   C     0.71260   0.45630   0.89862   0.00000  Uiso   1.00
C856   C     0.95414   0.54352   0.60132   0.00000  Uiso   1.00
C857   C     0.81000   0.51009   0.90767   0.00000  Uiso   1.00
C858   C     0.85666   0.48982   0.59233   0.00000  Uiso   1.00
C859   C     0.79835   0.49286   0.95095   0.00000  Uiso   1.00
C860   C     0.86834   0.50699   0.54902   0.00000  Uiso   1.00
C861   C     0.73768   0.46259   0.96916   0.00000  Uiso   1.00
C862   C     0.92903   0.53721   0.53080   0.00000  Uiso   1.00
C863   C     0.84365   0.50580   0.97695   0.00000  Uiso   1.00
C864   C     0.82304   0.49404   0.52302   0.00000  Uiso   1.00
Cu865  Cu    0.77404   0.49441   0.74516   0.00000  Uiso   1.00
Cu866  Cu    0.89263   0.50559   0.75483   0.00000  Uiso   1.00
H867   H     0.66962   0.43312   0.52778   0.00000  Uiso   1.00
H868   H     0.99710   0.56663   0.97216   0.00000  Uiso   1.00
H869   H     0.81844   0.45855   0.60588   0.00000  Uiso   1.00
H870   H     0.84819   0.54140   0.89415   0.00000  Uiso   1.00
H871   H     0.98628   0.55939   0.62133   0.00000  Uiso   1.00
H872   H     0.68051   0.44041   0.87858   0.00000  Uiso   1.00
H873   H     0.98229   0.42126   0.95687   0.00000  Uiso   1.00
H874   H     0.68448   0.57844   0.54305   0.00000  Uiso   1.00
H875   H     0.99795   0.53209   0.78786   0.00000  Uiso   1.00
H876   H     0.66868   0.46785   0.71218   0.00000  Uiso   1.00
N877   N     0.98173   0.51401   0.76212   0.00000  Uiso   1.00
N878   N     0.68494   0.48599   0.73788   0.00000  Uiso   1.00
O879   O     0.79482   0.57142   0.74686   0.00000  Uiso   1.00
O880   O     0.87185   0.42858   0.75314   0.00000  Uiso   1.00
O881   O     0.89496   0.58086   0.75502   0.00000  Uiso   1.00
O882   O     0.77171   0.41914   0.74497   0.00000  Uiso   1.00
O883   O     0.75518   0.49263   0.80854   0.00000  Uiso   1.00
O884   O     0.91149   0.50737   0.69145   0.00000  Uiso   1.00
O885   O     0.85532   0.50207   0.81671   0.00000  Uiso   1.00
O886   O     0.81134   0.49793   0.68329   0.00000  Uiso   1.00
C887   C     0.72601   0.46931   0.58705   0.00000  Uiso   1.00
N888   N     0.70022   0.46761   0.62394   0.00000  Uiso   1.00
C889   C     0.94066   0.53055   0.91290   0.00000  Uiso   1.00
N890   N     0.96644   0.53227   0.87601   0.00000  Uiso   1.00
S891   S     0.93095   0.34723   0.70515   0.00000  Uiso   1.00
O892   O     0.92279   0.38558   0.67475   0.00000  Uiso   1.00
O893   O     0.97574   0.37373   0.73152   0.00000  Uiso   1.00
O894   O     0.96189   0.63308   0.67471   0.00000  Uiso   1.00
H895   H     0.99922   0.63004   0.68513   0.00000  Uiso   1.00
S896   S     0.73556   0.65269   0.79461   0.00000  Uiso   1.00
O897   O     0.69135   0.62578   0.76803   0.00000  Uiso   1.00
O898   O     0.74395   0.61499   0.82547   0.00000  Uiso   1.00
O899   O     0.70367   0.36688   0.82413   0.00000  Uiso   1.00
H900   H     0.99380   0.34971   0.84001   0.00000  Uiso   1.00
C901   C     0.18132   0.93291   0.75006   0.00000  Uiso   1.00
C902   C     0.15201   0.73376   0.74993   0.00000  Uiso   1.00
C903   C     0.09105   0.80440   0.54095   0.00000  Uiso   1.00
C904   C     0.24231   0.86209   0.95901   0.00000  Uiso   1.00
C905   C     0.05141   0.78606   0.51366   0.00000  Uiso   1.00
C906   C     0.28196   0.88039   0.98629   0.00000  Uiso   1.00
C907   C     0.19071   0.98717   0.74208   0.00000  Uiso   1.00
C908   C     0.14262   0.67950   0.75789   0.00000  Uiso   1.00
C909   C     0.12788   0.82945   0.83313   0.00000  Uiso   1.00
C910   C     0.20546   0.83720   0.66686   0.00000  Uiso   1.00
C911   C     0.10389   0.82209   0.88064   0.00000  Uiso   1.00
C912   C     0.22945   0.84449   0.61934   0.00000  Uiso   1.00
C913   C     0.02859   0.77808   0.94303   0.00000  Uiso   1.00
C914   C     0.30482   0.88836   0.55690   0.00000  Uiso   1.00
C915   C     0.04593   0.78963   0.89862   0.00000  Uiso   1.00
C916   C     0.28747   0.87686   0.60132   0.00000  Uiso   1.00
C917   C     0.14333   0.84342   0.90767   0.00000  Uiso   1.00
C918   C     0.18999   0.82316   0.59233   0.00000  Uiso   1.00
C919   C     0.13168   0.82620   0.95095   0.00000  Uiso   1.00
C920   C     0.20167   0.84032   0.54902   0.00000  Uiso   1.00
C921   C     0.07101   0.79592   0.96916   0.00000  Uiso   1.00
C922   C     0.26237   0.87054   0.53080   0.00000  Uiso   1.00
C923   C     0.17698   0.83913   0.97695   0.00000  Uiso   1.00
C924   C     0.15637   0.82737   0.52302   0.00000  Uiso   1.00
Cu925  Cu    0.10737   0.82775   0.74516   0.00000  Uiso   1.00
Cu926  Cu    0.22596   0.83892   0.75483   0.00000  Uiso   1.00
H927   H     0.00295   0.76646   0.52778   0.00000  Uiso   1.00
H928   H     0.33044   0.89997   0.97216   0.00000  Uiso   1.00
H929   H     0.15177   0.79188   0.60588   0.00000  Uiso   1.00
H930   H     0.18153   0.87473   0.89415   0.00000  Uiso   1.00
H931   H     0.31962   0.89272   0.62133   0.00000  Uiso   1.00
H932   H     0.01384   0.77374   0.87858   0.00000  Uiso   1.00
H933   H     0.31563   0.75460   0.95687   0.00000  Uiso   1.00
H934   H     0.01781   0.91177   0.54305   0.00000  Uiso   1.00
H935   H     0.33129   0.86542   0.78786   0.00000  Uiso   1.00
H936   H     0.00201   0.80118   0.71218   0.00000  Uiso   1.00
N937   N     0.31506   0.84735   0.76212   0.00000  Uiso   1.00
N938   N     0.01827   0.81932   0.73788   0.00000  Uiso   1.00
O939   O     0.12815   0.90476   0.74686   0.00000  Uiso   1.00
O940   O     0.20518   0.76191   0.75314   0.00000  Uiso   1.00
O941   O     0.22829   0.91420   0.75502   0.00000  Uiso   1.00
O942   O     0.10504   0.75247   0.74497   0.00000  Uiso   1.00
O943   O     0.08851   0.82597   0.80854   0.00000  Uiso   1.00
O944   O     0.24482   0.84070   0.69145   0.00000  Uiso   1.00
O945   O     0.18866   0.83540   0.81671   0.00000  Uiso   1.00
O946   O     0.14468   0.83126   0.68329   0.00000  Uiso   1.00
C947   C     0.05934   0.80264   0.58705   0.00000  Uiso   1.00
N948   N     0.03356   0.80095   0.62394   0.00000  Uiso   1.00
C949   C     0.27400   0.86388   0.91290   0.00000  Uiso   1.00
N950   N     0.29977   0.86560   0.87601   0.00000  Uiso   1.00
S951   S     0.26428   0.68056   0.70515   0.00000  Uiso   1.00
O952   O     0.25613   0.71891   0.67475   0.00000  Uiso   1.00
O953   O     0.30907   0.70706   0.73152   0.00000  Uiso   1.00
O954   O     0.29523   0.96642   0.67471   0.00000  Uiso   1.00
H955   H     0.33255   0.96337   0.68513   0.00000  Uiso   1.00
S956   S     0.06890   0.98603   0.79461   0.00000  Uiso   1.00
O957   O     0.02469   0.95911   0.76803   0.00000  Uiso   1.00
O958   O     0.07728   0.94833   0.82547   0.00000  Uiso   1.00
O959   O     0.03700   0.70021   0.82413   0.00000  Uiso   1.00
H960   H     0.32713   0.68304   0.84001   0.00000  Uiso   1.00
C961   C     0.51466   0.93291   0.75006   0.00000  Uiso   1.00
C962   C     0.48534   0.73376   0.74993   0.00000  Uiso   1.00
C963   C     0.42438   0.80440   0.54095   0.00000  Uiso   1.00
C964   C     0.57564   0.86209   0.95901   0.00000  Uiso   1.00
C965   C     0.38475   0.78606   0.51366   0.00000  Uiso   1.00
C966   C     0.61530   0.88039   0.98629   0.00000  Uiso   1.00
C967   C     0.52404   0.98717   0.74208   0.00000  Uiso   1.00
C968   C     0.47595   0.67950   0.75789   0.00000  Uiso   1.00
C969   C     0.46121   0.82945   0.83313   0.00000  Uiso   1.00
C970   C     0.53879   0.83720   0.66686   0.00000  Uiso   1.00
C971   C     0.43722   0.82209   0.88064   0.00000  Uiso   1.00
C972   C     0.56279   0.84449   0.61934   0.00000  Uiso   1.00
C973   C     0.36192   0.77808   0.94303   0.00000  Uiso   1.00
C974   C     0.63815   0.88836   0.55690   0.00000  Uiso   1.00
C975   C     0.37927   0.78963   0.89862   0.00000  Uiso   1.00
C976   C     0.62080   0.87686   0.60132   0.00000  Uiso   1.00
C977   C     0.47667   0.84342   0.90767   0.00000  Uiso   1.00
C978   C     0.52333   0.82316   0.59233   0.00000  Uiso   1.00
C979   C     0.46502   0.82620   0.95095   0.00000  Uiso   1.00
C980   C     0.53500   0.84032   0.54902   0.00000  Uiso   1.00
C981   C     0.40434   0.79592   0.96916   0.00000  Uiso   1.00
C982   C     0.59570   0.87054   0.53080   0.00000  Uiso   1.00
C983   C     0.51031   0.83913   0.97695   0.00000  Uiso   1.00
C984   C     0.48971   0.82737   0.52302   0.00000  Uiso   1.00
Cu985  Cu    0.44071   0.82775   0.74516   0.00000  Uiso   1.00
Cu986  Cu    0.55929   0.83892   0.75483   0.00000  Uiso   1.00
H987   H     0.33628   0.76646   0.52778   0.00000  Uiso   1.00
H988   H     0.66377   0.89997   0.97216   0.00000  Uiso   1.00
H989   H     0.48511   0.79188   0.60588   0.00000  Uiso   1.00
H990   H     0.51486   0.87473   0.89415   0.00000  Uiso   1.00
H991   H     0.65295   0.89272   0.62133   0.00000  Uiso   1.00
H992   H     0.34718   0.77374   0.87858   0.00000  Uiso   1.00
H993   H     0.64896   0.75460   0.95687   0.00000  Uiso   1.00
H994   H     0.35115   0.91177   0.54305   0.00000  Uiso   1.00
H995   H     0.66462   0.86542   0.78786   0.00000  Uiso   1.00
H996   H     0.33534   0.80118   0.71218   0.00000  Uiso   1.00
N997   N     0.64839   0.84735   0.76212   0.00000  Uiso   1.00
N998   N     0.35161   0.81932   0.73788   0.00000  Uiso   1.00
O999   O     0.46148   0.90476   0.74686   0.00000  Uiso   1.00
O1000  O     0.53852   0.76191   0.75314   0.00000  Uiso   1.00
O1001  O     0.56163   0.91420   0.75502   0.00000  Uiso   1.00
O1002  O     0.43837   0.75247   0.74497   0.00000  Uiso   1.00
O1003  O     0.42185   0.82597   0.80854   0.00000  Uiso   1.00
O1004  O     0.57815   0.84070   0.69145   0.00000  Uiso   1.00
O1005  O     0.52199   0.83540   0.81671   0.00000  Uiso   1.00
O1006  O     0.47801   0.83126   0.68329   0.00000  Uiso   1.00
C1007  C     0.39267   0.80264   0.58705   0.00000  Uiso   1.00
N1008  N     0.36689   0.80095   0.62394   0.00000  Uiso   1.00
C1009  C     0.60733   0.86388   0.91290   0.00000  Uiso   1.00
N1010  N     0.63311   0.86560   0.87601   0.00000  Uiso   1.00
S1011  S     0.59762   0.68056   0.70515   0.00000  Uiso   1.00
O1012  O     0.58946   0.71891   0.67475   0.00000  Uiso   1.00
O1013  O     0.64240   0.70706   0.73152   0.00000  Uiso   1.00
O1014  O     0.62856   0.96642   0.67471   0.00000  Uiso   1.00
H1015  H     0.66588   0.96337   0.68513   0.00000  Uiso   1.00
S1016  S     0.40223   0.98603   0.79461   0.00000  Uiso   1.00
O1017  O     0.35802   0.95911   0.76803   0.00000  Uiso   1.00
O1018  O     0.41062   0.94833   0.82547   0.00000  Uiso   1.00
O1019  O     0.37033   0.70021   0.82413   0.00000  Uiso   1.00
H1020  H     0.66047   0.68304   0.84001   0.00000  Uiso   1.00
C1021  C     0.84799   0.93291   0.75006   0.00000  Uiso   1.00
C1022  C     0.81867   0.73376   0.74993   0.00000  Uiso   1.00
C1023  C     0.75771   0.80440   0.54095   0.00000  Uiso   1.00
C1024  C     0.90898   0.86209   0.95901   0.00000  Uiso   1.00
C1025  C     0.71808   0.78606   0.51366   0.00000  Uiso   1.00
C1026  C     0.94863   0.88039   0.98629   0.00000  Uiso   1.00
C1027  C     0.85737   0.98717   0.74208   0.00000  Uiso   1.00
C1028  C     0.80928   0.67950   0.75789   0.00000  Uiso   1.00
C1029  C     0.79454   0.82945   0.83313   0.00000  Uiso   1.00
C1030  C     0.87213   0.83720   0.66686   0.00000  Uiso   1.00
C1031  C     0.77056   0.82209   0.88064   0.00000  Uiso   1.00
C1032  C     0.89612   0.84449   0.61934   0.00000  Uiso   1.00
C1033  C     0.69526   0.77808   0.94303   0.00000  Uiso   1.00
C1034  C     0.97148   0.88836   0.55690   0.00000  Uiso   1.00
C1035  C     0.71260   0.78963   0.89862   0.00000  Uiso   1.00
C1036  C     0.95414   0.87686   0.60132   0.00000  Uiso   1.00
C1037  C     0.81000   0.84342   0.90767   0.00000  Uiso   1.00
C1038  C     0.85666   0.82316   0.59233   0.00000  Uiso   1.00
C1039  C     0.79835   0.82620   0.95095   0.00000  Uiso   1.00
C1040  C     0.86834   0.84032   0.54902   0.00000  Uiso   1.00
C1041  C     0.73768   0.79592   0.96916   0.00000  Uiso   1.00
C1042  C     0.92903   0.87054   0.53080   0.00000  Uiso   1.00
C1043  C     0.84365   0.83913   0.97695   0.00000  Uiso   1.00
C1044  C     0.82304   0.82737   0.52302   0.00000  Uiso   1.00
Cu1045 Cu    0.77404   0.82775   0.74516   0.00000  Uiso   1.00
Cu1046 Cu    0.89263   0.83892   0.75483   0.00000  Uiso   1.00
H1047  H     0.66962   0.76646   0.52778   0.00000  Uiso   1.00
H1048  H     0.99710   0.89997   0.97216   0.00000  Uiso   1.00
H1049  H     0.81844   0.79188   0.60588   0.00000  Uiso   1.00
H1050  H     0.84819   0.87473   0.89415   0.00000  Uiso   1.00
H1051  H     0.98628   0.89272   0.62133   0.00000  Uiso   1.00
H1052  H     0.68051   0.77374   0.87858   0.00000  Uiso   1.00
H1053  H     0.98229   0.75460   0.95687   0.00000  Uiso   1.00
H1054  H     0.68448   0.91177   0.54305   0.00000  Uiso   1.00
H1055  H     0.99795   0.86542   0.78786   0.00000  Uiso   1.00
H1056  H     0.66868   0.80118   0.71218   0.00000  Uiso   1.00
N1057  N     0.98173   0.84735   0.76212   0.00000  Uiso   1.00
N1058  N     0.68494   0.81932   0.73788   0.00000  Uiso   1.00
O1059  O     0.79482   0.90476   0.74686   0.00000  Uiso   1.00
O1060  O     0.87185   0.76191   0.75314   0.00000  Uiso   1.00
O1061  O     0.89496   0.91420   0.75502   0.00000  Uiso   1.00
O1062  O     0.77171   0.75247   0.74497   0.00000  Uiso   1.00
O1063  O     0.75518   0.82597   0.80854   0.00000  Uiso   1.00
O1064  O     0.91149   0.84070   0.69145   0.00000  Uiso   1.00
O1065  O     0.85532   0.83540   0.81671   0.00000  Uiso   1.00
O1066  O     0.81134   0.83126   0.68329   0.00000  Uiso   1.00
C1067  C     0.72601   0.80264   0.58705   0.00000  Uiso   1.00
N1068  N     0.70022   0.80095   0.62394   0.00000  Uiso   1.00
C1069  C     0.94066   0.86388   0.91290   0.00000  Uiso   1.00
N1070  N     0.96644   0.86560   0.87601   0.00000  Uiso   1.00
S1071  S     0.93095   0.68056   0.70515   0.00000  Uiso   1.00
O1072  O     0.92279   0.71891   0.67475   0.00000  Uiso   1.00
O1073  O     0.97574   0.70706   0.73152   0.00000  Uiso   1.00
O1074  O     0.96189   0.96642   0.67471   0.00000  Uiso   1.00
H1075  H     0.99922   0.96337   0.68513   0.00000  Uiso   1.00
S1076  S     0.73556   0.98603   0.79461   0.00000  Uiso   1.00
O1077  O     0.69135   0.95911   0.76803   0.00000  Uiso   1.00
O1078  O     0.74395   0.94833   0.82547   0.00000  Uiso   1.00
O1079  O     0.70367   0.70021   0.82413   0.00000  Uiso   1.00
H1080  H     0.99380   0.68304   0.84001   0.00000  Uiso   1.00
loop_
_geom_bond_atom_site_label_1
_geom_bond_atom_site_label_2
_geom_bond_distance
_geom_bond_site_symmetry_2
_ccdc_geom_bond_type
C1     C7      1.429   .     S
C1     O39     1.288   .     A
C1     O41     1.293   .     A
C2     O42     1.293   .     A
C2     O40     1.288   .     A
C2     C8      1.429   .     S
C3     C5      1.389   .     A
C3     C24     1.435   .     A
C3     C47     1.444   .     S
C4     C49     1.444   .     S
C4     C6      1.389   .     A
C4     C23     1.435   .     A
C5     H27     1.087   .     S
C5     C561    1.384   1_554 S
C6     H28     1.087   .     S
C6     C562    1.384   .     S
C7     C188    1.354   .     S
C7     S231    1.783   .     S
C8     C367    1.354   1_545 S
C8     S416    1.783   1_545 S
C9     O45     1.299   .     A
C9     C11     1.467   .     S
C9     O43     1.302   .     A
C10    C12     1.467   .     S
C10    O46     1.299   .     A
C10    O44     1.302   .     A
C11    C15     1.395   .     A
C11    C17     1.396   .     A
C12    C18     1.396   .     A
C12    C16     1.395   .     A
C13    C21     1.405   .     A
C13    C15     1.390   .     A
C13    H153    1.084   1_455 S
C14    C22     1.405   .     A
C14    C16     1.390   .     A
C14    H94     1.084   .     S
C15    H32     1.081   .     S
C16    H31     1.081   .     S
C17    H30     1.074   .     S
C17    C19     1.409   .     A
C18    H29     1.074   .     S
C18    C20     1.409   .     A
C19    C23     1.438   .     A
C19    C21     1.416   .     A
C20    C24     1.438   .     A
C20    C22     1.416   .     A
C21    C545    1.384   .     S
C22    C546    1.384   1_554 S
C23    C564    1.441   .     S
C24    C563    1.441   1_554 S
Cu25   O42     1.972   .     S
Cu25   N38     2.025   .     S
Cu25   O43     1.938   .     S
Cu25   O39     1.986   .     S
Cu25   Cu26    2.695   .     S
Cu25   O46     1.915   .     S
Cu26   N37     2.025   .     S
Cu26   O40     1.986   .     S
Cu26   O44     1.938   .     S
Cu26   O45     1.915   .     S
Cu26   O41     1.972   .     S
H33    C73     1.084   .     S
H34    C134    1.084   1_455 S
H35    N37     1.027   .     S
H36    N38     1.027   .     S
N37    N98     1.284   .     S
N38    N157    1.284   1_455 S
C47    N48     1.157   .     T
C49    N50     1.157   .     T
S51    O52     1.503   .     D
S51    O53     1.502   .     D
S51    C367    1.783   1_545 S
S51    O414    1.681   1_545 S
O54    H55     0.990   .     S
O54    S231    1.681   .     S
S56    O58     1.503   .     D
S56    O57     1.500   .     D
S56    C188    1.783   .     S
S56    O239    1.679   .     S
O59    S416    1.679   1_545 S
O59    H180    0.991   1_455 S
H60    O119    0.991   .     S
C61    C67     1.429   .     S
C61    O99     1.288   .     A
C61    O101    1.293   .     A
C62    O102    1.293   .     A
C62    O100    1.288   .     A
C62    C68     1.429   .     S
C63    C65     1.389   .     A
C63    C84     1.435   .     A
C63    C107    1.444   .     S
C64    C109    1.444   .     S
C64    C66     1.389   .     A
C64    C83     1.435   .     A
C65    H87     1.087   .     S
C65    C621    1.384   1_554 S
C66    H88     1.087   .     S
C66    C622    1.384   .     S
C67    C248    1.354   .     S
C67    S291    1.783   .     S
C68    C427    1.354   1_545 S
C68    S476    1.783   1_545 S
C69    O105    1.299   .     A
C69    C71     1.467   .     S
C69    O103    1.302   .     A
C70    C72     1.467   .     S
C70    O106    1.299   .     A
C70    O104    1.302   .     A
C71    C75     1.395   .     A
C71    C77     1.396   .     A
C72    C78     1.396   .     A
C72    C76     1.395   .     A
C73    C81     1.405   .     A
C73    C75     1.390   .     A
C74    C82     1.405   .     A
C74    C76     1.390   .     A
C74    H154    1.084   .     S
C75    H92     1.081   .     S
C76    H91     1.081   .     S
C77    H90     1.074   .     S
C77    C79     1.409   .     A
C78    H89     1.074   .     S
C78    C80     1.409   .     A
C79    C83     1.438   .     A
C79    C81     1.416   .     A
C80    C84     1.438   .     A
C80    C82     1.416   .     A
C81    C605    1.384   .     S
C82    C606    1.384   1_554 S
C83    C624    1.441   .     S
C84    C623    1.441   1_554 S
Cu85   O102    1.972   .     S
Cu85   N98     2.025   .     S
Cu85   O103    1.938   .     S
Cu85   O99     1.986   .     S
Cu85   Cu86    2.695   .     S
Cu85   O106    1.915   .     S
Cu86   N97     2.025   .     S
Cu86   O100    1.986   .     S
Cu86   O104    1.938   .     S
Cu86   O105    1.915   .     S
Cu86   O101    1.972   .     S
H93    C133    1.084   .     S
H95    N97     1.027   .     S
H96    N98     1.027   .     S
N97    N158    1.284   .     S
C107   N108    1.157   .     T
C109   N110    1.157   .     T
S111   O112    1.503   .     D
S111   O113    1.502   .     D
S111   C427    1.783   1_545 S
S111   O474    1.681   1_545 S
O114   H115    0.990   .     S
O114   S291    1.681   .     S
S116   O118    1.503   .     D
S116   O117    1.500   .     D
S116   C248    1.783   .     S
S116   O299    1.679   .     S
O119   S476    1.679   1_545 S
H120   O179    0.991   .     S
C121   C127    1.429   .     S
C121   O159    1.288   .     A
C121   O161    1.293   .     A
C122   O162    1.293   .     A
C122   O160    1.288   .     A
C122   C128    1.429   .     S
C123   C125    1.389   .     A
C123   C144    1.435   .     A
C123   C167    1.444   .     S
C124   C169    1.444   .     S
C124   C126    1.389   .     A
C124   C143    1.435   .     A
C125   H147    1.087   .     S
C125   C681    1.384   1_554 S
C126   H148    1.087   .     S
C126   C682    1.384   .     S
C127   C308    1.354   .     S
C127   S351    1.783   .     S
C128   C487    1.354   1_545 S
C128   S536    1.783   1_545 S
C129   O165    1.299   .     A
C129   C131    1.467   .     S
C129   O163    1.302   .     A
C130   C132    1.467   .     S
C130   O166    1.299   .     A
C130   O164    1.302   .     A
C131   C135    1.395   .     A
C131   C137    1.396   .     A
C132   C138    1.396   .     A
C132   C136    1.395   .     A
C133   C141    1.405   .     A
C133   C135    1.390   .     A
C134   C142    1.405   .     A
C134   C136    1.390   .     A
C134   H34     1.084   1_655 S
C135   H152    1.081   .     S
C136   H151    1.081   .     S
C137   H150    1.074   .     S
C137   C139    1.409   .     A
C138   H149    1.074   .     S
C138   C140    1.409   .     A
C139   C143    1.438   .     A
C139   C141    1.416   .     A
C140   C144    1.438   .     A
C140   C142    1.416   .     A
C141   C665    1.384   .     S
C142   C666    1.384   1_554 S
C143   C684    1.441   .     S
C144   C683    1.441   1_554 S
Cu145  O162    1.972   .     S
Cu145  N158    2.025   .     S
Cu145  O163    1.938   .     S
Cu145  O159    1.986   .     S
Cu145  Cu146   2.695   .     S
Cu145  O166    1.915   .     S
Cu146  N157    2.025   .     S
Cu146  O160    1.986   .     S
Cu146  O164    1.938   .     S
Cu146  O165    1.915   .     S
Cu146  O161    1.972   .     S
H153   C13     1.084   1_655 S
H155   N157    1.027   .     S
H156   N158    1.027   .     S
N157   N38     1.284   1_655 S
C167   N168    1.157   .     T
C169   N170    1.157   .     T
S171   O172    1.503   .     D
S171   O173    1.502   .     D
S171   C487    1.783   1_545 S
S171   O534    1.681   1_545 S
O174   H175    0.990   .     S
O174   S351    1.681   .     S
S176   O178    1.503   .     D
S176   O177    1.500   .     D
S176   C308    1.783   .     S
S176   O359    1.679   .     S
O179   S536    1.679   1_545 S
H180   O59     0.991   1_655 S
C181   C187    1.429   .     S
C181   O219    1.288   .     A
C181   O221    1.293   .     A
C182   O222    1.293   .     A
C182   O220    1.288   .     A
C182   C188    1.429   .     S
C183   C185    1.389   .     A
C183   C204    1.435   .     A
C183   C227    1.444   .     S
C184   C229    1.444   .     S
C184   C186    1.389   .     A
C184   C203    1.435   .     A
C185   H207    1.087   .     S
C185   C741    1.384   1_554 S
C186   H208    1.087   .     S
C186   C742    1.384   .     S
C187   C368    1.354   .     S
C187   S411    1.783   .     S
C189   O225    1.299   .     A
C189   C191    1.467   .     S
C189   O223    1.302   .     A
C190   C192    1.467   .     S
C190   O226    1.299   .     A
C190   O224    1.302   .     A
C191   C195    1.395   .     A
C191   C197    1.396   .     A
C192   C198    1.396   .     A
C192   C196    1.395   .     A
C193   C201    1.405   .     A
C193   C195    1.390   .     A
C193   H333    1.084   1_455 S
C194   C202    1.405   .     A
C194   C196    1.390   .     A
C194   H274    1.084   .     S
C195   H212    1.081   .     S
C196   H211    1.081   .     S
C197   H210    1.074   .     S
C197   C199    1.409   .     A
C198   H209    1.074   .     S
C198   C200    1.409   .     A
C199   C203    1.438   .     A
C199   C201    1.416   .     A
C200   C204    1.438   .     A
C200   C202    1.416   .     A
C201   C725    1.384   .     S
C202   C726    1.384   1_554 S
C203   C744    1.441   .     S
C204   C743    1.441   1_554 S
Cu205  O222    1.972   .     S
Cu205  N218    2.025   .     S
Cu205  O223    1.938   .     S
Cu205  O219    1.986   .     S
Cu205  Cu206   2.695   .     S
Cu205  O226    1.915   .     S
Cu206  N217    2.025   .     S
Cu206  O220    1.986   .     S
Cu206  O224    1.938   .     S
Cu206  O225    1.915   .     S
Cu206  O221    1.972   .     S
H213   C253    1.084   .     S
H214   C314    1.084   1_455 S
H215   N217    1.027   .     S
H216   N218    1.027   .     S
N217   N278    1.284   .     S
N218   N337    1.284   1_455 S
C227   N228    1.157   .     T
C229   N230    1.157   .     T
S231   O232    1.503   .     D
S231   O233    1.502   .     D
O234   H235    0.990   .     S
O234   S411    1.681   .     S
S236   O238    1.503   .     D
S236   O237    1.500   .     D
S236   C368    1.783   .     S
S236   O419    1.679   .     S
O239   H360    0.991   1_455 S
H240   O299    0.991   .     S
C241   C247    1.429   .     S
C241   O279    1.288   .     A
C241   O281    1.293   .     A
C242   O282    1.293   .     A
C242   O280    1.288   .     A
C242   C248    1.429   .     S
C243   C245    1.389   .     A
C243   C264    1.435   .     A
C243   C287    1.444   .     S
C244   C289    1.444   .     S
C244   C246    1.389   .     A
C244   C263    1.435   .     A
C245   H267    1.087   .     S
C245   C801    1.384   1_554 S
C246   H268    1.087   .     S
C246   C802    1.384   .     S
C247   C428    1.354   .     S
C247   S471    1.783   .     S
C249   O285    1.299   .     A
C249   C251    1.467   .     S
C249   O283    1.302   .     A
C250   C252    1.467   .     S
C250   O286    1.299   .     A
C250   O284    1.302   .     A
C251   C255    1.395   .     A
C251   C257    1.396   .     A
C252   C258    1.396   .     A
C252   C256    1.395   .     A
C253   C261    1.405   .     A
C253   C255    1.390   .     A
C254   C262    1.405   .     A
C254   C256    1.390   .     A
C254   H334    1.084   .     S
C255   H272    1.081   .     S
C256   H271    1.081   .     S
C257   H270    1.074   .     S
C257   C259    1.409   .     A
C258   H269    1.074   .     S
C258   C260    1.409   .     A
C259   C263    1.438   .     A
C259   C261    1.416   .     A
C260   C264    1.438   .     A
C260   C262    1.416   .     A
C261   C785    1.384   .     S
C262   C786    1.384   1_554 S
C263   C804    1.441   .     S
C264   C803    1.441   1_554 S
Cu265  O282    1.972   .     S
Cu265  N278    2.025   .     S
Cu265  O283    1.938   .     S
Cu265  O279    1.986   .     S
Cu265  Cu266   2.695   .     S
Cu265  O286    1.915   .     S
Cu266  N277    2.025   .     S
Cu266  O280    1.986   .     S
Cu266  O284    1.938   .     S
Cu266  O285    1.915   .     S
Cu266  O281    1.972   .     S
H273   C313    1.084   .     S
H275   N277    1.027   .     S
H276   N278    1.027   .     S
N277   N338    1.284   .     S
C287   N288    1.157   .     T
C289   N290    1.157   .     T
S291   O292    1.503   .     D
S291   O293    1.502   .     D
O294   H295    0.990   .     S
O294   S471    1.681   .     S
S296   O298    1.503   .     D
S296   O297    1.500   .     D
S296   C428    1.783   .     S
S296   O479    1.679   .     S
H300   O359    0.991   .     S
C301   C307    1.429   .     S
C301   O339    1.288   .     A
C301   O341    1.293   .     A
C302   O342    1.293   .     A
C302   O340    1.288   .     A
C302   C308    1.429   .     S
C303   C305    1.389   .     A
C303   C324    1.435   .     A
C303   C347    1.444   .     S
C304   C349    1.444   .     S
C304   C306    1.389   .     A
C304   C323    1.435   .     A
C305   H327    1.087   .     S
C305   C861    1.384   1_554 S
C306   H328    1.087   .     S
C306   C862    1.384   .     S
C307   C488    1.354   .     S
C307   S531    1.783   .     S
C309   O345    1.299   .     A
C309   C311    1.467   .     S
C309   O343    1.302   .     A
C310   C312    1.467   .     S
C310   O346    1.299   .     A
C310   O344    1.302   .     A
C311   C315    1.395   .     A
C311   C317    1.396   .     A
C312   C318    1.396   .     A
C312   C316    1.395   .     A
C313   C321    1.405   .     A
C313   C315    1.390   .     A
C314   C322    1.405   .     A
C314   C316    1.390   .     A
C314   H214    1.084   1_655 S
C315   H332    1.081   .     S
C316   H331    1.081   .     S
C317   H330    1.074   .     S
C317   C319    1.409   .     A
C318   H329    1.074   .     S
C318   C320    1.409   .     A
C319   C323    1.438   .     A
C319   C321    1.416   .     A
C320   C324    1.438   .     A
C320   C322    1.416   .     A
C321   C845    1.384   .     S
C322   C846    1.384   1_554 S
C323   C864    1.441   .     S
C324   C863    1.441   1_554 S
Cu325  O342    1.972   .     S
Cu325  N338    2.025   .     S
Cu325  O343    1.938   .     S
Cu325  O339    1.986   .     S
Cu325  Cu326   2.695   .     S
Cu325  O346    1.915   .     S
Cu326  N337    2.025   .     S
Cu326  O340    1.986   .     S
Cu326  O344    1.938   .     S
Cu326  O345    1.915   .     S
Cu326  O341    1.972   .     S
H333   C193    1.084   1_655 S
H335   N337    1.027   .     S
H336   N338    1.027   .     S
N337   N218    1.284   1_655 S
C347   N348    1.157   .     T
C349   N350    1.157   .     T
S351   O352    1.503   .     D
S351   O353    1.502   .     D
O354   H355    0.990   .     S
O354   S531    1.681   .     S
S356   O358    1.503   .     D
S356   O357    1.500   .     D
S356   C488    1.783   .     S
S356   O539    1.679   .     S
H360   O239    0.991   1_655 S
C361   C367    1.429   .     S
C361   O399    1.288   .     A
C361   O401    1.293   .     A
C362   O402    1.293   .     A
C362   O400    1.288   .     A
C362   C368    1.429   .     S
C363   C365    1.389   .     A
C363   C384    1.435   .     A
C363   C407    1.444   .     S
C364   C409    1.444   .     S
C364   C366    1.389   .     A
C364   C383    1.435   .     A
C365   H387    1.087   .     S
C365   C921    1.384   1_554 S
C366   H388    1.087   .     S
C366   C922    1.384   .     S
C367   C8      1.354   1_565 S
C367   S51     1.783   1_565 S
C369   O405    1.299   .     A
C369   C371    1.467   .     S
C369   O403    1.302   .     A
C370   C372    1.467   .     S
C370   O406    1.299   .     A
C370   O404    1.302   .     A
C371   C375    1.395   .     A
C371   C377    1.396   .     A
C372   C378    1.396   .     A
C372   C376    1.395   .     A
C373   C381    1.405   .     A
C373   C375    1.390   .     A
C373   H513    1.084   1_455 S
C374   C382    1.405   .     A
C374   C376    1.390   .     A
C374   H454    1.084   .     S
C375   H392    1.081   .     S
C376   H391    1.081   .     S
C377   H390    1.074   .     S
C377   C379    1.409   .     A
C378   H389    1.074   .     S
C378   C380    1.409   .     A
C379   C383    1.438   .     A
C379   C381    1.416   .     A
C380   C384    1.438   .     A
C380   C382    1.416   .     A
C381   C905    1.384   .     S
C382   C906    1.384   1_554 S
C383   C924    1.441   .     S
C384   C923    1.441   1_554 S
Cu385  O402    1.972   .     S
Cu385  N398    2.025   .     S
Cu385  O403    1.938   .     S
Cu385  O399    1.986   .     S
Cu385  Cu386   2.695   .     S
Cu385  O406    1.915   .     S
Cu386  N397    2.025   .     S
Cu386  O400    1.986   .     S
Cu386  O404    1.938   .     S
Cu386  O405    1.915   .     S
Cu386  O401    1.972   .     S
H393   C433    1.084   .     S
H394   C494    1.084   1_455 S
H395   N397    1.027   .     S
H396   N398    1.027   .     S
N397   N458    1.284   .     S
N398   N517    1.284   1_455 S
C407   N408    1.157   .     T
C409   N410    1.157   .     T
S411   O412    1.503   .     D
S411   O413    1.502   .     D
O414   H415    0.990   .     S
O414   S51     1.681   1_565 S
S416   O418    1.503   .     D
S416   O417    1.500   .     D
S416   C8      1.783   1_565 S
S416   O59     1.679   1_565 S
O419   H540    0.991   1_455 S
H420   O479    0.991   .     S
C421   C427    1.429   .     S
C421   O459    1.288   .     A
C421   O461    1.293   .     A
C422   O462    1.293   .     A
C422   O460    1.288   .     A
C422   C428    1.429   .     S
C423   C425    1.389   .     A
C423   C444    1.435   .     A
C423   C467    1.444   .     S
C424   C469    1.444   .     S
C424   C426    1.389   .     A
C424   C443    1.435   .     A
C425   H447    1.087   .     S
C425   C981    1.384   1_554 S
C426   H448    1.087   .     S
C426   C982    1.384   .     S
C427   C68     1.354   1_565 S
C427   S111    1.783   1_565 S
C429   O465    1.299   .     A
C429   C431    1.467   .     S
C429   O463    1.302   .     A
C430   C432    1.467   .     S
C430   O466    1.299   .     A
C430   O464    1.302   .     A
C431   C435    1.395   .     A
C431   C437    1.396   .     A
C432   C438    1.396   .     A
C432   C436    1.395   .     A
C433   C441    1.405   .     A
C433   C435    1.390   .     A
C434   C442    1.405   .     A
C434   C436    1.390   .     A
C434   H514    1.084   .     S
C435   H452    1.081   .     S
C436   H451    1.081   .     S
C437   H450    1.074   .     S
C437   C439    1.409   .     A
C438   H449    1.074   .     S
C438   C440    1.409   .     A
C439   C443    1.438   .     A
C439   C441    1.416   .     A
C440   C444    1.438   .     A
C440   C442    1.416   .     A
C441   C965    1.384   .     S
C442   C966    1.384   1_554 S
C443   C984    1.441   .     S
C444   C983    1.441   1_554 S
Cu445  O462    1.972   .     S
Cu445  N458    2.025   .     S
Cu445  O463    1.938   .     S
Cu445  O459    1.986   .     S
Cu445  Cu446   2.695   .     S
Cu445  O466    1.915   .     S
Cu446  N457    2.025   .     S
Cu446  O460    1.986   .     S
Cu446  O464    1.938   .     S
Cu446  O465    1.915   .     S
Cu446  O461    1.972   .     S
H453   C493    1.084   .     S
H455   N457    1.027   .     S
H456   N458    1.027   .     S
N457   N518    1.284   .     S
C467   N468    1.157   .     T
C469   N470    1.157   .     T
S471   O472    1.503   .     D
S471   O473    1.502   .     D
O474   H475    0.990   .     S
O474   S111    1.681   1_565 S
S476   O478    1.503   .     D
S476   O477    1.500   .     D
S476   C68     1.783   1_565 S
S476   O119    1.679   1_565 S
H480   O539    0.991   .     S
C481   C487    1.429   .     S
C481   O519    1.288   .     A
C481   O521    1.293   .     A
C482   O522    1.293   .     A
C482   O520    1.288   .     A
C482   C488    1.429   .     S
C483   C485    1.389   .     A
C483   C504    1.435   .     A
C483   C527    1.444   .     S
C484   C529    1.444   .     S
C484   C486    1.389   .     A
C484   C503    1.435   .     A
C485   H507    1.087   .     S
C485   C1041   1.384   1_554 S
C486   H508    1.087   .     S
C486   C1042   1.384   .     S
C487   C128    1.354   1_565 S
C487   S171    1.783   1_565 S
C489   O525    1.299   .     A
C489   C491    1.467   .     S
C489   O523    1.302   .     A
C490   C492    1.467   .     S
C490   O526    1.299   .     A
C490   O524    1.302   .     A
C491   C495    1.395   .     A
C491   C497    1.396   .     A
C492   C498    1.396   .     A
C492   C496    1.395   .     A
C493   C501    1.405   .     A
C493   C495    1.390   .     A
C494   C502    1.405   .     A
C494   C496    1.390   .     A
C494   H394    1.084   1_655 S
C495   H512    1.081   .     S
C496   H511    1.081   .     S
C497   H510    1.074   .     S
C497   C499    1.409   .     A
C498   H509    1.074   .     S
C498   C500    1.409   .     A
C499   C503    1.438   .     A
C499   C501    1.416   .     A
C500   C504    1.438   .     A
C500   C502    1.416   .     A
C501   C1025   1.384   .     S
C502   C1026   1.384   1_554 S
C503   C1044   1.441   .     S
C504   C1043   1.441   1_554 S
Cu505  O522    1.972   .     S
Cu505  N518    2.025   .     S
Cu505  O523    1.938   .     S
Cu505  O519    1.986   .     S
Cu505  Cu506   2.695   .     S
Cu505  O526    1.915   .     S
Cu506  N517    2.025   .     S
Cu506  O520    1.986   .     S
Cu506  O524    1.938   .     S
Cu506  O525    1.915   .     S
Cu506  O521    1.972   .     S
H513   C373    1.084   1_655 S
H515   N517    1.027   .     S
H516   N518    1.027   .     S
N517   N398    1.284   1_655 S
C527   N528    1.157   .     T
C529   N530    1.157   .     T
S531   O532    1.503   .     D
S531   O533    1.502   .     D
O534   H535    0.990   .     S
O534   S171    1.681   1_565 S
S536   O538    1.503   .     D
S536   O537    1.500   .     D
S536   C128    1.783   1_565 S
S536   O179    1.679   1_565 S
H540   O419    0.991   1_655 S
C541   C547    1.429   .     S
C541   O579    1.288   .     A
C541   O581    1.293   .     A
C542   O582    1.293   .     A
C542   O580    1.288   .     A
C542   C548    1.429   .     S
C543   C545    1.389   .     A
C543   C564    1.435   .     A
C543   C587    1.444   .     S
C544   C589    1.444   .     S
C544   C546    1.389   .     A
C544   C563    1.435   .     A
C545   H567    1.087   .     S
C546   H568    1.087   .     S
C546   C22     1.384   1_556 S
C547   C728    1.354   .     S
C547   S771    1.783   .     S
C548   C907    1.354   1_545 S
C548   S956    1.783   1_545 S
C549   O585    1.299   .     A
C549   C551    1.467   .     S
C549   O583    1.302   .     A
C550   C552    1.467   .     S
C550   O586    1.299   .     A
C550   O584    1.302   .     A
C551   C555    1.395   .     A
C551   C557    1.396   .     A
C552   C558    1.396   .     A
C552   C556    1.395   .     A
C553   C561    1.405   .     A
C553   C555    1.390   .     A
C553   H693    1.084   1_455 S
C554   C562    1.405   .     A
C554   C556    1.390   .     A
C554   H634    1.084   .     S
C555   H572    1.081   .     S
C556   H571    1.081   .     S
C557   H570    1.074   .     S
C557   C559    1.409   .     A
C558   H569    1.074   .     S
C558   C560    1.409   .     A
C559   C563    1.438   .     A
C559   C561    1.416   .     A
C560   C564    1.438   .     A
C560   C562    1.416   .     A
C561   C5      1.384   1_556 S
C563   C24     1.441   1_556 S
Cu565  O582    1.972   .     S
Cu565  N578    2.025   .     S
Cu565  O583    1.938   .     S
Cu565  O579    1.986   .     S
Cu565  Cu566   2.695   .     S
Cu565  O586    1.915   .     S
Cu566  N577    2.025   .     S
Cu566  O580    1.986   .     S
Cu566  O584    1.938   .     S
Cu566  O585    1.915   .     S
Cu566  O581    1.972   .     S
H573   C613    1.084   .     S
H574   C674    1.084   1_455 S
H575   N577    1.027   .     S
H576   N578    1.027   .     S
N577   N638    1.284   .     S
N578   N697    1.284   1_455 S
C587   N588    1.157   .     T
C589   N590    1.157   .     T
S591   O592    1.503   .     D
S591   O593    1.502   .     D
S591   C907    1.783   1_545 S
S591   O954    1.681   1_545 S
O594   H595    0.990   .     S
O594   S771    1.681   .     S
S596   O598    1.503   .     D
S596   O597    1.500   .     D
S596   C728    1.783   .     S
S596   O779    1.679   .     S
O599   S956    1.679   1_545 S
O599   H720    0.991   1_455 S
H600   O659    0.991   .     S
C601   C607    1.429   .     S
C601   O639    1.288   .     A
C601   O641    1.293   .     A
C602   O642    1.293   .     A
C602   O640    1.288   .     A
C602   C608    1.429   .     S
C603   C605    1.389   .     A
C603   C624    1.435   .     A
C603   C647    1.444   .     S
C604   C649    1.444   .     S
C604   C606    1.389   .     A
C604   C623    1.435   .     A
C605   H627    1.087   .     S
C606   H628    1.087   .     S
C606   C82     1.384   1_556 S
C607   C788    1.354   .     S
C607   S831    1.783   .     S
C608   C967    1.354   1_545 S
C608   S1016   1.783   1_545 S
C609   O645    1.299   .     A
C609   C611    1.467   .     S
C609   O643    1.302   .     A
C610   C612    1.467   .     S
C610   O646    1.299   .     A
C610   O644    1.302   .     A
C611   C615    1.395   .     A
C611   C617    1.396   .     A
C612   C618    1.396   .     A
C612   C616    1.395   .     A
C613   C621    1.405   .     A
C613   C615    1.390   .     A
C614   C622    1.405   .     A
C614   C616    1.390   .     A
C614   H694    1.084   .     S
C615   H632    1.081   .     S
C616   H631    1.081   .     S
C617   H630    1.074   .     S
C617   C619    1.409   .     A
C618   H629    1.074   .     S
C618   C620    1.409   .     A
C619   C623    1.438   .     A
C619   C621    1.416   .     A
C620   C624    1.438   .     A
C620   C622    1.416   .     A
C621   C65     1.384   1_556 S
C623   C84     1.441   1_556 S
Cu625  O642    1.972   .     S
Cu625  N638    2.025   .     S
Cu625  O643    1.938   .     S
Cu625  O639    1.986   .     S
Cu625  Cu626   2.695   .     S
Cu625  O646    1.915   .     S
Cu626  N637    2.025   .     S
Cu626  O640    1.986   .     S
Cu626  O644    1.938   .     S
Cu626  O645    1.915   .     S
Cu626  O641    1.972   .     S
H633   C673    1.084   .     S
H635   N637    1.027   .     S
H636   N638    1.027   .     S
N637   N698    1.284   .     S
C647   N648    1.157   .     T
C649   N650    1.157   .     T
S651   O652    1.503   .     D
S651   O653    1.502   .     D
S651   C967    1.783   1_545 S
S651   O1014   1.681   1_545 S
O654   H655    0.990   .     S
O654   S831    1.681   .     S
S656   O658    1.503   .     D
S656   O657    1.500   .     D
S656   C788    1.783   .     S
S656   O839    1.679   .     S
O659   S1016   1.679   1_545 S
H660   O719    0.991   .     S
C661   C667    1.429   .     S
C661   O699    1.288   .     A
C661   O701    1.293   .     A
C662   O702    1.293   .     A
C662   O700    1.288   .     A
C662   C668    1.429   .     S
C663   C665    1.389   .     A
C663   C684    1.435   .     A
C663   C707    1.444   .     S
C664   C709    1.444   .     S
C664   C666    1.389   .     A
C664   C683    1.435   .     A
C665   H687    1.087   .     S
C666   H688    1.087   .     S
C666   C142    1.384   1_556 S
C667   C848    1.354   .     S
C667   S891    1.783   .     S
C668   C1027   1.354   1_545 S
C668   S1076   1.783   1_545 S
C669   O705    1.299   .     A
C669   C671    1.467   .     S
C669   O703    1.302   .     A
C670   C672    1.467   .     S
C670   O706    1.299   .     A
C670   O704    1.302   .     A
C671   C675    1.395   .     A
C671   C677    1.396   .     A
C672   C678    1.396   .     A
C672   C676    1.395   .     A
C673   C681    1.405   .     A
C673   C675    1.390   .     A
C674   C682    1.405   .     A
C674   C676    1.390   .     A
C674   H574    1.084   1_655 S
C675   H692    1.081   .     S
C676   H691    1.081   .     S
C677   H690    1.074   .     S
C677   C679    1.409   .     A
C678   H689    1.074   .     S
C678   C680    1.409   .     A
C679   C683    1.438   .     A
C679   C681    1.416   .     A
C680   C684    1.438   .     A
C680   C682    1.416   .     A
C681   C125    1.384   1_556 S
C683   C144    1.441   1_556 S
Cu685  O702    1.972   .     S
Cu685  N698    2.025   .     S
Cu685  O703    1.938   .     S
Cu685  O699    1.986   .     S
Cu685  Cu686   2.695   .     S
Cu685  O706    1.915   .     S
Cu686  N697    2.025   .     S
Cu686  O700    1.986   .     S
Cu686  O704    1.938   .     S
Cu686  O705    1.915   .     S
Cu686  O701    1.972   .     S
H693   C553    1.084   1_655 S
H695   N697    1.027   .     S
H696   N698    1.027   .     S
N697   N578    1.284   1_655 S
C707   N708    1.157   .     T
C709   N710    1.157   .     T
S711   O712    1.503   .     D
S711   O713    1.502   .     D
S711   C1027   1.783   1_545 S
S711   O1074   1.681   1_545 S
O714   H715    0.990   .     S
O714   S891    1.681   .     S
S716   O718    1.503   .     D
S716   O717    1.500   .     D
S716   C848    1.783   .     S
S716   O899    1.679   .     S
O719   S1076   1.679   1_545 S
H720   O599    0.991   1_655 S
C721   C727    1.429   .     S
C721   O759    1.288   .     A
C721   O761    1.293   .     A
C722   O762    1.293   .     A
C722   O760    1.288   .     A
C722   C728    1.429   .     S
C723   C725    1.389   .     A
C723   C744    1.435   .     A
C723   C767    1.444   .     S
C724   C769    1.444   .     S
C724   C726    1.389   .     A
C724   C743    1.435   .     A
C725   H747    1.087   .     S
C726   H748    1.087   .     S
C726   C202    1.384   1_556 S
C727   C908    1.354   .     S
C727   S951    1.783   .     S
C729   O765    1.299   .     A
C729   C731    1.467   .     S
C729   O763    1.302   .     A
C730   C732    1.467   .     S
C730   O766    1.299   .     A
C730   O764    1.302   .     A
C731   C735    1.395   .     A
C731   C737    1.396   .     A
C732   C738    1.396   .     A
C732   C736    1.395   .     A
C733   C741    1.405   .     A
C733   C735    1.390   .     A
C733   H873    1.084   1_455 S
C734   C742    1.405   .     A
C734   C736    1.390   .     A
C734   H814    1.084   .     S
C735   H752    1.081   .     S
C736   H751    1.081   .     S
C737   H750    1.074   .     S
C737   C739    1.409   .     A
C738   H749    1.074   .     S
C738   C740    1.409   .     A
C739   C743    1.438   .     A
C739   C741    1.416   .     A
C740   C744    1.438   .     A
C740   C742    1.416   .     A
C741   C185    1.384   1_556 S
C743   C204    1.441   1_556 S
Cu745  O762    1.972   .     S
Cu745  N758    2.025   .     S
Cu745  O763    1.938   .     S
Cu745  O759    1.986   .     S
Cu745  Cu746   2.695   .     S
Cu745  O766    1.915   .     S
Cu746  N757    2.025   .     S
Cu746  O760    1.986   .     S
Cu746  O764    1.938   .     S
Cu746  O765    1.915   .     S
Cu746  O761    1.972   .     S
H753   C793    1.084   .     S
H754   C854    1.084   1_455 S
H755   N757    1.027   .     S
H756   N758    1.027   .     S
N757   N818    1.284   .     S
N758   N877    1.284   1_455 S
C767   N768    1.157   .     T
C769   N770    1.157   .     T
S771   O772    1.503   .     D
S771   O773    1.502   .     D
O774   H775    0.990   .     S
O774   S951    1.681   .     S
S776   O778    1.503   .     D
S776   O777    1.500   .     D
S776   C908    1.783   .     S
S776   O959    1.679   .     S
O779   H900    0.991   1_455 S
H780   O839    0.991   .     S
C781   C787    1.429   .     S
C781   O819    1.288   .     A
C781   O821    1.293   .     A
C782   O822    1.293   .     A
C782   O820    1.288   .     A
C782   C788    1.429   .     S
C783   C785    1.389   .     A
C783   C804    1.435   .     A
C783   C827    1.444   .     S
C784   C829    1.444   .     S
C784   C786    1.389   .     A
C784   C803    1.435   .     A
C785   H807    1.087   .     S
C786   H808    1.087   .     S
C786   C262    1.384   1_556 S
C787   C968    1.354   .     S
C787   S1011   1.783   .     S
C789   O825    1.299   .     A
C789   C791    1.467   .     S
C789   O823    1.302   .     A
C790   C792    1.467   .     S
C790   O826    1.299   .     A
C790   O824    1.302   .     A
C791   C795    1.395   .     A
C791   C797    1.396   .     A
C792   C798    1.396   .     A
C792   C796    1.395   .     A
C793   C801    1.405   .     A
C793   C795    1.390   .     A
C794   C802    1.405   .     A
C794   C796    1.390   .     A
C794   H874    1.084   .     S
C795   H812    1.081   .     S
C796   H811    1.081   .     S
C797   H810    1.074   .     S
C797   C799    1.409   .     A
C798   H809    1.074   .     S
C798   C800    1.409   .     A
C799   C803    1.438   .     A
C799   C801    1.416   .     A
C800   C804    1.438   .     A
C800   C802    1.416   .     A
C801   C245    1.384   1_556 S
C803   C264    1.441   1_556 S
Cu805  O822    1.972   .     S
Cu805  N818    2.025   .     S
Cu805  O823    1.938   .     S
Cu805  O819    1.986   .     S
Cu805  Cu806   2.695   .     S
Cu805  O826    1.915   .     S
Cu806  N817    2.025   .     S
Cu806  O820    1.986   .     S
Cu806  O824    1.938   .     S
Cu806  O825    1.915   .     S
Cu806  O821    1.972   .     S
H813   C853    1.084   .     S
H815   N817    1.027   .     S
H816   N818    1.027   .     S
N817   N878    1.284   .     S
C827   N828    1.157   .     T
C829   N830    1.157   .     T
S831   O832    1.503   .     D
S831   O833    1.502   .     D
O834   H835    0.990   .     S
O834   S1011   1.681   .     S
S836   O838    1.503   .     D
S836   O837    1.500   .     D
S836   C968    1.783   .     S
S836   O1019   1.679   .     S
H840   O899    0.991   .     S
C841   C847    1.429   .     S
C841   O879    1.288   .     A
C841   O881    1.293   .     A
C842   O882    1.293   .     A
C842   O880    1.288   .     A
C842   C848    1.429   .     S
C843   C845    1.389   .     A
C843   C864    1.435   .     A
C843   C887    1.444   .     S
C844   C889    1.444   .     S
C844   C846    1.389   .     A
C844   C863    1.435   .     A
C845   H867    1.087   .     S
C846   H868    1.087   .     S
C846   C322    1.384   1_556 S
C847   C1028   1.354   .     S
C847   S1071   1.783   .     S
C849   O885    1.299   .     A
C849   C851    1.467   .     S
C849   O883    1.302   .     A
C850   C852    1.467   .     S
C850   O886    1.299   .     A
C850   O884    1.302   .     A
C851   C855    1.395   .     A
C851   C857    1.396   .     A
C852   C858    1.396   .     A
C852   C856    1.395   .     A
C853   C861    1.405   .     A
C853   C855    1.390   .     A
C854   C862    1.405   .     A
C854   C856    1.390   .     A
C854   H754    1.084   1_655 S
C855   H872    1.081   .     S
C856   H871    1.081   .     S
C857   H870    1.074   .     S
C857   C859    1.409   .     A
C858   H869    1.074   .     S
C858   C860    1.409   .     A
C859   C863    1.438   .     A
C859   C861    1.416   .     A
C860   C864    1.438   .     A
C860   C862    1.416   .     A
C861   C305    1.384   1_556 S
C863   C324    1.441   1_556 S
Cu865  O882    1.972   .     S
Cu865  N878    2.025   .     S
Cu865  O883    1.938   .     S
Cu865  O879    1.986   .     S
Cu865  Cu866   2.695   .     S
Cu865  O886    1.915   .     S
Cu866  N877    2.025   .     S
Cu866  O880    1.986   .     S
Cu866  O884    1.938   .     S
Cu866  O885    1.915   .     S
Cu866  O881    1.972   .     S
H873   C733    1.084   1_655 S
H875   N877    1.027   .     S
H876   N878    1.027   .     S
N877   N758    1.284   1_655 S
C887   N888    1.157   .     T
C889   N890    1.157   .     T
S891   O892    1.503   .     D
S891   O893    1.502   .     D
O894   H895    0.990   .     S
O894   S1071   1.681   .     S
S896   O898    1.503   .     D
S896   O897    1.500   .     D
S896   C1028   1.783   .     S
S896   O1079   1.679   .     S
H900   O779    0.991   1_655 S
C901   C907    1.429   .     S
C901   O939    1.288   .     A
C901   O941    1.293   .     A
C902   O942    1.293   .     A
C902   O940    1.288   .     A
C902   C908    1.429   .     S
C903   C905    1.389   .     A
C903   C924    1.435   .     A
C903   C947    1.444   .     S
C904   C949    1.444   .     S
C904   C906    1.389   .     A
C904   C923    1.435   .     A
C905   H927    1.087   .     S
C906   H928    1.087   .     S
C906   C382    1.384   1_556 S
C907   C548    1.354   1_565 S
C907   S591    1.783   1_565 S
C909   O945    1.299   .     A
C909   C911    1.467   .     S
C909   O943    1.302   .     A
C910   C912    1.467   .     S
C910   O946    1.299   .     A
C910   O944    1.302   .     A
C911   C915    1.395   .     A
C911   C917    1.396   .     A
C912   C918    1.396   .     A
C912   C916    1.395   .     A
C913   C921    1.405   .     A
C913   C915    1.390   .     A
C913   H1053   1.084   1_455 S
C914   C922    1.405   .     A
C914   C916    1.390   .     A
C914   H994    1.084   .     S
C915   H932    1.081   .     S
C916   H931    1.081   .     S
C917   H930    1.074   .     S
C917   C919    1.409   .     A
C918   H929    1.074   .     S
C918   C920    1.409   .     A
C919   C923    1.438   .     A
C919   C921    1.416   .     A
C920   C924    1.438   .     A
C920   C922    1.416   .     A
C921   C365    1.384   1_556 S
C923   C384    1.441   1_556 S
Cu925  O942    1.972   .     S
Cu925  N938    2.025   .     S
Cu925  O943    1.938   .     S
Cu925  O939    1.986   .     S
Cu925  Cu926   2.695   .     S
Cu925  O946    1.915   .     S
Cu926  N937    2.025   .     S
Cu926  O940    1.986   .     S
Cu926  O944    1.938   .     S
Cu926  O945    1.915   .     S
Cu926  O941    1.972   .     S
H933   C973    1.084   .     S
H934   C1034   1.084   1_455 S
H935   N937    1.027   .     S
H936   N938    1.027   .     S
N937   N998    1.284   .     S
N938   N1057   1.284   1_455 S
C947   N948    1.157   .     T
C949   N950    1.157   .     T
S951   O952    1.503   .     D
S951   O953    1.502   .     D
O954   H955    0.990   .     S
O954   S591    1.681   1_565 S
S956   O958    1.503   .     D
S956   O957    1.500   .     D
S956   C548    1.783   1_565 S
S956   O599    1.679   1_565 S
O959   H1080   0.991   1_455 S
H960   O1019   0.991   .     S
C961   C967    1.429   .     S
C961   O999    1.288   .     A
C961   O1001   1.293   .     A
C962   O1002   1.293   .     A
C962   O1000   1.288   .     A
C962   C968    1.429   .     S
C963   C965    1.389   .     A
C963   C984    1.435   .     A
C963   C1007   1.444   .     S
C964   C1009   1.444   .     S
C964   C966    1.389   .     A
C964   C983    1.435   .     A
C965   H987    1.087   .     S
C966   H988    1.087   .     S
C966   C442    1.384   1_556 S
C967   C608    1.354   1_565 S
C967   S651    1.783   1_565 S
C969   O1005   1.299   .     A
C969   C971    1.467   .     S
C969   O1003   1.302   .     A
C970   C972    1.467   .     S
C970   O1006   1.299   .     A
C970   O1004   1.302   .     A
C971   C975    1.395   .     A
C971   C977    1.396   .     A
C972   C978    1.396   .     A
C972   C976    1.395   .     A
C973   C981    1.405   .     A
C973   C975    1.390   .     A
C974   C982    1.405   .     A
C974   C976    1.390   .     A
C974   H1054   1.084   .     S
C975   H992    1.081   .     S
C976   H991    1.081   .     S
C977   H990    1.074   .     S
C977   C979    1.409   .     A
C978   H989    1.074   .     S
C978   C980    1.409   .     A
C979   C983    1.438   .     A
C979   C981    1.416   .     A
C980   C984    1.438   .     A
C980   C982    1.416   .     A
C981   C425    1.384   1_556 S
C983   C444    1.441   1_556 S
Cu985  O1002   1.972   .     S
Cu985  N998    2.025   .     S
Cu985  O1003   1.938   .     S
Cu985  O999    1.986   .     S
Cu985  Cu986   2.695   .     S
Cu985  O1006   1.915   .     S
Cu986  N997    2.025   .     S
Cu986  O1000   1.986   .     S
Cu986  O1004   1.938   .     S
Cu986  O1005   1.915   .     S
Cu986  O1001   1.972   .     S
H993   C1033   1.084   .     S
H995   N997    1.027   .     S
H996   N998    1.027   .     S
N997   N1058   1.284   .     S
C1007  N1008   1.157   .     T
C1009  N1010   1.157   .     T
S1011  O1012   1.503   .     D
S1011  O1013   1.502   .     D
O1014  H1015   0.990   .     S
O1014  S651    1.681   1_565 S
S1016  O1018   1.503   .     D
S1016  O1017   1.500   .     D
S1016  C608    1.783   1_565 S
S1016  O659    1.679   1_565 S
H1020  O1079   0.991   .     S
C1021  C1027   1.429   .     S
C1021  O1059   1.288   .     A
C1021  O1061   1.293   .     A
C1022  O1062   1.293   .     A
C1022  O1060   1.288   .     A
C1022  C1028   1.429   .     S
C1023  C1025   1.389   .     A
C1023  C1044   1.435   .     A
C1023  C1067   1.444   .     S
C1024  C1069   1.444   .     S
C1024  C1026   1.389   .     A
C1024  C1043   1.435   .     A
C1025  H1047   1.087   .     S
C1026  H1048   1.087   .     S
C1026  C502    1.384   1_556 S
C1027  C668    1.354   1_565 S
C1027  S711    1.783   1_565 S
C1029  O1065   1.299   .     A
C1029  C1031   1.467   .     S
C1029  O1063   1.302   .     A
C1030  C1032   1.467   .     S
C1030  O1066   1.299   .     A
C1030  O1064   1.302   .     A
C1031  C1035   1.395   .     A
C1031  C1037   1.396   .     A
C1032  C1038   1.396   .     A
C1032  C1036   1.395   .     A
C1033  C1041   1.405   .     A
C1033  C1035   1.390   .     A
C1034  C1042   1.405   .     A
C1034  C1036   1.390   .     A
C1034  H934    1.084   1_655 S
C1035  H1052   1.081   .     S
C1036  H1051   1.081   .     S
C1037  H1050   1.074   .     S
C1037  C1039   1.409   .     A
C1038  H1049   1.074   .     S
C1038  C1040   1.409   .     A
C1039  C1043   1.438   .     A
C1039  C1041   1.416   .     A
C1040  C1044   1.438   .     A
C1040  C1042   1.416   .     A
C1041  C485    1.384   1_556 S
C1043  C504    1.441   1_556 S
Cu1045 O1062   1.972   .     S
Cu1045 N1058   2.025   .     S
Cu1045 O1063   1.938   .     S
Cu1045 O1059   1.986   .     S
Cu1045 Cu1046  2.695   .     S
Cu1045 O1066   1.915   .     S
Cu1046 N1057   2.025   .     S
Cu1046 O1060   1.986   .     S
Cu1046 O1064   1.938   .     S
Cu1046 O1065   1.915   .     S
Cu1046 O1061   1.972   .     S
H1053  C913    1.084   1_655 S
H1055  N1057   1.027   .     S
H1056  N1058   1.027   .     S
N1057  N938    1.284   1_655 S
C1067  N1068   1.157   .     T
C1069  N1070   1.157   .     T
S1071  O1072   1.503   .     D
S1071  O1073   1.502   .     D
O1074  H1075   0.990   .     S
O1074  S711    1.681   1_565 S
S1076  O1078   1.503   .     D
S1076  O1077   1.500   .     D
S1076  C668    1.783   1_565 S
S1076  O719    1.679   1_565 S
H1080  O959    0.991   1_655 S
