data_str_m1_o1_o17_pcu_sym.143
_audit_creation_date              2020-01-03
_audit_creation_method            'Materials Studio'
_symmetry_space_group_name_H-M    'P1'
_symmetry_Int_Tables_number       1
_symmetry_cell_setting            triclinic
loop_
_symmetry_equiv_pos_as_xyz
  x,y,z
_cell_length_a                    36.6059
_cell_length_b                    36.6063
_cell_length_c                    34.4815
_cell_angle_alpha                 89.9840
_cell_angle_beta                  89.9972
_cell_angle_gamma                 90.0042
loop_
_atom_site_label
_atom_site_type_symbol
_atom_site_fract_x
_atom_site_fract_y
_atom_site_fract_z
_atom_site_U_iso_or_equiv
_atom_site_adp_type
_atom_site_occupancy
C1     C     0.46803   0.25805   0.41853   0.00000  Uiso   1.00
C2     C     0.03198   0.24197   0.58147   0.00000  Uiso   1.00
C3     C     0.24185   0.03194   0.41852   0.00000  Uiso   1.00
C4     C     0.25816   0.46806   0.58148   0.00000  Uiso   1.00
C5     C     0.03197   0.24196   0.41853   0.00000  Uiso   1.00
C6     C     0.46804   0.25808   0.58147   0.00000  Uiso   1.00
C7     C     0.25811   0.46804   0.41854   0.00000  Uiso   1.00
C8     C     0.24191   0.03196   0.58146   0.00000  Uiso   1.00
C9     C     0.28158   0.00944   0.91851   0.00000  Uiso   1.00
C10    C     0.21841   0.49052   0.08149   0.00000  Uiso   1.00
C11    C     0.49112   0.21823   0.91853   0.00000  Uiso   1.00
C12    C     0.00877   0.28178   0.08147   0.00000  Uiso   1.00
C13    C     0.21841   0.49054   0.91851   0.00000  Uiso   1.00
C14    C     0.28159   0.00943   0.08148   0.00000  Uiso   1.00
C15    C     0.00878   0.28177   0.91851   0.00000  Uiso   1.00
C16    C     0.49114   0.21824   0.08150   0.00000  Uiso   1.00
C17    C    -0.00000   0.25000   0.39837   0.00000  Uiso   1.00
C18    C     0.00000   0.25002   0.60163   0.00000  Uiso   1.00
C19    C     0.24998   0.49999   0.39837   0.00000  Uiso   1.00
C20    C     0.25003   0.00001   0.60163   0.00000  Uiso   1.00
C21    C     0.25000   0.49999   0.89836   0.00000  Uiso   1.00
C22    C     0.25000   0.49999   0.10164   0.00000  Uiso   1.00
C23    C     0.49997   0.24999   0.89836   0.00000  Uiso   1.00
C24    C     0.49997   0.25001   0.10164   0.00000  Uiso   1.00
C25    C     0.06486   0.23190   0.47952   0.00000  Uiso   1.00
C26    C     0.43514   0.26802   0.52049   0.00000  Uiso   1.00
C27    C     0.26818   0.43518   0.47953   0.00000  Uiso   1.00
C28    C     0.23186   0.06483   0.52047   0.00000  Uiso   1.00
C29    C     0.43515   0.26813   0.47951   0.00000  Uiso   1.00
C30    C     0.06488   0.23205   0.52049   0.00000  Uiso   1.00
C31    C     0.23177   0.06482   0.47950   0.00000  Uiso   1.00
C32    C     0.26823   0.43518   0.52050   0.00000  Uiso   1.00
C33    C     0.18536   0.48112   0.97952   0.00000  Uiso   1.00
C34    C     0.31462   0.01885   0.02048   0.00000  Uiso   1.00
C35    C     0.01738   0.31504   0.97949   0.00000  Uiso   1.00
C36    C     0.48241   0.18500   0.02051   0.00000  Uiso   1.00
C37    C     0.31464   0.01881   0.97950   0.00000  Uiso   1.00
C38    C     0.18538   0.48107   0.02050   0.00000  Uiso   1.00
C39    C     0.48242   0.18499   0.97954   0.00000  Uiso   1.00
C40    C     0.01744   0.31501   0.02046   0.00000  Uiso   1.00
C41    C     0.25000  -0.00000   0.35596   0.00000  Uiso   1.00
C42    C     0.25000   0.00000   0.64404   0.00000  Uiso   1.00
C43    C    -0.00000   0.25000   0.35596   0.00000  Uiso   1.00
C44    C     0.00000   0.25000   0.64404   0.00000  Uiso   1.00
C45    C    -0.00000   0.25000   0.85595   0.00000  Uiso   1.00
C46    C     0.49999   0.25000   0.14405   0.00000  Uiso   1.00
C47    C     0.25000  -0.00000   0.85595   0.00000  Uiso   1.00
C48    C     0.25000  -0.00000   0.14405   0.00000  Uiso   1.00
C49    C     0.18003   0.06995   0.25002   0.00000  Uiso   1.00
C50    C     0.31997   0.43005   0.74998   0.00000  Uiso   1.00
C51    C     0.43002   0.18004   0.24998   0.00000  Uiso   1.00
C52    C     0.07000   0.31993   0.75003   0.00000  Uiso   1.00
C53    C     0.31995   0.43001   0.25001   0.00000  Uiso   1.00
C54    C     0.18002   0.06997   0.74998   0.00000  Uiso   1.00
C55    C     0.07000   0.31993   0.24997   0.00000  Uiso   1.00
C56    C     0.43006   0.18001   0.75001   0.00000  Uiso   1.00
C57    C     0.18001   0.43006   0.75001   0.00000  Uiso   1.00
C58    C     0.31995   0.06996   0.24998   0.00000  Uiso   1.00
C59    C     0.43003   0.31998   0.74998   0.00000  Uiso   1.00
C60    C     0.06997   0.18002   0.25002   0.00000  Uiso   1.00
C61    C     0.31993   0.07000   0.75003   0.00000  Uiso   1.00
C62    C     0.18001   0.43005   0.24999   0.00000  Uiso   1.00
C63    C     0.06995   0.18003   0.74998   0.00000  Uiso   1.00
C64    C     0.43007   0.32001   0.25003   0.00000  Uiso   1.00
C65    C     0.14229   0.38498   0.21475   0.00000  Uiso   1.00
C66    C     0.35731   0.11554   0.78544   0.00000  Uiso   1.00
C67    C     0.11508   0.14221   0.21473   0.00000  Uiso   1.00
C68    C     0.38492   0.35779   0.78527   0.00000  Uiso   1.00
C69    C     0.35713   0.11561   0.21466   0.00000  Uiso   1.00
C70    C     0.14228   0.38496   0.78525   0.00000  Uiso   1.00
C71    C     0.38493   0.35770   0.21482   0.00000  Uiso   1.00
C72    C     0.11568   0.14294   0.78526   0.00000  Uiso   1.00
C73    C     0.14221   0.11508   0.78527   0.00000  Uiso   1.00
C74    C     0.35723   0.38439   0.21464   0.00000  Uiso   1.00
C75    C     0.11555   0.35729   0.78544   0.00000  Uiso   1.00
C76    C     0.38497   0.14217   0.21465   0.00000  Uiso   1.00
C77    C     0.35706   0.38432   0.78526   0.00000  Uiso   1.00
C78    C     0.14294   0.11568   0.21474   0.00000  Uiso   1.00
C79    C     0.38498   0.14226   0.78525   0.00000  Uiso   1.00
C80    C     0.11555   0.35731   0.21456   0.00000  Uiso   1.00
C81    C     0.39280   0.13436   0.71464   0.00000  Uiso   1.00
C82    C     0.10766   0.36509   0.28517   0.00000  Uiso   1.00
C83    C     0.36558   0.39285   0.71465   0.00000  Uiso   1.00
C84    C     0.13442   0.10715   0.28534   0.00000  Uiso   1.00
C85    C     0.10766   0.36510   0.71483   0.00000  Uiso   1.00
C86    C     0.39222   0.13489   0.28526   0.00000  Uiso   1.00
C87    C     0.13499   0.10787   0.71465   0.00000  Uiso   1.00
C88    C     0.36500   0.39224   0.28526   0.00000  Uiso   1.00
C89    C     0.39267   0.36552   0.28545   0.00000  Uiso   1.00
C90    C     0.10715   0.13442   0.71466   0.00000  Uiso   1.00
C91    C     0.36570   0.10702   0.28525   0.00000  Uiso   1.00
C92    C     0.13435   0.39281   0.71464   0.00000  Uiso   1.00
C93    C     0.10787   0.13499   0.28535   0.00000  Uiso   1.00
C94    C     0.39213   0.36501   0.71465   0.00000  Uiso   1.00
C95    C     0.13436   0.39278   0.28536   0.00000  Uiso   1.00
C96    C     0.36510   0.10767   0.71483   0.00000  Uiso   1.00
C97    C     0.03248   0.24111   0.45920   0.00000  Uiso   1.00
C98    C     0.46752   0.25887   0.54080   0.00000  Uiso   1.00
C99    C     0.25893   0.46753   0.45921   0.00000  Uiso   1.00
C100   C     0.24110   0.03248   0.54079   0.00000  Uiso   1.00
C101   C     0.46752   0.25891   0.45920   0.00000  Uiso   1.00
C102   C     0.03250   0.24119   0.54080   0.00000  Uiso   1.00
C103   C     0.24102   0.03246   0.45919   0.00000  Uiso   1.00
C104   C     0.25898   0.46755   0.54081   0.00000  Uiso   1.00
C105   C     0.21764   0.49063   0.95919   0.00000  Uiso   1.00
C106   C     0.28235   0.00935   0.04080   0.00000  Uiso   1.00
C107   C     0.00861   0.28255   0.95918   0.00000  Uiso   1.00
C108   C     0.49124   0.21747   0.04082   0.00000  Uiso   1.00
C109   C     0.28235   0.00933   0.95919   0.00000  Uiso   1.00
C110   C     0.21765   0.49060   0.04081   0.00000  Uiso   1.00
C111   C     0.49124   0.21747   0.95920   0.00000  Uiso   1.00
C112   C     0.00864   0.28254   0.04079   0.00000  Uiso   1.00
C113   C     0.09831   0.34792   0.24986   0.00000  Uiso   1.00
C114   C     0.40211   0.15166   0.74992   0.00000  Uiso   1.00
C115   C     0.15192   0.09810   0.25003   0.00000  Uiso   1.00
C116   C     0.34808   0.40190   0.74997   0.00000  Uiso   1.00
C117   C     0.40186   0.15186   0.24997   0.00000  Uiso   1.00
C118   C     0.09832   0.34791   0.75014   0.00000  Uiso   1.00
C119   C     0.34789   0.40167   0.24992   0.00000  Uiso   1.00
C120   C     0.15187   0.09815   0.74997   0.00000  Uiso   1.00
C121   C     0.09810   0.15192   0.74997   0.00000  Uiso   1.00
C122   C     0.40209   0.34832   0.25014   0.00000  Uiso   1.00
C123   C     0.15167   0.40211   0.74992   0.00000  Uiso   1.00
C124   C     0.34811   0.09807   0.24997   0.00000  Uiso   1.00
C125   C     0.40185   0.34813   0.74997   0.00000  Uiso   1.00
C126   C     0.09815   0.15187   0.25003   0.00000  Uiso   1.00
C127   C     0.34791   0.09832   0.75014   0.00000  Uiso   1.00
C128   C     0.15168   0.40210   0.25008   0.00000  Uiso   1.00
C129   C     0.00001   0.25002   0.47965   0.00000  Uiso   1.00
C130   C     0.00001   0.25003   0.52035   0.00000  Uiso   1.00
C131   C     0.25000   0.00000   0.47965   0.00000  Uiso   1.00
C132   C     0.25003   0.00001   0.52035   0.00000  Uiso   1.00
C133   C     0.25000   0.49998   0.97964   0.00000  Uiso   1.00
C134   C     0.25000   0.49997   0.02035   0.00000  Uiso   1.00
C135   C     0.49993   0.25001   0.97965   0.00000  Uiso   1.00
C136   C     0.49993   0.25001   0.02035   0.00000  Uiso   1.00
H137   H     0.44358   0.26381   0.40202   0.00000  Uiso   1.00
H138   H     0.05641   0.23609   0.59797   0.00000  Uiso   1.00
H139   H     0.23600   0.05637   0.40200   0.00000  Uiso   1.00
H140   H     0.26402   0.44363   0.59800   0.00000  Uiso   1.00
H141   H     0.05642   0.23621   0.40201   0.00000  Uiso   1.00
H142   H     0.44361   0.26396   0.59797   0.00000  Uiso   1.00
H143   H     0.26400   0.44362   0.40204   0.00000  Uiso   1.00
H144   H     0.23601   0.05639   0.59796   0.00000  Uiso   1.00
H145   H     0.30540   0.01738   0.90195   0.00000  Uiso   1.00
H146   H     0.19458   0.48263   0.09804   0.00000  Uiso   1.00
H147   H     0.48369   0.19425   0.90199   0.00000  Uiso   1.00
H148   H     0.01618   0.30578   0.09799   0.00000  Uiso   1.00
H149   H     0.19459   0.48261   0.90196   0.00000  Uiso   1.00
H150   H     0.30542   0.01733   0.09802   0.00000  Uiso   1.00
H151   H     0.01624   0.30574   0.90196   0.00000  Uiso   1.00
H152   H     0.48373   0.19425   0.09804   0.00000  Uiso   1.00
O153   O     0.25000  -0.00000   0.25000   0.00000  Uiso   1.00
O154   O     0.25000  -0.00000   0.75000   0.00000  Uiso   1.00
O155   O     0.00000   0.25000   0.25000   0.00000  Uiso   1.00
O156   O     0.00000   0.25000   0.75000   0.00000  Uiso   1.00
O157   O     0.25000   0.46963   0.33755   0.00000  Uiso   1.00
O158   O     0.25000   0.03036   0.66245   0.00000  Uiso   1.00
O159   O     0.03037   0.25000   0.33755   0.00000  Uiso   1.00
O160   O     0.46964   0.25000   0.66245   0.00000  Uiso   1.00
O161   O     0.25000   0.03036   0.33755   0.00000  Uiso   1.00
O162   O     0.25000   0.46963   0.66245   0.00000  Uiso   1.00
O163   O     0.46964   0.25000   0.33755   0.00000  Uiso   1.00
O164   O     0.03037   0.25000   0.66245   0.00000  Uiso   1.00
O165   O     0.00000   0.21964   0.83755   0.00000  Uiso   1.00
O166   O     0.00000   0.28036   0.16245   0.00000  Uiso   1.00
O167   O     0.28037  -0.00000   0.83755   0.00000  Uiso   1.00
O168   O     0.21964  -0.00000   0.16245   0.00000  Uiso   1.00
O169   O     0.00000   0.28037   0.83755   0.00000  Uiso   1.00
O170   O     0.00000   0.21964   0.16245   0.00000  Uiso   1.00
O171   O     0.21964  -0.00000   0.83755   0.00000  Uiso   1.00
O172   O     0.28037  -0.00000   0.16245   0.00000  Uiso   1.00
O173   O     0.20725   0.07307   0.27302   0.00000  Uiso   1.00
O174   O     0.29276   0.42692   0.72698   0.00000  Uiso   1.00
O175   O     0.42693   0.20724   0.27302   0.00000  Uiso   1.00
O176   O     0.07308   0.29275   0.72698   0.00000  Uiso   1.00
O177   O     0.29276   0.42692   0.27302   0.00000  Uiso   1.00
O178   O     0.20725   0.07307   0.72698   0.00000  Uiso   1.00
O179   O     0.07308   0.29275   0.27302   0.00000  Uiso   1.00
O180   O     0.42693   0.20724   0.72698   0.00000  Uiso   1.00
O181   O     0.20725   0.42692   0.72698   0.00000  Uiso   1.00
O182   O     0.29276   0.07307   0.27302   0.00000  Uiso   1.00
O183   O     0.42693   0.29275   0.72698   0.00000  Uiso   1.00
O184   O     0.07308   0.20724   0.27302   0.00000  Uiso   1.00
O185   O     0.29276   0.07307   0.72698   0.00000  Uiso   1.00
O186   O     0.20725   0.42692   0.27302   0.00000  Uiso   1.00
O187   O     0.07308   0.20724   0.72698   0.00000  Uiso   1.00
O188   O     0.42693   0.29275   0.27302   0.00000  Uiso   1.00
O189   O     0.45725   0.32307   0.77302   0.00000  Uiso   1.00
O190   O     0.04276   0.17692   0.22698   0.00000  Uiso   1.00
O191   O     0.17693   0.45724   0.77302   0.00000  Uiso   1.00
O192   O     0.32308   0.04275   0.22698   0.00000  Uiso   1.00
O193   O     0.04276   0.17692   0.77302   0.00000  Uiso   1.00
O194   O     0.45725   0.32307   0.22698   0.00000  Uiso   1.00
O195   O     0.32308   0.04275   0.77302   0.00000  Uiso   1.00
O196   O     0.17693   0.45724   0.22698   0.00000  Uiso   1.00
O197   O     0.45725   0.17692   0.22698   0.00000  Uiso   1.00
O198   O     0.04276   0.32308   0.77302   0.00000  Uiso   1.00
O199   O     0.17693   0.04275   0.22698   0.00000  Uiso   1.00
O200   O     0.32308   0.45724   0.77302   0.00000  Uiso   1.00
O201   O     0.04276   0.32308   0.22698   0.00000  Uiso   1.00
O202   O     0.45725   0.17692   0.77302   0.00000  Uiso   1.00
O203   O     0.32308   0.45724   0.22698   0.00000  Uiso   1.00
O204   O     0.17693   0.04275   0.77302   0.00000  Uiso   1.00
Zn205  Zn    0.20660  -0.00000   0.21735   0.00000  Uiso   1.00
Zn206  Zn    0.29341  -0.00000   0.78265   0.00000  Uiso   1.00
Zn207  Zn    0.00000   0.20660   0.21735   0.00000  Uiso   1.00
Zn208  Zn    0.00000   0.29341   0.78265   0.00000  Uiso   1.00
Zn209  Zn    0.29341  -0.00000   0.21735   0.00000  Uiso   1.00
Zn210  Zn    0.20660  -0.00000   0.78265   0.00000  Uiso   1.00
Zn211  Zn    0.00000   0.29341   0.21735   0.00000  Uiso   1.00
Zn212  Zn    0.00000   0.20660   0.78265   0.00000  Uiso   1.00
Zn213  Zn    0.45660   0.25000   0.71735   0.00000  Uiso   1.00
Zn214  Zn    0.04341   0.25000   0.28265   0.00000  Uiso   1.00
Zn215  Zn    0.25000   0.45659   0.71735   0.00000  Uiso   1.00
Zn216  Zn    0.25000   0.04340   0.28265   0.00000  Uiso   1.00
Zn217  Zn    0.04341   0.25000   0.71735   0.00000  Uiso   1.00
Zn218  Zn    0.45660   0.25000   0.28265   0.00000  Uiso   1.00
Zn219  Zn    0.25000   0.04340   0.71735   0.00000  Uiso   1.00
Zn220  Zn    0.25000   0.45659   0.28265   0.00000  Uiso   1.00
C221   C     0.09770   0.21945   0.45775   0.00000  Uiso   1.00
H222   H     0.09521   0.19771   0.43654   0.00000  Uiso   1.00
O223   O     0.12724   0.23433   0.46211   0.00000  Uiso   1.00
C224   C     0.40221   0.28007   0.54228   0.00000  Uiso   1.00
H225   H     0.40424   0.30266   0.56255   0.00000  Uiso   1.00
O226   O     0.37325   0.26383   0.53916   0.00000  Uiso   1.00
C227   C     0.28042   0.40230   0.45775   0.00000  Uiso   1.00
H228   H     0.30274   0.40453   0.43717   0.00000  Uiso   1.00
O229   O     0.26465   0.37312   0.46128   0.00000  Uiso   1.00
C230   C     0.21968   0.09772   0.54226   0.00000  Uiso   1.00
H231   H     0.19724   0.09557   0.56270   0.00000  Uiso   1.00
O232   O     0.23564   0.12681   0.53890   0.00000  Uiso   1.00
C233   C     0.40230   0.28054   0.45774   0.00000  Uiso   1.00
H234   H     0.40476   0.30236   0.43660   0.00000  Uiso   1.00
O235   O     0.37281   0.26553   0.46200   0.00000  Uiso   1.00
C236   C     0.09782   0.22006   0.54229   0.00000  Uiso   1.00
H237   H     0.09586   0.19738   0.56247   0.00000  Uiso   1.00
O238   O     0.12671   0.23644   0.53928   0.00000  Uiso   1.00
C239   C     0.21933   0.09765   0.45771   0.00000  Uiso   1.00
H240   H     0.19734   0.09522   0.43678   0.00000  Uiso   1.00
O241   O     0.23452   0.12707   0.46172   0.00000  Uiso   1.00
C242   C     0.28059   0.40234   0.54229   0.00000  Uiso   1.00
H243   H     0.30269   0.40470   0.56312   0.00000  Uiso   1.00
O244   O     0.26520   0.37299   0.53845   0.00000  Uiso   1.00
C245   C     0.15103   0.47377   0.95778   0.00000  Uiso   1.00
H246   H     0.14100   0.49368   0.93702   0.00000  Uiso   1.00
O247   O     0.13471   0.44493   0.96159   0.00000  Uiso   1.00
C248   C     0.34891   0.02631   0.04224   0.00000  Uiso   1.00
H249   H     0.35922   0.00624   0.06265   0.00000  Uiso   1.00
O250   O     0.36482   0.05543   0.03887   0.00000  Uiso   1.00
C251   C     0.02392   0.34953   0.95773   0.00000  Uiso   1.00
H252   H     0.00383   0.35902   0.93689   0.00000  Uiso   1.00
O253   O     0.05232   0.36660   0.96161   0.00000  Uiso   1.00
C254   C     0.47572   0.15056   0.04228   0.00000  Uiso   1.00
H255   H     0.49597   0.14076   0.06278   0.00000  Uiso   1.00
O256   O     0.44702   0.13393   0.03883   0.00000  Uiso   1.00
C257   C     0.34898   0.02613   0.95775   0.00000  Uiso   1.00
H258   H     0.35898   0.00623   0.93700   0.00000  Uiso   1.00
O259   O     0.36533   0.05496   0.96154   0.00000  Uiso   1.00
C260   C     0.15111   0.47357   0.04226   0.00000  Uiso   1.00
H261   H     0.14076   0.49363   0.06265   0.00000  Uiso   1.00
O262   O     0.13525   0.44442   0.03893   0.00000  Uiso   1.00
C263   C     0.47577   0.15053   0.95780   0.00000  Uiso   1.00
H264   H     0.49591   0.14087   0.93712   0.00000  Uiso   1.00
O265   O     0.44721   0.13370   0.96151   0.00000  Uiso   1.00
C266   C     0.02417   0.34944   0.04222   0.00000  Uiso   1.00
H267   H     0.00385   0.35936   0.06257   0.00000  Uiso   1.00
O268   O     0.05297   0.36592   0.03893   0.00000  Uiso   1.00
C269   C     0.16290   0.39448   0.17904   0.00000  Uiso   1.00
H270   H     0.19221   0.39015   0.17801   0.00000  Uiso   1.00
O271   O     0.14771   0.40942   0.15180   0.00000  Uiso   1.00
C272   C     0.33557   0.10738   0.82115   0.00000  Uiso   1.00
H273   H     0.30701   0.09975   0.81865   0.00000  Uiso   1.00
O274   O     0.34918   0.10795   0.85344   0.00000  Uiso   1.00
C275   C     0.10526   0.16247   0.17890   0.00000  Uiso   1.00
H276   H     0.10899   0.19186   0.17772   0.00000  Uiso   1.00
O277   O     0.09070   0.14685   0.15172   0.00000  Uiso   1.00
C278   C     0.39474   0.33753   0.82110   0.00000  Uiso   1.00
H279   H     0.39101   0.30814   0.82228   0.00000  Uiso   1.00
O280   O     0.40931   0.35315   0.84828   0.00000  Uiso   1.00
C281   C     0.33494   0.10782   0.17915   0.00000  Uiso   1.00
H282   H     0.30644   0.10010   0.18197   0.00000  Uiso   1.00
O283   O     0.34808   0.10884   0.14666   0.00000  Uiso   1.00
C284   C     0.16288   0.39446   0.82096   0.00000  Uiso   1.00
H285   H     0.19219   0.39014   0.82199   0.00000  Uiso   1.00
O286   O     0.14768   0.40937   0.84820   0.00000  Uiso   1.00
C287   C     0.39444   0.33710   0.17912   0.00000  Uiso   1.00
H288   H     0.39007   0.30780   0.17806   0.00000  Uiso   1.00
O289   O     0.40941   0.35232   0.15192   0.00000  Uiso   1.00
C290   C     0.10800   0.16523   0.82073   0.00000  Uiso   1.00
H291   H     0.10003   0.19366   0.81784   0.00000  Uiso   1.00
O292   O     0.10943   0.15227   0.85328   0.00000  Uiso   1.00
C293   C     0.16246   0.10525   0.82109   0.00000  Uiso   1.00
H294   H     0.19185   0.10899   0.82227   0.00000  Uiso   1.00
O295   O     0.14684   0.09068   0.84828   0.00000  Uiso   1.00
C296   C     0.33538   0.39242   0.17897   0.00000  Uiso   1.00
H297   H     0.30689   0.40026   0.18155   0.00000  Uiso   1.00
O298   O     0.34881   0.39148   0.14662   0.00000  Uiso   1.00
C299   C     0.10742   0.33553   0.82115   0.00000  Uiso   1.00
H300   H     0.09976   0.30699   0.81864   0.00000  Uiso   1.00
O301   O     0.10802   0.34912   0.85344   0.00000  Uiso   1.00
C302   C     0.39480   0.16242   0.17881   0.00000  Uiso   1.00
H303   H     0.39112   0.19182   0.17765   0.00000  Uiso   1.00
O304   O     0.40931   0.14680   0.15160   0.00000  Uiso   1.00
C305   C     0.33477   0.39201   0.82074   0.00000  Uiso   1.00
H306   H     0.30634   0.39994   0.81786   0.00000  Uiso   1.00
O307   O     0.34775   0.39061   0.85328   0.00000  Uiso   1.00
C308   C     0.16523   0.10800   0.17926   0.00000  Uiso   1.00
H309   H     0.19367   0.10006   0.18215   0.00000  Uiso   1.00
O310   O     0.15227   0.10941   0.14672   0.00000  Uiso   1.00
C311   C     0.39448   0.16286   0.82096   0.00000  Uiso   1.00
H312   H     0.39015   0.19217   0.82200   0.00000  Uiso   1.00
O313   O     0.40940   0.14765   0.84820   0.00000  Uiso   1.00
C314   C     0.10741   0.33558   0.17884   0.00000  Uiso   1.00
H315   H     0.09974   0.30704   0.18135   0.00000  Uiso   1.00
O316   O     0.10804   0.34918   0.14656   0.00000  Uiso   1.00
C317   C     0.41468   0.14238   0.67898   0.00000  Uiso   1.00
H318   H     0.44316   0.15024   0.68158   0.00000  Uiso   1.00
O319   O     0.40128   0.14139   0.64662   0.00000  Uiso   1.00
C320   C     0.08702   0.35560   0.32086   0.00000  Uiso   1.00
H321   H     0.05771   0.35997   0.32188   0.00000  Uiso   1.00
O322   O     0.10219   0.34065   0.34809   0.00000  Uiso   1.00
C323   C     0.35775   0.41502   0.67913   0.00000  Uiso   1.00
H324   H     0.35006   0.44353   0.68193   0.00000  Uiso   1.00
O325   O     0.35871   0.40185   0.64666   0.00000  Uiso   1.00
C326   C     0.14224   0.08497   0.32087   0.00000  Uiso   1.00
H327   H     0.14994   0.05647   0.31807   0.00000  Uiso   1.00
O328   O     0.14127   0.09814   0.35334   0.00000  Uiso   1.00
C329   C     0.08704   0.35563   0.67914   0.00000  Uiso   1.00
H330   H     0.05773   0.35999   0.67810   0.00000  Uiso   1.00
O331   O     0.10222   0.34068   0.65191   0.00000  Uiso   1.00
C332   C     0.41249   0.14469   0.32109   0.00000  Uiso   1.00
H333   H     0.44188   0.14096   0.32225   0.00000  Uiso   1.00
O334   O     0.39687   0.15922   0.34829   0.00000  Uiso   1.00
C335   C     0.14483   0.08766   0.67880   0.00000  Uiso   1.00
H336   H     0.14114   0.05826   0.67761   0.00000  Uiso   1.00
O337   O     0.15936   0.10331   0.65160   0.00000  Uiso   1.00
C338   C     0.35548   0.41282   0.32098   0.00000  Uiso   1.00
H339   H     0.35982   0.44213   0.32203   0.00000  Uiso   1.00
O340   O     0.34054   0.39760   0.34820   0.00000  Uiso   1.00
C341   C     0.41438   0.35734   0.32118   0.00000  Uiso   1.00
H342   H     0.44293   0.34971   0.31869   0.00000  Uiso   1.00
O343   O     0.40074   0.35788   0.35344   0.00000  Uiso   1.00
C344   C     0.08498   0.14225   0.67913   0.00000  Uiso   1.00
H345   H     0.05647   0.14994   0.68194   0.00000  Uiso   1.00
O346   O     0.09815   0.14129   0.64666   0.00000  Uiso   1.00
C347   C     0.35804   0.08468   0.32071   0.00000  Uiso   1.00
H348   H     0.35007   0.05626   0.31781   0.00000  Uiso   1.00
O349   O     0.35950   0.09760   0.35327   0.00000  Uiso   1.00
C350   C     0.14236   0.41470   0.67899   0.00000  Uiso   1.00
H351   H     0.15023   0.44318   0.68159   0.00000  Uiso   1.00
O352   O     0.14136   0.40131   0.64662   0.00000  Uiso   1.00
C353   C     0.08766   0.14483   0.32121   0.00000  Uiso   1.00
H354   H     0.05826   0.14113   0.32241   0.00000  Uiso   1.00
O355   O     0.10331   0.15936   0.34839   0.00000  Uiso   1.00
C356   C     0.41235   0.35518   0.67879   0.00000  Uiso   1.00
H357   H     0.44174   0.35887   0.67760   0.00000  Uiso   1.00
O358   O     0.39670   0.34064   0.65161   0.00000  Uiso   1.00
C359   C     0.14237   0.41464   0.32102   0.00000  Uiso   1.00
H360   H     0.15021   0.44313   0.31842   0.00000  Uiso   1.00
O361   O     0.14140   0.40122   0.35337   0.00000  Uiso   1.00
C362   C     0.35560   0.08706   0.67913   0.00000  Uiso   1.00
H363   H     0.35997   0.05775   0.67810   0.00000  Uiso   1.00
O364   O     0.34066   0.10225   0.65191   0.00000  Uiso   1.00
C365   C     0.96803   0.25805   0.41853   0.00000  Uiso   1.00
C366   C     0.53198   0.24197   0.58147   0.00000  Uiso   1.00
C367   C     0.74185   0.03194   0.41852   0.00000  Uiso   1.00
C368   C     0.75816   0.46806   0.58148   0.00000  Uiso   1.00
C369   C     0.53197   0.24196   0.41853   0.00000  Uiso   1.00
C370   C     0.96804   0.25808   0.58147   0.00000  Uiso   1.00
C371   C     0.75811   0.46804   0.41854   0.00000  Uiso   1.00
C372   C     0.74191   0.03196   0.58146   0.00000  Uiso   1.00
C373   C     0.78158   0.00944   0.91851   0.00000  Uiso   1.00
C374   C     0.71841   0.49052   0.08149   0.00000  Uiso   1.00
C375   C     0.99112   0.21823   0.91853   0.00000  Uiso   1.00
C376   C     0.50877   0.28178   0.08147   0.00000  Uiso   1.00
C377   C     0.71841   0.49054   0.91851   0.00000  Uiso   1.00
C378   C     0.78159   0.00943   0.08148   0.00000  Uiso   1.00
C379   C     0.50878   0.28177   0.91851   0.00000  Uiso   1.00
C380   C     0.99114   0.21824   0.08150   0.00000  Uiso   1.00
C381   C     0.50000   0.25000   0.39837   0.00000  Uiso   1.00
C382   C     0.50000   0.25002   0.60163   0.00000  Uiso   1.00
C383   C     0.74998   0.49999   0.39837   0.00000  Uiso   1.00
C384   C     0.75003   0.00001   0.60163   0.00000  Uiso   1.00
C385   C     0.75000   0.49999   0.89836   0.00000  Uiso   1.00
C386   C     0.75000   0.49999   0.10164   0.00000  Uiso   1.00
C387   C     0.99997   0.24999   0.89836   0.00000  Uiso   1.00
C388   C     0.99997   0.25001   0.10164   0.00000  Uiso   1.00
C389   C     0.56486   0.23190   0.47952   0.00000  Uiso   1.00
C390   C     0.93514   0.26802   0.52049   0.00000  Uiso   1.00
C391   C     0.76818   0.43518   0.47953   0.00000  Uiso   1.00
C392   C     0.73186   0.06483   0.52047   0.00000  Uiso   1.00
C393   C     0.93515   0.26813   0.47951   0.00000  Uiso   1.00
C394   C     0.56488   0.23205   0.52049   0.00000  Uiso   1.00
C395   C     0.73177   0.06482   0.47950   0.00000  Uiso   1.00
C396   C     0.76823   0.43518   0.52050   0.00000  Uiso   1.00
C397   C     0.68536   0.48112   0.97952   0.00000  Uiso   1.00
C398   C     0.81462   0.01885   0.02048   0.00000  Uiso   1.00
C399   C     0.51738   0.31504   0.97949   0.00000  Uiso   1.00
C400   C     0.98241   0.18500   0.02051   0.00000  Uiso   1.00
C401   C     0.81464   0.01881   0.97950   0.00000  Uiso   1.00
C402   C     0.68538   0.48107   0.02050   0.00000  Uiso   1.00
C403   C     0.98242   0.18499   0.97954   0.00000  Uiso   1.00
C404   C     0.51744   0.31501   0.02046   0.00000  Uiso   1.00
C405   C     0.75000  -0.00000   0.35596   0.00000  Uiso   1.00
C406   C     0.75000   0.00000   0.64404   0.00000  Uiso   1.00
C407   C     0.50000   0.25000   0.35596   0.00000  Uiso   1.00
C408   C     0.50000   0.25000   0.64404   0.00000  Uiso   1.00
C409   C     0.50000   0.25000   0.85595   0.00000  Uiso   1.00
C410   C     0.99999   0.25000   0.14405   0.00000  Uiso   1.00
C411   C     0.75000  -0.00000   0.85595   0.00000  Uiso   1.00
C412   C     0.75000  -0.00000   0.14405   0.00000  Uiso   1.00
C413   C     0.68003   0.06995   0.25002   0.00000  Uiso   1.00
C414   C     0.81997   0.43005   0.74998   0.00000  Uiso   1.00
C415   C     0.93002   0.18004   0.24998   0.00000  Uiso   1.00
C416   C     0.57000   0.31993   0.75003   0.00000  Uiso   1.00
C417   C     0.81995   0.43001   0.25001   0.00000  Uiso   1.00
C418   C     0.68002   0.06997   0.74998   0.00000  Uiso   1.00
C419   C     0.57000   0.31993   0.24997   0.00000  Uiso   1.00
C420   C     0.93006   0.18001   0.75001   0.00000  Uiso   1.00
C421   C     0.68001   0.43006   0.75001   0.00000  Uiso   1.00
C422   C     0.81995   0.06996   0.24998   0.00000  Uiso   1.00
C423   C     0.93003   0.31998   0.74998   0.00000  Uiso   1.00
C424   C     0.56997   0.18002   0.25002   0.00000  Uiso   1.00
C425   C     0.81993   0.07000   0.75003   0.00000  Uiso   1.00
C426   C     0.68001   0.43005   0.24999   0.00000  Uiso   1.00
C427   C     0.56995   0.18003   0.74998   0.00000  Uiso   1.00
C428   C     0.93007   0.32001   0.25003   0.00000  Uiso   1.00
C429   C     0.64229   0.38498   0.21475   0.00000  Uiso   1.00
C430   C     0.85731   0.11554   0.78544   0.00000  Uiso   1.00
C431   C     0.61508   0.14221   0.21473   0.00000  Uiso   1.00
C432   C     0.88492   0.35779   0.78527   0.00000  Uiso   1.00
C433   C     0.85713   0.11561   0.21466   0.00000  Uiso   1.00
C434   C     0.64228   0.38496   0.78525   0.00000  Uiso   1.00
C435   C     0.88493   0.35770   0.21482   0.00000  Uiso   1.00
C436   C     0.61568   0.14294   0.78526   0.00000  Uiso   1.00
C437   C     0.64221   0.11508   0.78527   0.00000  Uiso   1.00
C438   C     0.85723   0.38439   0.21464   0.00000  Uiso   1.00
C439   C     0.61555   0.35729   0.78544   0.00000  Uiso   1.00
C440   C     0.88497   0.14217   0.21465   0.00000  Uiso   1.00
C441   C     0.85706   0.38432   0.78526   0.00000  Uiso   1.00
C442   C     0.64294   0.11568   0.21474   0.00000  Uiso   1.00
C443   C     0.88498   0.14226   0.78525   0.00000  Uiso   1.00
C444   C     0.61555   0.35731   0.21456   0.00000  Uiso   1.00
C445   C     0.89280   0.13436   0.71464   0.00000  Uiso   1.00
C446   C     0.60766   0.36509   0.28517   0.00000  Uiso   1.00
C447   C     0.86558   0.39285   0.71465   0.00000  Uiso   1.00
C448   C     0.63442   0.10715   0.28534   0.00000  Uiso   1.00
C449   C     0.60766   0.36510   0.71483   0.00000  Uiso   1.00
C450   C     0.89222   0.13489   0.28526   0.00000  Uiso   1.00
C451   C     0.63499   0.10787   0.71465   0.00000  Uiso   1.00
C452   C     0.86500   0.39224   0.28526   0.00000  Uiso   1.00
C453   C     0.89267   0.36552   0.28545   0.00000  Uiso   1.00
C454   C     0.60715   0.13442   0.71466   0.00000  Uiso   1.00
C455   C     0.86570   0.10702   0.28525   0.00000  Uiso   1.00
C456   C     0.63435   0.39281   0.71464   0.00000  Uiso   1.00
C457   C     0.60787   0.13499   0.28535   0.00000  Uiso   1.00
C458   C     0.89213   0.36501   0.71465   0.00000  Uiso   1.00
C459   C     0.63436   0.39278   0.28536   0.00000  Uiso   1.00
C460   C     0.86510   0.10767   0.71483   0.00000  Uiso   1.00
C461   C     0.53248   0.24111   0.45920   0.00000  Uiso   1.00
C462   C     0.96752   0.25887   0.54080   0.00000  Uiso   1.00
C463   C     0.75893   0.46753   0.45921   0.00000  Uiso   1.00
C464   C     0.74110   0.03248   0.54079   0.00000  Uiso   1.00
C465   C     0.96752   0.25891   0.45920   0.00000  Uiso   1.00
C466   C     0.53250   0.24119   0.54080   0.00000  Uiso   1.00
C467   C     0.74102   0.03246   0.45919   0.00000  Uiso   1.00
C468   C     0.75898   0.46755   0.54081   0.00000  Uiso   1.00
C469   C     0.71764   0.49063   0.95919   0.00000  Uiso   1.00
C470   C     0.78235   0.00935   0.04080   0.00000  Uiso   1.00
C471   C     0.50861   0.28255   0.95918   0.00000  Uiso   1.00
C472   C     0.99124   0.21747   0.04082   0.00000  Uiso   1.00
C473   C     0.78235   0.00933   0.95919   0.00000  Uiso   1.00
C474   C     0.71765   0.49060   0.04081   0.00000  Uiso   1.00
C475   C     0.99124   0.21747   0.95920   0.00000  Uiso   1.00
C476   C     0.50864   0.28254   0.04079   0.00000  Uiso   1.00
C477   C     0.59831   0.34792   0.24986   0.00000  Uiso   1.00
C478   C     0.90211   0.15166   0.74992   0.00000  Uiso   1.00
C479   C     0.65192   0.09810   0.25003   0.00000  Uiso   1.00
C480   C     0.84808   0.40190   0.74997   0.00000  Uiso   1.00
C481   C     0.90186   0.15186   0.24997   0.00000  Uiso   1.00
C482   C     0.59832   0.34791   0.75014   0.00000  Uiso   1.00
C483   C     0.84789   0.40167   0.24992   0.00000  Uiso   1.00
C484   C     0.65187   0.09815   0.74997   0.00000  Uiso   1.00
C485   C     0.59810   0.15192   0.74997   0.00000  Uiso   1.00
C486   C     0.90209   0.34832   0.25014   0.00000  Uiso   1.00
C487   C     0.65167   0.40211   0.74992   0.00000  Uiso   1.00
C488   C     0.84811   0.09807   0.24997   0.00000  Uiso   1.00
C489   C     0.90185   0.34813   0.74997   0.00000  Uiso   1.00
C490   C     0.59815   0.15187   0.25003   0.00000  Uiso   1.00
C491   C     0.84791   0.09832   0.75014   0.00000  Uiso   1.00
C492   C     0.65168   0.40210   0.25008   0.00000  Uiso   1.00
C493   C     0.50001   0.25002   0.47965   0.00000  Uiso   1.00
C494   C     0.50001   0.25003   0.52035   0.00000  Uiso   1.00
C495   C     0.75000   0.00000   0.47965   0.00000  Uiso   1.00
C496   C     0.75003   0.00001   0.52035   0.00000  Uiso   1.00
C497   C     0.75000   0.49998   0.97964   0.00000  Uiso   1.00
C498   C     0.75000   0.49997   0.02035   0.00000  Uiso   1.00
C499   C     0.99993   0.25001   0.97965   0.00000  Uiso   1.00
C500   C     0.99993   0.25001   0.02035   0.00000  Uiso   1.00
H501   H     0.94358   0.26381   0.40202   0.00000  Uiso   1.00
H502   H     0.55641   0.23609   0.59797   0.00000  Uiso   1.00
H503   H     0.73600   0.05637   0.40200   0.00000  Uiso   1.00
H504   H     0.76402   0.44363   0.59800   0.00000  Uiso   1.00
H505   H     0.55642   0.23621   0.40201   0.00000  Uiso   1.00
H506   H     0.94361   0.26396   0.59797   0.00000  Uiso   1.00
H507   H     0.76400   0.44362   0.40204   0.00000  Uiso   1.00
H508   H     0.73601   0.05639   0.59796   0.00000  Uiso   1.00
H509   H     0.80540   0.01738   0.90195   0.00000  Uiso   1.00
H510   H     0.69458   0.48263   0.09804   0.00000  Uiso   1.00
H511   H     0.98369   0.19425   0.90199   0.00000  Uiso   1.00
H512   H     0.51618   0.30578   0.09799   0.00000  Uiso   1.00
H513   H     0.69459   0.48261   0.90196   0.00000  Uiso   1.00
H514   H     0.80542   0.01733   0.09802   0.00000  Uiso   1.00
H515   H     0.51624   0.30574   0.90196   0.00000  Uiso   1.00
H516   H     0.98373   0.19425   0.09804   0.00000  Uiso   1.00
O517   O     0.75000  -0.00000   0.25000   0.00000  Uiso   1.00
O518   O     0.75000  -0.00000   0.75000   0.00000  Uiso   1.00
O519   O     0.50000   0.25000   0.25000   0.00000  Uiso   1.00
O520   O     0.50000   0.25000   0.75000   0.00000  Uiso   1.00
O521   O     0.75000   0.46963   0.33755   0.00000  Uiso   1.00
O522   O     0.75000   0.03036   0.66245   0.00000  Uiso   1.00
O523   O     0.53037   0.25000   0.33755   0.00000  Uiso   1.00
O524   O     0.96964   0.25000   0.66245   0.00000  Uiso   1.00
O525   O     0.75000   0.03036   0.33755   0.00000  Uiso   1.00
O526   O     0.75000   0.46963   0.66245   0.00000  Uiso   1.00
O527   O     0.96964   0.25000   0.33755   0.00000  Uiso   1.00
O528   O     0.53037   0.25000   0.66245   0.00000  Uiso   1.00
O529   O     0.50000   0.21964   0.83755   0.00000  Uiso   1.00
O530   O     0.50000   0.28036   0.16245   0.00000  Uiso   1.00
O531   O     0.78037  -0.00000   0.83755   0.00000  Uiso   1.00
O532   O     0.71964  -0.00000   0.16245   0.00000  Uiso   1.00
O533   O     0.50000   0.28037   0.83755   0.00000  Uiso   1.00
O534   O     0.50000   0.21964   0.16245   0.00000  Uiso   1.00
O535   O     0.71964  -0.00000   0.83755   0.00000  Uiso   1.00
O536   O     0.78037  -0.00000   0.16245   0.00000  Uiso   1.00
O537   O     0.70725   0.07307   0.27302   0.00000  Uiso   1.00
O538   O     0.79276   0.42692   0.72698   0.00000  Uiso   1.00
O539   O     0.92693   0.20724   0.27302   0.00000  Uiso   1.00
O540   O     0.57308   0.29275   0.72698   0.00000  Uiso   1.00
O541   O     0.79276   0.42692   0.27302   0.00000  Uiso   1.00
O542   O     0.70725   0.07307   0.72698   0.00000  Uiso   1.00
O543   O     0.57308   0.29275   0.27302   0.00000  Uiso   1.00
O544   O     0.92693   0.20724   0.72698   0.00000  Uiso   1.00
O545   O     0.70725   0.42692   0.72698   0.00000  Uiso   1.00
O546   O     0.79276   0.07307   0.27302   0.00000  Uiso   1.00
O547   O     0.92693   0.29275   0.72698   0.00000  Uiso   1.00
O548   O     0.57308   0.20724   0.27302   0.00000  Uiso   1.00
O549   O     0.79276   0.07307   0.72698   0.00000  Uiso   1.00
O550   O     0.70725   0.42692   0.27302   0.00000  Uiso   1.00
O551   O     0.57308   0.20724   0.72698   0.00000  Uiso   1.00
O552   O     0.92693   0.29275   0.27302   0.00000  Uiso   1.00
O553   O     0.95725   0.32307   0.77302   0.00000  Uiso   1.00
O554   O     0.54276   0.17692   0.22698   0.00000  Uiso   1.00
O555   O     0.67693   0.45724   0.77302   0.00000  Uiso   1.00
O556   O     0.82308   0.04275   0.22698   0.00000  Uiso   1.00
O557   O     0.54276   0.17692   0.77302   0.00000  Uiso   1.00
O558   O     0.95725   0.32307   0.22698   0.00000  Uiso   1.00
O559   O     0.82308   0.04275   0.77302   0.00000  Uiso   1.00
O560   O     0.67693   0.45724   0.22698   0.00000  Uiso   1.00
O561   O     0.95725   0.17692   0.22698   0.00000  Uiso   1.00
O562   O     0.54276   0.32308   0.77302   0.00000  Uiso   1.00
O563   O     0.67693   0.04275   0.22698   0.00000  Uiso   1.00
O564   O     0.82308   0.45724   0.77302   0.00000  Uiso   1.00
O565   O     0.54276   0.32308   0.22698   0.00000  Uiso   1.00
O566   O     0.95725   0.17692   0.77302   0.00000  Uiso   1.00
O567   O     0.82308   0.45724   0.22698   0.00000  Uiso   1.00
O568   O     0.67693   0.04275   0.77302   0.00000  Uiso   1.00
Zn569  Zn    0.70660  -0.00000   0.21735   0.00000  Uiso   1.00
Zn570  Zn    0.79341  -0.00000   0.78265   0.00000  Uiso   1.00
Zn571  Zn    0.50000   0.20660   0.21735   0.00000  Uiso   1.00
Zn572  Zn    0.50000   0.29341   0.78265   0.00000  Uiso   1.00
Zn573  Zn    0.79341  -0.00000   0.21735   0.00000  Uiso   1.00
Zn574  Zn    0.70660  -0.00000   0.78265   0.00000  Uiso   1.00
Zn575  Zn    0.50000   0.29341   0.21735   0.00000  Uiso   1.00
Zn576  Zn    0.50000   0.20660   0.78265   0.00000  Uiso   1.00
Zn577  Zn    0.95660   0.25000   0.71735   0.00000  Uiso   1.00
Zn578  Zn    0.54341   0.25000   0.28265   0.00000  Uiso   1.00
Zn579  Zn    0.75000   0.45659   0.71735   0.00000  Uiso   1.00
Zn580  Zn    0.75000   0.04340   0.28265   0.00000  Uiso   1.00
Zn581  Zn    0.54341   0.25000   0.71735   0.00000  Uiso   1.00
Zn582  Zn    0.95660   0.25000   0.28265   0.00000  Uiso   1.00
Zn583  Zn    0.75000   0.04340   0.71735   0.00000  Uiso   1.00
Zn584  Zn    0.75000   0.45659   0.28265   0.00000  Uiso   1.00
C585   C     0.59770   0.21945   0.45775   0.00000  Uiso   1.00
H586   H     0.59521   0.19771   0.43654   0.00000  Uiso   1.00
O587   O     0.62724   0.23433   0.46211   0.00000  Uiso   1.00
C588   C     0.90221   0.28007   0.54228   0.00000  Uiso   1.00
H589   H     0.90424   0.30266   0.56255   0.00000  Uiso   1.00
O590   O     0.87325   0.26383   0.53916   0.00000  Uiso   1.00
C591   C     0.78042   0.40230   0.45775   0.00000  Uiso   1.00
H592   H     0.80274   0.40453   0.43717   0.00000  Uiso   1.00
O593   O     0.76465   0.37312   0.46128   0.00000  Uiso   1.00
C594   C     0.71968   0.09772   0.54226   0.00000  Uiso   1.00
H595   H     0.69724   0.09557   0.56270   0.00000  Uiso   1.00
O596   O     0.73564   0.12681   0.53890   0.00000  Uiso   1.00
C597   C     0.90230   0.28054   0.45774   0.00000  Uiso   1.00
H598   H     0.90476   0.30236   0.43660   0.00000  Uiso   1.00
O599   O     0.87281   0.26553   0.46200   0.00000  Uiso   1.00
C600   C     0.59782   0.22006   0.54229   0.00000  Uiso   1.00
H601   H     0.59586   0.19738   0.56247   0.00000  Uiso   1.00
O602   O     0.62671   0.23644   0.53928   0.00000  Uiso   1.00
C603   C     0.71933   0.09765   0.45771   0.00000  Uiso   1.00
H604   H     0.69734   0.09522   0.43678   0.00000  Uiso   1.00
O605   O     0.73452   0.12707   0.46172   0.00000  Uiso   1.00
C606   C     0.78059   0.40234   0.54229   0.00000  Uiso   1.00
H607   H     0.80269   0.40470   0.56312   0.00000  Uiso   1.00
O608   O     0.76520   0.37299   0.53845   0.00000  Uiso   1.00
C609   C     0.65103   0.47377   0.95778   0.00000  Uiso   1.00
H610   H     0.64100   0.49368   0.93702   0.00000  Uiso   1.00
O611   O     0.63471   0.44493   0.96159   0.00000  Uiso   1.00
C612   C     0.84891   0.02631   0.04224   0.00000  Uiso   1.00
H613   H     0.85922   0.00624   0.06265   0.00000  Uiso   1.00
O614   O     0.86482   0.05543   0.03887   0.00000  Uiso   1.00
C615   C     0.52392   0.34953   0.95773   0.00000  Uiso   1.00
H616   H     0.50383   0.35902   0.93689   0.00000  Uiso   1.00
O617   O     0.55232   0.36660   0.96161   0.00000  Uiso   1.00
C618   C     0.97572   0.15056   0.04228   0.00000  Uiso   1.00
H619   H     0.99597   0.14076   0.06278   0.00000  Uiso   1.00
O620   O     0.94702   0.13393   0.03883   0.00000  Uiso   1.00
C621   C     0.84898   0.02613   0.95775   0.00000  Uiso   1.00
H622   H     0.85898   0.00623   0.93700   0.00000  Uiso   1.00
O623   O     0.86533   0.05496   0.96154   0.00000  Uiso   1.00
C624   C     0.65111   0.47357   0.04226   0.00000  Uiso   1.00
H625   H     0.64076   0.49363   0.06265   0.00000  Uiso   1.00
O626   O     0.63525   0.44442   0.03893   0.00000  Uiso   1.00
C627   C     0.97577   0.15053   0.95780   0.00000  Uiso   1.00
H628   H     0.99591   0.14087   0.93712   0.00000  Uiso   1.00
O629   O     0.94721   0.13370   0.96151   0.00000  Uiso   1.00
C630   C     0.52417   0.34944   0.04222   0.00000  Uiso   1.00
H631   H     0.50385   0.35936   0.06257   0.00000  Uiso   1.00
O632   O     0.55297   0.36592   0.03893   0.00000  Uiso   1.00
C633   C     0.66290   0.39448   0.17904   0.00000  Uiso   1.00
H634   H     0.69221   0.39015   0.17801   0.00000  Uiso   1.00
O635   O     0.64771   0.40942   0.15180   0.00000  Uiso   1.00
C636   C     0.83557   0.10738   0.82115   0.00000  Uiso   1.00
H637   H     0.80701   0.09975   0.81865   0.00000  Uiso   1.00
O638   O     0.84918   0.10795   0.85344   0.00000  Uiso   1.00
C639   C     0.60526   0.16247   0.17890   0.00000  Uiso   1.00
H640   H     0.60899   0.19186   0.17772   0.00000  Uiso   1.00
O641   O     0.59070   0.14685   0.15172   0.00000  Uiso   1.00
C642   C     0.89474   0.33753   0.82110   0.00000  Uiso   1.00
H643   H     0.89101   0.30814   0.82228   0.00000  Uiso   1.00
O644   O     0.90931   0.35315   0.84828   0.00000  Uiso   1.00
C645   C     0.83494   0.10782   0.17915   0.00000  Uiso   1.00
H646   H     0.80644   0.10010   0.18197   0.00000  Uiso   1.00
O647   O     0.84808   0.10884   0.14666   0.00000  Uiso   1.00
C648   C     0.66288   0.39446   0.82096   0.00000  Uiso   1.00
H649   H     0.69219   0.39014   0.82199   0.00000  Uiso   1.00
O650   O     0.64768   0.40937   0.84820   0.00000  Uiso   1.00
C651   C     0.89444   0.33710   0.17912   0.00000  Uiso   1.00
H652   H     0.89007   0.30780   0.17806   0.00000  Uiso   1.00
O653   O     0.90941   0.35232   0.15192   0.00000  Uiso   1.00
C654   C     0.60800   0.16523   0.82073   0.00000  Uiso   1.00
H655   H     0.60003   0.19366   0.81784   0.00000  Uiso   1.00
O656   O     0.60943   0.15227   0.85328   0.00000  Uiso   1.00
C657   C     0.66246   0.10525   0.82109   0.00000  Uiso   1.00
H658   H     0.69185   0.10899   0.82227   0.00000  Uiso   1.00
O659   O     0.64684   0.09068   0.84828   0.00000  Uiso   1.00
C660   C     0.83538   0.39242   0.17897   0.00000  Uiso   1.00
H661   H     0.80689   0.40026   0.18155   0.00000  Uiso   1.00
O662   O     0.84881   0.39148   0.14662   0.00000  Uiso   1.00
C663   C     0.60742   0.33553   0.82115   0.00000  Uiso   1.00
H664   H     0.59976   0.30699   0.81864   0.00000  Uiso   1.00
O665   O     0.60802   0.34912   0.85344   0.00000  Uiso   1.00
C666   C     0.89480   0.16242   0.17881   0.00000  Uiso   1.00
H667   H     0.89112   0.19182   0.17765   0.00000  Uiso   1.00
O668   O     0.90931   0.14680   0.15160   0.00000  Uiso   1.00
C669   C     0.83477   0.39201   0.82074   0.00000  Uiso   1.00
H670   H     0.80634   0.39994   0.81786   0.00000  Uiso   1.00
O671   O     0.84775   0.39061   0.85328   0.00000  Uiso   1.00
C672   C     0.66523   0.10800   0.17926   0.00000  Uiso   1.00
H673   H     0.69367   0.10006   0.18215   0.00000  Uiso   1.00
O674   O     0.65227   0.10941   0.14672   0.00000  Uiso   1.00
C675   C     0.89448   0.16286   0.82096   0.00000  Uiso   1.00
H676   H     0.89015   0.19217   0.82200   0.00000  Uiso   1.00
O677   O     0.90940   0.14765   0.84820   0.00000  Uiso   1.00
C678   C     0.60741   0.33558   0.17884   0.00000  Uiso   1.00
H679   H     0.59974   0.30704   0.18135   0.00000  Uiso   1.00
O680   O     0.60804   0.34918   0.14656   0.00000  Uiso   1.00
C681   C     0.91468   0.14238   0.67898   0.00000  Uiso   1.00
H682   H     0.94316   0.15024   0.68158   0.00000  Uiso   1.00
O683   O     0.90128   0.14139   0.64662   0.00000  Uiso   1.00
C684   C     0.58702   0.35560   0.32086   0.00000  Uiso   1.00
H685   H     0.55771   0.35997   0.32188   0.00000  Uiso   1.00
O686   O     0.60219   0.34065   0.34809   0.00000  Uiso   1.00
C687   C     0.85775   0.41502   0.67913   0.00000  Uiso   1.00
H688   H     0.85006   0.44353   0.68193   0.00000  Uiso   1.00
O689   O     0.85871   0.40185   0.64666   0.00000  Uiso   1.00
C690   C     0.64224   0.08497   0.32087   0.00000  Uiso   1.00
H691   H     0.64994   0.05647   0.31807   0.00000  Uiso   1.00
O692   O     0.64127   0.09814   0.35334   0.00000  Uiso   1.00
C693   C     0.58704   0.35563   0.67914   0.00000  Uiso   1.00
H694   H     0.55773   0.35999   0.67810   0.00000  Uiso   1.00
O695   O     0.60222   0.34068   0.65191   0.00000  Uiso   1.00
C696   C     0.91249   0.14469   0.32109   0.00000  Uiso   1.00
H697   H     0.94188   0.14096   0.32225   0.00000  Uiso   1.00
O698   O     0.89687   0.15922   0.34829   0.00000  Uiso   1.00
C699   C     0.64483   0.08766   0.67880   0.00000  Uiso   1.00
H700   H     0.64114   0.05826   0.67761   0.00000  Uiso   1.00
O701   O     0.65936   0.10331   0.65160   0.00000  Uiso   1.00
C702   C     0.85548   0.41282   0.32098   0.00000  Uiso   1.00
H703   H     0.85982   0.44213   0.32203   0.00000  Uiso   1.00
O704   O     0.84054   0.39760   0.34820   0.00000  Uiso   1.00
C705   C     0.91438   0.35734   0.32118   0.00000  Uiso   1.00
H706   H     0.94293   0.34971   0.31869   0.00000  Uiso   1.00
O707   O     0.90074   0.35788   0.35344   0.00000  Uiso   1.00
C708   C     0.58498   0.14225   0.67913   0.00000  Uiso   1.00
H709   H     0.55647   0.14994   0.68194   0.00000  Uiso   1.00
O710   O     0.59815   0.14129   0.64666   0.00000  Uiso   1.00
C711   C     0.85804   0.08468   0.32071   0.00000  Uiso   1.00
H712   H     0.85007   0.05626   0.31781   0.00000  Uiso   1.00
O713   O     0.85950   0.09760   0.35327   0.00000  Uiso   1.00
C714   C     0.64236   0.41470   0.67899   0.00000  Uiso   1.00
H715   H     0.65023   0.44318   0.68159   0.00000  Uiso   1.00
O716   O     0.64136   0.40131   0.64662   0.00000  Uiso   1.00
C717   C     0.58766   0.14483   0.32121   0.00000  Uiso   1.00
H718   H     0.55826   0.14113   0.32241   0.00000  Uiso   1.00
O719   O     0.60331   0.15936   0.34839   0.00000  Uiso   1.00
C720   C     0.91235   0.35518   0.67879   0.00000  Uiso   1.00
H721   H     0.94174   0.35887   0.67760   0.00000  Uiso   1.00
O722   O     0.89670   0.34064   0.65161   0.00000  Uiso   1.00
C723   C     0.64237   0.41464   0.32102   0.00000  Uiso   1.00
H724   H     0.65021   0.44313   0.31842   0.00000  Uiso   1.00
O725   O     0.64140   0.40122   0.35337   0.00000  Uiso   1.00
C726   C     0.85560   0.08706   0.67913   0.00000  Uiso   1.00
H727   H     0.85997   0.05775   0.67810   0.00000  Uiso   1.00
O728   O     0.84066   0.10225   0.65191   0.00000  Uiso   1.00
C729   C     0.46803   0.75805   0.41853   0.00000  Uiso   1.00
C730   C     0.03198   0.74197   0.58147   0.00000  Uiso   1.00
C731   C     0.24185   0.53194   0.41852   0.00000  Uiso   1.00
C732   C     0.25816   0.96806   0.58148   0.00000  Uiso   1.00
C733   C     0.03197   0.74196   0.41853   0.00000  Uiso   1.00
C734   C     0.46804   0.75808   0.58147   0.00000  Uiso   1.00
C735   C     0.25811   0.96804   0.41854   0.00000  Uiso   1.00
C736   C     0.24191   0.53196   0.58146   0.00000  Uiso   1.00
C737   C     0.28158   0.50944   0.91851   0.00000  Uiso   1.00
C738   C     0.21841   0.99052   0.08149   0.00000  Uiso   1.00
C739   C     0.49112   0.71823   0.91853   0.00000  Uiso   1.00
C740   C     0.00877   0.78178   0.08147   0.00000  Uiso   1.00
C741   C     0.21841   0.99054   0.91851   0.00000  Uiso   1.00
C742   C     0.28159   0.50943   0.08148   0.00000  Uiso   1.00
C743   C     0.00878   0.78177   0.91851   0.00000  Uiso   1.00
C744   C     0.49114   0.71824   0.08150   0.00000  Uiso   1.00
C745   C    -0.00000   0.75000   0.39837   0.00000  Uiso   1.00
C746   C     0.00000   0.75002   0.60163   0.00000  Uiso   1.00
C747   C     0.24998   0.99999   0.39837   0.00000  Uiso   1.00
C748   C     0.25003   0.50001   0.60163   0.00000  Uiso   1.00
C749   C     0.25000   0.99999   0.89836   0.00000  Uiso   1.00
C750   C     0.25000   0.99999   0.10164   0.00000  Uiso   1.00
C751   C     0.49997   0.74999   0.89836   0.00000  Uiso   1.00
C752   C     0.49997   0.75001   0.10164   0.00000  Uiso   1.00
C753   C     0.06486   0.73190   0.47952   0.00000  Uiso   1.00
C754   C     0.43514   0.76802   0.52049   0.00000  Uiso   1.00
C755   C     0.26818   0.93518   0.47953   0.00000  Uiso   1.00
C756   C     0.23186   0.56483   0.52047   0.00000  Uiso   1.00
C757   C     0.43515   0.76813   0.47951   0.00000  Uiso   1.00
C758   C     0.06488   0.73205   0.52049   0.00000  Uiso   1.00
C759   C     0.23177   0.56482   0.47950   0.00000  Uiso   1.00
C760   C     0.26823   0.93518   0.52050   0.00000  Uiso   1.00
C761   C     0.18536   0.98112   0.97952   0.00000  Uiso   1.00
C762   C     0.31462   0.51885   0.02048   0.00000  Uiso   1.00
C763   C     0.01738   0.81504   0.97949   0.00000  Uiso   1.00
C764   C     0.48241   0.68500   0.02051   0.00000  Uiso   1.00
C765   C     0.31464   0.51881   0.97950   0.00000  Uiso   1.00
C766   C     0.18538   0.98107   0.02050   0.00000  Uiso   1.00
C767   C     0.48242   0.68499   0.97954   0.00000  Uiso   1.00
C768   C     0.01744   0.81501   0.02046   0.00000  Uiso   1.00
C769   C     0.25000   0.50000   0.35596   0.00000  Uiso   1.00
C770   C     0.25000   0.50000   0.64404   0.00000  Uiso   1.00
C771   C    -0.00000   0.75000   0.35596   0.00000  Uiso   1.00
C772   C     0.00000   0.75000   0.64404   0.00000  Uiso   1.00
C773   C    -0.00000   0.75000   0.85595   0.00000  Uiso   1.00
C774   C     0.49999   0.75000   0.14405   0.00000  Uiso   1.00
C775   C     0.25000   0.50000   0.85595   0.00000  Uiso   1.00
C776   C     0.25000   0.50000   0.14405   0.00000  Uiso   1.00
C777   C     0.18003   0.56995   0.25002   0.00000  Uiso   1.00
C778   C     0.31997   0.93005   0.74998   0.00000  Uiso   1.00
C779   C     0.43002   0.68004   0.24998   0.00000  Uiso   1.00
C780   C     0.07000   0.81993   0.75003   0.00000  Uiso   1.00
C781   C     0.31995   0.93001   0.25001   0.00000  Uiso   1.00
C782   C     0.18002   0.56997   0.74998   0.00000  Uiso   1.00
C783   C     0.07000   0.81993   0.24997   0.00000  Uiso   1.00
C784   C     0.43006   0.68001   0.75001   0.00000  Uiso   1.00
C785   C     0.18001   0.93006   0.75001   0.00000  Uiso   1.00
C786   C     0.31995   0.56996   0.24998   0.00000  Uiso   1.00
C787   C     0.43003   0.81998   0.74998   0.00000  Uiso   1.00
C788   C     0.06997   0.68002   0.25002   0.00000  Uiso   1.00
C789   C     0.31993   0.57000   0.75003   0.00000  Uiso   1.00
C790   C     0.18001   0.93005   0.24999   0.00000  Uiso   1.00
C791   C     0.06995   0.68003   0.74998   0.00000  Uiso   1.00
C792   C     0.43007   0.82001   0.25003   0.00000  Uiso   1.00
C793   C     0.14229   0.88498   0.21475   0.00000  Uiso   1.00
C794   C     0.35731   0.61554   0.78544   0.00000  Uiso   1.00
C795   C     0.11508   0.64221   0.21473   0.00000  Uiso   1.00
C796   C     0.38492   0.85779   0.78527   0.00000  Uiso   1.00
C797   C     0.35713   0.61561   0.21466   0.00000  Uiso   1.00
C798   C     0.14228   0.88496   0.78525   0.00000  Uiso   1.00
C799   C     0.38493   0.85770   0.21482   0.00000  Uiso   1.00
C800   C     0.11568   0.64294   0.78526   0.00000  Uiso   1.00
C801   C     0.14221   0.61508   0.78527   0.00000  Uiso   1.00
C802   C     0.35723   0.88439   0.21464   0.00000  Uiso   1.00
C803   C     0.11555   0.85729   0.78544   0.00000  Uiso   1.00
C804   C     0.38497   0.64217   0.21465   0.00000  Uiso   1.00
C805   C     0.35706   0.88432   0.78526   0.00000  Uiso   1.00
C806   C     0.14294   0.61568   0.21474   0.00000  Uiso   1.00
C807   C     0.38498   0.64226   0.78525   0.00000  Uiso   1.00
C808   C     0.11555   0.85731   0.21456   0.00000  Uiso   1.00
C809   C     0.39280   0.63436   0.71464   0.00000  Uiso   1.00
C810   C     0.10766   0.86509   0.28517   0.00000  Uiso   1.00
C811   C     0.36558   0.89285   0.71465   0.00000  Uiso   1.00
C812   C     0.13442   0.60715   0.28534   0.00000  Uiso   1.00
C813   C     0.10766   0.86510   0.71483   0.00000  Uiso   1.00
C814   C     0.39222   0.63489   0.28526   0.00000  Uiso   1.00
C815   C     0.13499   0.60787   0.71465   0.00000  Uiso   1.00
C816   C     0.36500   0.89224   0.28526   0.00000  Uiso   1.00
C817   C     0.39267   0.86552   0.28545   0.00000  Uiso   1.00
C818   C     0.10715   0.63442   0.71466   0.00000  Uiso   1.00
C819   C     0.36570   0.60702   0.28525   0.00000  Uiso   1.00
C820   C     0.13435   0.89281   0.71464   0.00000  Uiso   1.00
C821   C     0.10787   0.63499   0.28535   0.00000  Uiso   1.00
C822   C     0.39213   0.86501   0.71465   0.00000  Uiso   1.00
C823   C     0.13436   0.89278   0.28536   0.00000  Uiso   1.00
C824   C     0.36510   0.60767   0.71483   0.00000  Uiso   1.00
C825   C     0.03248   0.74111   0.45920   0.00000  Uiso   1.00
C826   C     0.46752   0.75887   0.54080   0.00000  Uiso   1.00
C827   C     0.25893   0.96753   0.45921   0.00000  Uiso   1.00
C828   C     0.24110   0.53248   0.54079   0.00000  Uiso   1.00
C829   C     0.46752   0.75891   0.45920   0.00000  Uiso   1.00
C830   C     0.03250   0.74119   0.54080   0.00000  Uiso   1.00
C831   C     0.24102   0.53246   0.45919   0.00000  Uiso   1.00
C832   C     0.25898   0.96755   0.54081   0.00000  Uiso   1.00
C833   C     0.21764   0.99063   0.95919   0.00000  Uiso   1.00
C834   C     0.28235   0.50935   0.04080   0.00000  Uiso   1.00
C835   C     0.00861   0.78255   0.95918   0.00000  Uiso   1.00
C836   C     0.49124   0.71747   0.04082   0.00000  Uiso   1.00
C837   C     0.28235   0.50933   0.95919   0.00000  Uiso   1.00
C838   C     0.21765   0.99060   0.04081   0.00000  Uiso   1.00
C839   C     0.49124   0.71747   0.95920   0.00000  Uiso   1.00
C840   C     0.00864   0.78254   0.04079   0.00000  Uiso   1.00
C841   C     0.09831   0.84792   0.24986   0.00000  Uiso   1.00
C842   C     0.40211   0.65166   0.74992   0.00000  Uiso   1.00
C843   C     0.15192   0.59810   0.25003   0.00000  Uiso   1.00
C844   C     0.34808   0.90190   0.74997   0.00000  Uiso   1.00
C845   C     0.40186   0.65186   0.24997   0.00000  Uiso   1.00
C846   C     0.09832   0.84791   0.75014   0.00000  Uiso   1.00
C847   C     0.34789   0.90167   0.24992   0.00000  Uiso   1.00
C848   C     0.15187   0.59815   0.74997   0.00000  Uiso   1.00
C849   C     0.09810   0.65192   0.74997   0.00000  Uiso   1.00
C850   C     0.40209   0.84832   0.25014   0.00000  Uiso   1.00
C851   C     0.15167   0.90211   0.74992   0.00000  Uiso   1.00
C852   C     0.34811   0.59807   0.24997   0.00000  Uiso   1.00
C853   C     0.40185   0.84813   0.74997   0.00000  Uiso   1.00
C854   C     0.09815   0.65187   0.25003   0.00000  Uiso   1.00
C855   C     0.34791   0.59832   0.75014   0.00000  Uiso   1.00
C856   C     0.15168   0.90210   0.25008   0.00000  Uiso   1.00
C857   C     0.00001   0.75002   0.47965   0.00000  Uiso   1.00
C858   C     0.00001   0.75003   0.52035   0.00000  Uiso   1.00
C859   C     0.25000   0.50000   0.47965   0.00000  Uiso   1.00
C860   C     0.25003   0.50001   0.52035   0.00000  Uiso   1.00
C861   C     0.25000   0.99998   0.97964   0.00000  Uiso   1.00
C862   C     0.25000   0.99997   0.02035   0.00000  Uiso   1.00
C863   C     0.49993   0.75001   0.97965   0.00000  Uiso   1.00
C864   C     0.49993   0.75001   0.02035   0.00000  Uiso   1.00
H865   H     0.44358   0.76381   0.40202   0.00000  Uiso   1.00
H866   H     0.05641   0.73609   0.59797   0.00000  Uiso   1.00
H867   H     0.23600   0.55637   0.40200   0.00000  Uiso   1.00
H868   H     0.26402   0.94363   0.59800   0.00000  Uiso   1.00
H869   H     0.05642   0.73621   0.40201   0.00000  Uiso   1.00
H870   H     0.44361   0.76396   0.59797   0.00000  Uiso   1.00
H871   H     0.26400   0.94362   0.40204   0.00000  Uiso   1.00
H872   H     0.23601   0.55639   0.59796   0.00000  Uiso   1.00
H873   H     0.30540   0.51738   0.90195   0.00000  Uiso   1.00
H874   H     0.19458   0.98263   0.09804   0.00000  Uiso   1.00
H875   H     0.48369   0.69425   0.90199   0.00000  Uiso   1.00
H876   H     0.01618   0.80578   0.09799   0.00000  Uiso   1.00
H877   H     0.19459   0.98261   0.90196   0.00000  Uiso   1.00
H878   H     0.30542   0.51733   0.09802   0.00000  Uiso   1.00
H879   H     0.01624   0.80574   0.90196   0.00000  Uiso   1.00
H880   H     0.48373   0.69425   0.09804   0.00000  Uiso   1.00
O881   O     0.25000   0.50000   0.25000   0.00000  Uiso   1.00
O882   O     0.25000   0.50000   0.75000   0.00000  Uiso   1.00
O883   O     0.00000   0.75000   0.25000   0.00000  Uiso   1.00
O884   O     0.00000   0.75000   0.75000   0.00000  Uiso   1.00
O885   O     0.25000   0.96963   0.33755   0.00000  Uiso   1.00
O886   O     0.25000   0.53036   0.66245   0.00000  Uiso   1.00
O887   O     0.03037   0.75000   0.33755   0.00000  Uiso   1.00
O888   O     0.46964   0.75000   0.66245   0.00000  Uiso   1.00
O889   O     0.25000   0.53036   0.33755   0.00000  Uiso   1.00
O890   O     0.25000   0.96963   0.66245   0.00000  Uiso   1.00
O891   O     0.46964   0.75000   0.33755   0.00000  Uiso   1.00
O892   O     0.03037   0.75000   0.66245   0.00000  Uiso   1.00
O893   O     0.00000   0.71964   0.83755   0.00000  Uiso   1.00
O894   O     0.00000   0.78036   0.16245   0.00000  Uiso   1.00
O895   O     0.28037   0.50000   0.83755   0.00000  Uiso   1.00
O896   O     0.21964   0.50000   0.16245   0.00000  Uiso   1.00
O897   O     0.00000   0.78037   0.83755   0.00000  Uiso   1.00
O898   O     0.00000   0.71964   0.16245   0.00000  Uiso   1.00
O899   O     0.21964   0.50000   0.83755   0.00000  Uiso   1.00
O900   O     0.28037   0.50000   0.16245   0.00000  Uiso   1.00
O901   O     0.20725   0.57307   0.27302   0.00000  Uiso   1.00
O902   O     0.29276   0.92692   0.72698   0.00000  Uiso   1.00
O903   O     0.42693   0.70724   0.27302   0.00000  Uiso   1.00
O904   O     0.07308   0.79275   0.72698   0.00000  Uiso   1.00
O905   O     0.29276   0.92692   0.27302   0.00000  Uiso   1.00
O906   O     0.20725   0.57307   0.72698   0.00000  Uiso   1.00
O907   O     0.07308   0.79275   0.27302   0.00000  Uiso   1.00
O908   O     0.42693   0.70724   0.72698   0.00000  Uiso   1.00
O909   O     0.20725   0.92692   0.72698   0.00000  Uiso   1.00
O910   O     0.29276   0.57307   0.27302   0.00000  Uiso   1.00
O911   O     0.42693   0.79275   0.72698   0.00000  Uiso   1.00
O912   O     0.07308   0.70724   0.27302   0.00000  Uiso   1.00
O913   O     0.29276   0.57307   0.72698   0.00000  Uiso   1.00
O914   O     0.20725   0.92692   0.27302   0.00000  Uiso   1.00
O915   O     0.07308   0.70724   0.72698   0.00000  Uiso   1.00
O916   O     0.42693   0.79275   0.27302   0.00000  Uiso   1.00
O917   O     0.45725   0.82307   0.77302   0.00000  Uiso   1.00
O918   O     0.04276   0.67692   0.22698   0.00000  Uiso   1.00
O919   O     0.17693   0.95724   0.77302   0.00000  Uiso   1.00
O920   O     0.32308   0.54275   0.22698   0.00000  Uiso   1.00
O921   O     0.04276   0.67692   0.77302   0.00000  Uiso   1.00
O922   O     0.45725   0.82307   0.22698   0.00000  Uiso   1.00
O923   O     0.32308   0.54275   0.77302   0.00000  Uiso   1.00
O924   O     0.17693   0.95724   0.22698   0.00000  Uiso   1.00
O925   O     0.45725   0.67692   0.22698   0.00000  Uiso   1.00
O926   O     0.04276   0.82308   0.77302   0.00000  Uiso   1.00
O927   O     0.17693   0.54275   0.22698   0.00000  Uiso   1.00
O928   O     0.32308   0.95724   0.77302   0.00000  Uiso   1.00
O929   O     0.04276   0.82308   0.22698   0.00000  Uiso   1.00
O930   O     0.45725   0.67692   0.77302   0.00000  Uiso   1.00
O931   O     0.32308   0.95724   0.22698   0.00000  Uiso   1.00
O932   O     0.17693   0.54275   0.77302   0.00000  Uiso   1.00
Zn933  Zn    0.20660   0.50000   0.21735   0.00000  Uiso   1.00
Zn934  Zn    0.29341   0.50000   0.78265   0.00000  Uiso   1.00
Zn935  Zn    0.00000   0.70660   0.21735   0.00000  Uiso   1.00
Zn936  Zn    0.00000   0.79341   0.78265   0.00000  Uiso   1.00
Zn937  Zn    0.29341   0.50000   0.21735   0.00000  Uiso   1.00
Zn938  Zn    0.20660   0.50000   0.78265   0.00000  Uiso   1.00
Zn939  Zn    0.00000   0.79341   0.21735   0.00000  Uiso   1.00
Zn940  Zn    0.00000   0.70660   0.78265   0.00000  Uiso   1.00
Zn941  Zn    0.45660   0.75000   0.71735   0.00000  Uiso   1.00
Zn942  Zn    0.04341   0.75000   0.28265   0.00000  Uiso   1.00
Zn943  Zn    0.25000   0.95659   0.71735   0.00000  Uiso   1.00
Zn944  Zn    0.25000   0.54340   0.28265   0.00000  Uiso   1.00
Zn945  Zn    0.04341   0.75000   0.71735   0.00000  Uiso   1.00
Zn946  Zn    0.45660   0.75000   0.28265   0.00000  Uiso   1.00
Zn947  Zn    0.25000   0.54340   0.71735   0.00000  Uiso   1.00
Zn948  Zn    0.25000   0.95659   0.28265   0.00000  Uiso   1.00
C949   C     0.09770   0.71945   0.45775   0.00000  Uiso   1.00
H950   H     0.09521   0.69771   0.43654   0.00000  Uiso   1.00
O951   O     0.12724   0.73433   0.46211   0.00000  Uiso   1.00
C952   C     0.40221   0.78007   0.54228   0.00000  Uiso   1.00
H953   H     0.40424   0.80266   0.56255   0.00000  Uiso   1.00
O954   O     0.37325   0.76383   0.53916   0.00000  Uiso   1.00
C955   C     0.28042   0.90230   0.45775   0.00000  Uiso   1.00
H956   H     0.30274   0.90453   0.43717   0.00000  Uiso   1.00
O957   O     0.26465   0.87312   0.46128   0.00000  Uiso   1.00
C958   C     0.21968   0.59772   0.54226   0.00000  Uiso   1.00
H959   H     0.19724   0.59557   0.56270   0.00000  Uiso   1.00
O960   O     0.23564   0.62681   0.53890   0.00000  Uiso   1.00
C961   C     0.40230   0.78054   0.45774   0.00000  Uiso   1.00
H962   H     0.40476   0.80236   0.43660   0.00000  Uiso   1.00
O963   O     0.37281   0.76553   0.46200   0.00000  Uiso   1.00
C964   C     0.09782   0.72006   0.54229   0.00000  Uiso   1.00
H965   H     0.09586   0.69738   0.56247   0.00000  Uiso   1.00
O966   O     0.12671   0.73644   0.53928   0.00000  Uiso   1.00
C967   C     0.21933   0.59765   0.45771   0.00000  Uiso   1.00
H968   H     0.19734   0.59522   0.43678   0.00000  Uiso   1.00
O969   O     0.23452   0.62707   0.46172   0.00000  Uiso   1.00
C970   C     0.28059   0.90234   0.54229   0.00000  Uiso   1.00
H971   H     0.30269   0.90470   0.56312   0.00000  Uiso   1.00
O972   O     0.26520   0.87299   0.53845   0.00000  Uiso   1.00
C973   C     0.15103   0.97377   0.95778   0.00000  Uiso   1.00
H974   H     0.14100   0.99368   0.93702   0.00000  Uiso   1.00
O975   O     0.13471   0.94493   0.96159   0.00000  Uiso   1.00
C976   C     0.34891   0.52631   0.04224   0.00000  Uiso   1.00
H977   H     0.35922   0.50624   0.06265   0.00000  Uiso   1.00
O978   O     0.36482   0.55543   0.03887   0.00000  Uiso   1.00
C979   C     0.02392   0.84953   0.95773   0.00000  Uiso   1.00
H980   H     0.00383   0.85902   0.93689   0.00000  Uiso   1.00
O981   O     0.05232   0.86660   0.96161   0.00000  Uiso   1.00
C982   C     0.47572   0.65056   0.04228   0.00000  Uiso   1.00
H983   H     0.49597   0.64076   0.06278   0.00000  Uiso   1.00
O984   O     0.44702   0.63393   0.03883   0.00000  Uiso   1.00
C985   C     0.34898   0.52613   0.95775   0.00000  Uiso   1.00
H986   H     0.35898   0.50623   0.93700   0.00000  Uiso   1.00
O987   O     0.36533   0.55496   0.96154   0.00000  Uiso   1.00
C988   C     0.15111   0.97357   0.04226   0.00000  Uiso   1.00
H989   H     0.14076   0.99363   0.06265   0.00000  Uiso   1.00
O990   O     0.13525   0.94442   0.03893   0.00000  Uiso   1.00
C991   C     0.47577   0.65053   0.95780   0.00000  Uiso   1.00
H992   H     0.49591   0.64087   0.93712   0.00000  Uiso   1.00
O993   O     0.44721   0.63370   0.96151   0.00000  Uiso   1.00
C994   C     0.02417   0.84944   0.04222   0.00000  Uiso   1.00
H995   H     0.00385   0.85936   0.06257   0.00000  Uiso   1.00
O996   O     0.05297   0.86592   0.03893   0.00000  Uiso   1.00
C997   C     0.16290   0.89448   0.17904   0.00000  Uiso   1.00
H998   H     0.19221   0.89015   0.17801   0.00000  Uiso   1.00
O999   O     0.14771   0.90942   0.15180   0.00000  Uiso   1.00
C1000  C     0.33557   0.60738   0.82115   0.00000  Uiso   1.00
H1001  H     0.30701   0.59975   0.81865   0.00000  Uiso   1.00
O1002  O     0.34918   0.60795   0.85344   0.00000  Uiso   1.00
C1003  C     0.10526   0.66247   0.17890   0.00000  Uiso   1.00
H1004  H     0.10899   0.69186   0.17772   0.00000  Uiso   1.00
O1005  O     0.09070   0.64685   0.15172   0.00000  Uiso   1.00
C1006  C     0.39474   0.83753   0.82110   0.00000  Uiso   1.00
H1007  H     0.39101   0.80814   0.82228   0.00000  Uiso   1.00
O1008  O     0.40931   0.85315   0.84828   0.00000  Uiso   1.00
C1009  C     0.33494   0.60782   0.17915   0.00000  Uiso   1.00
H1010  H     0.30644   0.60010   0.18197   0.00000  Uiso   1.00
O1011  O     0.34808   0.60884   0.14666   0.00000  Uiso   1.00
C1012  C     0.16288   0.89446   0.82096   0.00000  Uiso   1.00
H1013  H     0.19219   0.89014   0.82199   0.00000  Uiso   1.00
O1014  O     0.14768   0.90937   0.84820   0.00000  Uiso   1.00
C1015  C     0.39444   0.83710   0.17912   0.00000  Uiso   1.00
H1016  H     0.39007   0.80780   0.17806   0.00000  Uiso   1.00
O1017  O     0.40941   0.85232   0.15192   0.00000  Uiso   1.00
C1018  C     0.10800   0.66523   0.82073   0.00000  Uiso   1.00
H1019  H     0.10003   0.69366   0.81784   0.00000  Uiso   1.00
O1020  O     0.10943   0.65227   0.85328   0.00000  Uiso   1.00
C1021  C     0.16246   0.60525   0.82109   0.00000  Uiso   1.00
H1022  H     0.19185   0.60899   0.82227   0.00000  Uiso   1.00
O1023  O     0.14684   0.59068   0.84828   0.00000  Uiso   1.00
C1024  C     0.33538   0.89242   0.17897   0.00000  Uiso   1.00
H1025  H     0.30689   0.90026   0.18155   0.00000  Uiso   1.00
O1026  O     0.34881   0.89148   0.14662   0.00000  Uiso   1.00
C1027  C     0.10742   0.83553   0.82115   0.00000  Uiso   1.00
H1028  H     0.09976   0.80699   0.81864   0.00000  Uiso   1.00
O1029  O     0.10802   0.84912   0.85344   0.00000  Uiso   1.00
C1030  C     0.39480   0.66242   0.17881   0.00000  Uiso   1.00
H1031  H     0.39112   0.69182   0.17765   0.00000  Uiso   1.00
O1032  O     0.40931   0.64680   0.15160   0.00000  Uiso   1.00
C1033  C     0.33477   0.89201   0.82074   0.00000  Uiso   1.00
H1034  H     0.30634   0.89994   0.81786   0.00000  Uiso   1.00
O1035  O     0.34775   0.89061   0.85328   0.00000  Uiso   1.00
C1036  C     0.16523   0.60800   0.17926   0.00000  Uiso   1.00
H1037  H     0.19367   0.60006   0.18215   0.00000  Uiso   1.00
O1038  O     0.15227   0.60941   0.14672   0.00000  Uiso   1.00
C1039  C     0.39448   0.66286   0.82096   0.00000  Uiso   1.00
H1040  H     0.39015   0.69217   0.82200   0.00000  Uiso   1.00
O1041  O     0.40940   0.64765   0.84820   0.00000  Uiso   1.00
C1042  C     0.10741   0.83558   0.17884   0.00000  Uiso   1.00
H1043  H     0.09974   0.80704   0.18135   0.00000  Uiso   1.00
O1044  O     0.10804   0.84918   0.14656   0.00000  Uiso   1.00
C1045  C     0.41468   0.64238   0.67898   0.00000  Uiso   1.00
H1046  H     0.44316   0.65024   0.68158   0.00000  Uiso   1.00
O1047  O     0.40128   0.64139   0.64662   0.00000  Uiso   1.00
C1048  C     0.08702   0.85560   0.32086   0.00000  Uiso   1.00
H1049  H     0.05771   0.85997   0.32188   0.00000  Uiso   1.00
O1050  O     0.10219   0.84065   0.34809   0.00000  Uiso   1.00
C1051  C     0.35775   0.91502   0.67913   0.00000  Uiso   1.00
H1052  H     0.35006   0.94353   0.68193   0.00000  Uiso   1.00
O1053  O     0.35871   0.90185   0.64666   0.00000  Uiso   1.00
C1054  C     0.14224   0.58497   0.32087   0.00000  Uiso   1.00
H1055  H     0.14994   0.55647   0.31807   0.00000  Uiso   1.00
O1056  O     0.14127   0.59814   0.35334   0.00000  Uiso   1.00
C1057  C     0.08704   0.85563   0.67914   0.00000  Uiso   1.00
H1058  H     0.05773   0.85999   0.67810   0.00000  Uiso   1.00
O1059  O     0.10222   0.84068   0.65191   0.00000  Uiso   1.00
C1060  C     0.41249   0.64469   0.32109   0.00000  Uiso   1.00
H1061  H     0.44188   0.64096   0.32225   0.00000  Uiso   1.00
O1062  O     0.39687   0.65922   0.34829   0.00000  Uiso   1.00
C1063  C     0.14483   0.58766   0.67880   0.00000  Uiso   1.00
H1064  H     0.14114   0.55826   0.67761   0.00000  Uiso   1.00
O1065  O     0.15936   0.60331   0.65160   0.00000  Uiso   1.00
C1066  C     0.35548   0.91282   0.32098   0.00000  Uiso   1.00
H1067  H     0.35982   0.94213   0.32203   0.00000  Uiso   1.00
O1068  O     0.34054   0.89760   0.34820   0.00000  Uiso   1.00
C1069  C     0.41438   0.85734   0.32118   0.00000  Uiso   1.00
H1070  H     0.44293   0.84971   0.31869   0.00000  Uiso   1.00
O1071  O     0.40074   0.85788   0.35344   0.00000  Uiso   1.00
C1072  C     0.08498   0.64225   0.67913   0.00000  Uiso   1.00
H1073  H     0.05647   0.64994   0.68194   0.00000  Uiso   1.00
O1074  O     0.09815   0.64129   0.64666   0.00000  Uiso   1.00
C1075  C     0.35804   0.58468   0.32071   0.00000  Uiso   1.00
H1076  H     0.35007   0.55626   0.31781   0.00000  Uiso   1.00
O1077  O     0.35950   0.59760   0.35327   0.00000  Uiso   1.00
C1078  C     0.14236   0.91470   0.67899   0.00000  Uiso   1.00
H1079  H     0.15023   0.94318   0.68159   0.00000  Uiso   1.00
O1080  O     0.14136   0.90131   0.64662   0.00000  Uiso   1.00
C1081  C     0.08766   0.64483   0.32121   0.00000  Uiso   1.00
H1082  H     0.05826   0.64113   0.32241   0.00000  Uiso   1.00
O1083  O     0.10331   0.65936   0.34839   0.00000  Uiso   1.00
C1084  C     0.41235   0.85518   0.67879   0.00000  Uiso   1.00
H1085  H     0.44174   0.85887   0.67760   0.00000  Uiso   1.00
O1086  O     0.39670   0.84064   0.65161   0.00000  Uiso   1.00
C1087  C     0.14237   0.91464   0.32102   0.00000  Uiso   1.00
H1088  H     0.15021   0.94313   0.31842   0.00000  Uiso   1.00
O1089  O     0.14140   0.90122   0.35337   0.00000  Uiso   1.00
C1090  C     0.35560   0.58706   0.67913   0.00000  Uiso   1.00
H1091  H     0.35997   0.55775   0.67810   0.00000  Uiso   1.00
O1092  O     0.34066   0.60225   0.65191   0.00000  Uiso   1.00
C1093  C     0.96803   0.75805   0.41853   0.00000  Uiso   1.00
C1094  C     0.53198   0.74197   0.58147   0.00000  Uiso   1.00
C1095  C     0.74185   0.53194   0.41852   0.00000  Uiso   1.00
C1096  C     0.75816   0.96806   0.58148   0.00000  Uiso   1.00
C1097  C     0.53197   0.74196   0.41853   0.00000  Uiso   1.00
C1098  C     0.96804   0.75808   0.58147   0.00000  Uiso   1.00
C1099  C     0.75811   0.96804   0.41854   0.00000  Uiso   1.00
C1100  C     0.74191   0.53196   0.58146   0.00000  Uiso   1.00
C1101  C     0.78158   0.50944   0.91851   0.00000  Uiso   1.00
C1102  C     0.71841   0.99052   0.08149   0.00000  Uiso   1.00
C1103  C     0.99112   0.71823   0.91853   0.00000  Uiso   1.00
C1104  C     0.50877   0.78178   0.08147   0.00000  Uiso   1.00
C1105  C     0.71841   0.99054   0.91851   0.00000  Uiso   1.00
C1106  C     0.78159   0.50943   0.08148   0.00000  Uiso   1.00
C1107  C     0.50878   0.78177   0.91851   0.00000  Uiso   1.00
C1108  C     0.99114   0.71824   0.08150   0.00000  Uiso   1.00
C1109  C     0.50000   0.75000   0.39837   0.00000  Uiso   1.00
C1110  C     0.50000   0.75002   0.60163   0.00000  Uiso   1.00
C1111  C     0.74998   0.99999   0.39837   0.00000  Uiso   1.00
C1112  C     0.75003   0.50001   0.60163   0.00000  Uiso   1.00
C1113  C     0.75000   0.99999   0.89836   0.00000  Uiso   1.00
C1114  C     0.75000   0.99999   0.10164   0.00000  Uiso   1.00
C1115  C     0.99997   0.74999   0.89836   0.00000  Uiso   1.00
C1116  C     0.99997   0.75001   0.10164   0.00000  Uiso   1.00
C1117  C     0.56486   0.73190   0.47952   0.00000  Uiso   1.00
C1118  C     0.93514   0.76802   0.52049   0.00000  Uiso   1.00
C1119  C     0.76818   0.93518   0.47953   0.00000  Uiso   1.00
C1120  C     0.73186   0.56483   0.52047   0.00000  Uiso   1.00
C1121  C     0.93515   0.76813   0.47951   0.00000  Uiso   1.00
C1122  C     0.56488   0.73205   0.52049   0.00000  Uiso   1.00
C1123  C     0.73177   0.56482   0.47950   0.00000  Uiso   1.00
C1124  C     0.76823   0.93518   0.52050   0.00000  Uiso   1.00
C1125  C     0.68536   0.98112   0.97952   0.00000  Uiso   1.00
C1126  C     0.81462   0.51885   0.02048   0.00000  Uiso   1.00
C1127  C     0.51738   0.81504   0.97949   0.00000  Uiso   1.00
C1128  C     0.98241   0.68500   0.02051   0.00000  Uiso   1.00
C1129  C     0.81464   0.51881   0.97950   0.00000  Uiso   1.00
C1130  C     0.68538   0.98107   0.02050   0.00000  Uiso   1.00
C1131  C     0.98242   0.68499   0.97954   0.00000  Uiso   1.00
C1132  C     0.51744   0.81501   0.02046   0.00000  Uiso   1.00
C1133  C     0.75000   0.50000   0.35596   0.00000  Uiso   1.00
C1134  C     0.75000   0.50000   0.64404   0.00000  Uiso   1.00
C1135  C     0.50000   0.75000   0.35596   0.00000  Uiso   1.00
C1136  C     0.50000   0.75000   0.64404   0.00000  Uiso   1.00
C1137  C     0.50000   0.75000   0.85595   0.00000  Uiso   1.00
C1138  C     0.99999   0.75000   0.14405   0.00000  Uiso   1.00
C1139  C     0.75000   0.50000   0.85595   0.00000  Uiso   1.00
C1140  C     0.75000   0.50000   0.14405   0.00000  Uiso   1.00
C1141  C     0.68003   0.56995   0.25002   0.00000  Uiso   1.00
C1142  C     0.81997   0.93005   0.74998   0.00000  Uiso   1.00
C1143  C     0.93002   0.68004   0.24998   0.00000  Uiso   1.00
C1144  C     0.57000   0.81993   0.75003   0.00000  Uiso   1.00
C1145  C     0.81995   0.93001   0.25001   0.00000  Uiso   1.00
C1146  C     0.68002   0.56997   0.74998   0.00000  Uiso   1.00
C1147  C     0.57000   0.81993   0.24997   0.00000  Uiso   1.00
C1148  C     0.93006   0.68001   0.75001   0.00000  Uiso   1.00
C1149  C     0.68001   0.93006   0.75001   0.00000  Uiso   1.00
C1150  C     0.81995   0.56996   0.24998   0.00000  Uiso   1.00
C1151  C     0.93003   0.81998   0.74998   0.00000  Uiso   1.00
C1152  C     0.56997   0.68002   0.25002   0.00000  Uiso   1.00
C1153  C     0.81993   0.57000   0.75003   0.00000  Uiso   1.00
C1154  C     0.68001   0.93005   0.24999   0.00000  Uiso   1.00
C1155  C     0.56995   0.68003   0.74998   0.00000  Uiso   1.00
C1156  C     0.93007   0.82001   0.25003   0.00000  Uiso   1.00
C1157  C     0.64229   0.88498   0.21475   0.00000  Uiso   1.00
C1158  C     0.85731   0.61554   0.78544   0.00000  Uiso   1.00
C1159  C     0.61508   0.64221   0.21473   0.00000  Uiso   1.00
C1160  C     0.88492   0.85779   0.78527   0.00000  Uiso   1.00
C1161  C     0.85713   0.61561   0.21466   0.00000  Uiso   1.00
C1162  C     0.64228   0.88496   0.78525   0.00000  Uiso   1.00
C1163  C     0.88493   0.85770   0.21482   0.00000  Uiso   1.00
C1164  C     0.61568   0.64294   0.78526   0.00000  Uiso   1.00
C1165  C     0.64221   0.61508   0.78527   0.00000  Uiso   1.00
C1166  C     0.85723   0.88439   0.21464   0.00000  Uiso   1.00
C1167  C     0.61555   0.85729   0.78544   0.00000  Uiso   1.00
C1168  C     0.88497   0.64217   0.21465   0.00000  Uiso   1.00
C1169  C     0.85706   0.88432   0.78526   0.00000  Uiso   1.00
C1170  C     0.64294   0.61568   0.21474   0.00000  Uiso   1.00
C1171  C     0.88498   0.64226   0.78525   0.00000  Uiso   1.00
C1172  C     0.61555   0.85731   0.21456   0.00000  Uiso   1.00
C1173  C     0.89280   0.63436   0.71464   0.00000  Uiso   1.00
C1174  C     0.60766   0.86509   0.28517   0.00000  Uiso   1.00
C1175  C     0.86558   0.89285   0.71465   0.00000  Uiso   1.00
C1176  C     0.63442   0.60715   0.28534   0.00000  Uiso   1.00
C1177  C     0.60766   0.86510   0.71483   0.00000  Uiso   1.00
C1178  C     0.89222   0.63489   0.28526   0.00000  Uiso   1.00
C1179  C     0.63499   0.60787   0.71465   0.00000  Uiso   1.00
C1180  C     0.86500   0.89224   0.28526   0.00000  Uiso   1.00
C1181  C     0.89267   0.86552   0.28545   0.00000  Uiso   1.00
C1182  C     0.60715   0.63442   0.71466   0.00000  Uiso   1.00
C1183  C     0.86570   0.60702   0.28525   0.00000  Uiso   1.00
C1184  C     0.63435   0.89281   0.71464   0.00000  Uiso   1.00
C1185  C     0.60787   0.63499   0.28535   0.00000  Uiso   1.00
C1186  C     0.89213   0.86501   0.71465   0.00000  Uiso   1.00
C1187  C     0.63436   0.89278   0.28536   0.00000  Uiso   1.00
C1188  C     0.86510   0.60767   0.71483   0.00000  Uiso   1.00
C1189  C     0.53248   0.74111   0.45920   0.00000  Uiso   1.00
C1190  C     0.96752   0.75887   0.54080   0.00000  Uiso   1.00
C1191  C     0.75893   0.96753   0.45921   0.00000  Uiso   1.00
C1192  C     0.74110   0.53248   0.54079   0.00000  Uiso   1.00
C1193  C     0.96752   0.75891   0.45920   0.00000  Uiso   1.00
C1194  C     0.53250   0.74119   0.54080   0.00000  Uiso   1.00
C1195  C     0.74102   0.53246   0.45919   0.00000  Uiso   1.00
C1196  C     0.75898   0.96755   0.54081   0.00000  Uiso   1.00
C1197  C     0.71764   0.99063   0.95919   0.00000  Uiso   1.00
C1198  C     0.78235   0.50935   0.04080   0.00000  Uiso   1.00
C1199  C     0.50861   0.78255   0.95918   0.00000  Uiso   1.00
C1200  C     0.99124   0.71747   0.04082   0.00000  Uiso   1.00
C1201  C     0.78235   0.50933   0.95919   0.00000  Uiso   1.00
C1202  C     0.71765   0.99060   0.04081   0.00000  Uiso   1.00
C1203  C     0.99124   0.71747   0.95920   0.00000  Uiso   1.00
C1204  C     0.50864   0.78254   0.04079   0.00000  Uiso   1.00
C1205  C     0.59831   0.84792   0.24986   0.00000  Uiso   1.00
C1206  C     0.90211   0.65166   0.74992   0.00000  Uiso   1.00
C1207  C     0.65192   0.59810   0.25003   0.00000  Uiso   1.00
C1208  C     0.84808   0.90190   0.74997   0.00000  Uiso   1.00
C1209  C     0.90186   0.65186   0.24997   0.00000  Uiso   1.00
C1210  C     0.59832   0.84791   0.75014   0.00000  Uiso   1.00
C1211  C     0.84789   0.90167   0.24992   0.00000  Uiso   1.00
C1212  C     0.65187   0.59815   0.74997   0.00000  Uiso   1.00
C1213  C     0.59810   0.65192   0.74997   0.00000  Uiso   1.00
C1214  C     0.90209   0.84832   0.25014   0.00000  Uiso   1.00
C1215  C     0.65167   0.90211   0.74992   0.00000  Uiso   1.00
C1216  C     0.84811   0.59807   0.24997   0.00000  Uiso   1.00
C1217  C     0.90185   0.84813   0.74997   0.00000  Uiso   1.00
C1218  C     0.59815   0.65187   0.25003   0.00000  Uiso   1.00
C1219  C     0.84791   0.59832   0.75014   0.00000  Uiso   1.00
C1220  C     0.65168   0.90210   0.25008   0.00000  Uiso   1.00
C1221  C     0.50001   0.75002   0.47965   0.00000  Uiso   1.00
C1222  C     0.50001   0.75003   0.52035   0.00000  Uiso   1.00
C1223  C     0.75000   0.50000   0.47965   0.00000  Uiso   1.00
C1224  C     0.75003   0.50001   0.52035   0.00000  Uiso   1.00
C1225  C     0.75000   0.99998   0.97964   0.00000  Uiso   1.00
C1226  C     0.75000   0.99997   0.02035   0.00000  Uiso   1.00
C1227  C     0.99993   0.75001   0.97965   0.00000  Uiso   1.00
C1228  C     0.99993   0.75001   0.02035   0.00000  Uiso   1.00
H1229  H     0.94358   0.76381   0.40202   0.00000  Uiso   1.00
H1230  H     0.55641   0.73609   0.59797   0.00000  Uiso   1.00
H1231  H     0.73600   0.55637   0.40200   0.00000  Uiso   1.00
H1232  H     0.76402   0.94363   0.59800   0.00000  Uiso   1.00
H1233  H     0.55642   0.73621   0.40201   0.00000  Uiso   1.00
H1234  H     0.94361   0.76396   0.59797   0.00000  Uiso   1.00
H1235  H     0.76400   0.94362   0.40204   0.00000  Uiso   1.00
H1236  H     0.73601   0.55639   0.59796   0.00000  Uiso   1.00
H1237  H     0.80540   0.51738   0.90195   0.00000  Uiso   1.00
H1238  H     0.69458   0.98263   0.09804   0.00000  Uiso   1.00
H1239  H     0.98369   0.69425   0.90199   0.00000  Uiso   1.00
H1240  H     0.51618   0.80578   0.09799   0.00000  Uiso   1.00
H1241  H     0.69459   0.98261   0.90196   0.00000  Uiso   1.00
H1242  H     0.80542   0.51733   0.09802   0.00000  Uiso   1.00
H1243  H     0.51624   0.80574   0.90196   0.00000  Uiso   1.00
H1244  H     0.98373   0.69425   0.09804   0.00000  Uiso   1.00
O1245  O     0.75000   0.50000   0.25000   0.00000  Uiso   1.00
O1246  O     0.75000   0.50000   0.75000   0.00000  Uiso   1.00
O1247  O     0.50000   0.75000   0.25000   0.00000  Uiso   1.00
O1248  O     0.50000   0.75000   0.75000   0.00000  Uiso   1.00
O1249  O     0.75000   0.96963   0.33755   0.00000  Uiso   1.00
O1250  O     0.75000   0.53036   0.66245   0.00000  Uiso   1.00
O1251  O     0.53037   0.75000   0.33755   0.00000  Uiso   1.00
O1252  O     0.96964   0.75000   0.66245   0.00000  Uiso   1.00
O1253  O     0.75000   0.53036   0.33755   0.00000  Uiso   1.00
O1254  O     0.75000   0.96963   0.66245   0.00000  Uiso   1.00
O1255  O     0.96964   0.75000   0.33755   0.00000  Uiso   1.00
O1256  O     0.53037   0.75000   0.66245   0.00000  Uiso   1.00
O1257  O     0.50000   0.71964   0.83755   0.00000  Uiso   1.00
O1258  O     0.50000   0.78036   0.16245   0.00000  Uiso   1.00
O1259  O     0.78037   0.50000   0.83755   0.00000  Uiso   1.00
O1260  O     0.71964   0.50000   0.16245   0.00000  Uiso   1.00
O1261  O     0.50000   0.78037   0.83755   0.00000  Uiso   1.00
O1262  O     0.50000   0.71964   0.16245   0.00000  Uiso   1.00
O1263  O     0.71964   0.50000   0.83755   0.00000  Uiso   1.00
O1264  O     0.78037   0.50000   0.16245   0.00000  Uiso   1.00
O1265  O     0.70725   0.57307   0.27302   0.00000  Uiso   1.00
O1266  O     0.79276   0.92692   0.72698   0.00000  Uiso   1.00
O1267  O     0.92693   0.70724   0.27302   0.00000  Uiso   1.00
O1268  O     0.57308   0.79275   0.72698   0.00000  Uiso   1.00
O1269  O     0.79276   0.92692   0.27302   0.00000  Uiso   1.00
O1270  O     0.70725   0.57307   0.72698   0.00000  Uiso   1.00
O1271  O     0.57308   0.79275   0.27302   0.00000  Uiso   1.00
O1272  O     0.92693   0.70724   0.72698   0.00000  Uiso   1.00
O1273  O     0.70725   0.92692   0.72698   0.00000  Uiso   1.00
O1274  O     0.79276   0.57307   0.27302   0.00000  Uiso   1.00
O1275  O     0.92693   0.79275   0.72698   0.00000  Uiso   1.00
O1276  O     0.57308   0.70724   0.27302   0.00000  Uiso   1.00
O1277  O     0.79276   0.57307   0.72698   0.00000  Uiso   1.00
O1278  O     0.70725   0.92692   0.27302   0.00000  Uiso   1.00
O1279  O     0.57308   0.70724   0.72698   0.00000  Uiso   1.00
O1280  O     0.92693   0.79275   0.27302   0.00000  Uiso   1.00
O1281  O     0.95725   0.82307   0.77302   0.00000  Uiso   1.00
O1282  O     0.54276   0.67692   0.22698   0.00000  Uiso   1.00
O1283  O     0.67693   0.95724   0.77302   0.00000  Uiso   1.00
O1284  O     0.82308   0.54275   0.22698   0.00000  Uiso   1.00
O1285  O     0.54276   0.67692   0.77302   0.00000  Uiso   1.00
O1286  O     0.95725   0.82307   0.22698   0.00000  Uiso   1.00
O1287  O     0.82308   0.54275   0.77302   0.00000  Uiso   1.00
O1288  O     0.67693   0.95724   0.22698   0.00000  Uiso   1.00
O1289  O     0.95725   0.67692   0.22698   0.00000  Uiso   1.00
O1290  O     0.54276   0.82308   0.77302   0.00000  Uiso   1.00
O1291  O     0.67693   0.54275   0.22698   0.00000  Uiso   1.00
O1292  O     0.82308   0.95724   0.77302   0.00000  Uiso   1.00
O1293  O     0.54276   0.82308   0.22698   0.00000  Uiso   1.00
O1294  O     0.95725   0.67692   0.77302   0.00000  Uiso   1.00
O1295  O     0.82308   0.95724   0.22698   0.00000  Uiso   1.00
O1296  O     0.67693   0.54275   0.77302   0.00000  Uiso   1.00
Zn1297 Zn    0.70660   0.50000   0.21735   0.00000  Uiso   1.00
Zn1298 Zn    0.79341   0.50000   0.78265   0.00000  Uiso   1.00
Zn1299 Zn    0.50000   0.70660   0.21735   0.00000  Uiso   1.00
Zn1300 Zn    0.50000   0.79341   0.78265   0.00000  Uiso   1.00
Zn1301 Zn    0.79341   0.50000   0.21735   0.00000  Uiso   1.00
Zn1302 Zn    0.70660   0.50000   0.78265   0.00000  Uiso   1.00
Zn1303 Zn    0.50000   0.79341   0.21735   0.00000  Uiso   1.00
Zn1304 Zn    0.50000   0.70660   0.78265   0.00000  Uiso   1.00
Zn1305 Zn    0.95660   0.75000   0.71735   0.00000  Uiso   1.00
Zn1306 Zn    0.54341   0.75000   0.28265   0.00000  Uiso   1.00
Zn1307 Zn    0.75000   0.95659   0.71735   0.00000  Uiso   1.00
Zn1308 Zn    0.75000   0.54340   0.28265   0.00000  Uiso   1.00
Zn1309 Zn    0.54341   0.75000   0.71735   0.00000  Uiso   1.00
Zn1310 Zn    0.95660   0.75000   0.28265   0.00000  Uiso   1.00
Zn1311 Zn    0.75000   0.54340   0.71735   0.00000  Uiso   1.00
Zn1312 Zn    0.75000   0.95659   0.28265   0.00000  Uiso   1.00
C1313  C     0.59770   0.71945   0.45775   0.00000  Uiso   1.00
H1314  H     0.59521   0.69771   0.43654   0.00000  Uiso   1.00
O1315  O     0.62724   0.73433   0.46211   0.00000  Uiso   1.00
C1316  C     0.90221   0.78007   0.54228   0.00000  Uiso   1.00
H1317  H     0.90424   0.80266   0.56255   0.00000  Uiso   1.00
O1318  O     0.87325   0.76383   0.53916   0.00000  Uiso   1.00
C1319  C     0.78042   0.90230   0.45775   0.00000  Uiso   1.00
H1320  H     0.80274   0.90453   0.43717   0.00000  Uiso   1.00
O1321  O     0.76465   0.87312   0.46128   0.00000  Uiso   1.00
C1322  C     0.71968   0.59772   0.54226   0.00000  Uiso   1.00
H1323  H     0.69724   0.59557   0.56270   0.00000  Uiso   1.00
O1324  O     0.73564   0.62681   0.53890   0.00000  Uiso   1.00
C1325  C     0.90230   0.78054   0.45774   0.00000  Uiso   1.00
H1326  H     0.90476   0.80236   0.43660   0.00000  Uiso   1.00
O1327  O     0.87281   0.76553   0.46200   0.00000  Uiso   1.00
C1328  C     0.59782   0.72006   0.54229   0.00000  Uiso   1.00
H1329  H     0.59586   0.69738   0.56247   0.00000  Uiso   1.00
O1330  O     0.62671   0.73644   0.53928   0.00000  Uiso   1.00
C1331  C     0.71933   0.59765   0.45771   0.00000  Uiso   1.00
H1332  H     0.69734   0.59522   0.43678   0.00000  Uiso   1.00
O1333  O     0.73452   0.62707   0.46172   0.00000  Uiso   1.00
C1334  C     0.78059   0.90234   0.54229   0.00000  Uiso   1.00
H1335  H     0.80269   0.90470   0.56312   0.00000  Uiso   1.00
O1336  O     0.76520   0.87299   0.53845   0.00000  Uiso   1.00
C1337  C     0.65103   0.97377   0.95778   0.00000  Uiso   1.00
H1338  H     0.64100   0.99368   0.93702   0.00000  Uiso   1.00
O1339  O     0.63471   0.94493   0.96159   0.00000  Uiso   1.00
C1340  C     0.84891   0.52631   0.04224   0.00000  Uiso   1.00
H1341  H     0.85922   0.50624   0.06265   0.00000  Uiso   1.00
O1342  O     0.86482   0.55543   0.03887   0.00000  Uiso   1.00
C1343  C     0.52392   0.84953   0.95773   0.00000  Uiso   1.00
H1344  H     0.50383   0.85902   0.93689   0.00000  Uiso   1.00
O1345  O     0.55232   0.86660   0.96161   0.00000  Uiso   1.00
C1346  C     0.97572   0.65056   0.04228   0.00000  Uiso   1.00
H1347  H     0.99597   0.64076   0.06278   0.00000  Uiso   1.00
O1348  O     0.94702   0.63393   0.03883   0.00000  Uiso   1.00
C1349  C     0.84898   0.52613   0.95775   0.00000  Uiso   1.00
H1350  H     0.85898   0.50623   0.93700   0.00000  Uiso   1.00
O1351  O     0.86533   0.55496   0.96154   0.00000  Uiso   1.00
C1352  C     0.65111   0.97357   0.04226   0.00000  Uiso   1.00
H1353  H     0.64076   0.99363   0.06265   0.00000  Uiso   1.00
O1354  O     0.63525   0.94442   0.03893   0.00000  Uiso   1.00
C1355  C     0.97577   0.65053   0.95780   0.00000  Uiso   1.00
H1356  H     0.99591   0.64087   0.93712   0.00000  Uiso   1.00
O1357  O     0.94721   0.63370   0.96151   0.00000  Uiso   1.00
C1358  C     0.52417   0.84944   0.04222   0.00000  Uiso   1.00
H1359  H     0.50385   0.85936   0.06257   0.00000  Uiso   1.00
O1360  O     0.55297   0.86592   0.03893   0.00000  Uiso   1.00
C1361  C     0.66290   0.89448   0.17904   0.00000  Uiso   1.00
H1362  H     0.69221   0.89015   0.17801   0.00000  Uiso   1.00
O1363  O     0.64771   0.90942   0.15180   0.00000  Uiso   1.00
C1364  C     0.83557   0.60738   0.82115   0.00000  Uiso   1.00
H1365  H     0.80701   0.59975   0.81865   0.00000  Uiso   1.00
O1366  O     0.84918   0.60795   0.85344   0.00000  Uiso   1.00
C1367  C     0.60526   0.66247   0.17890   0.00000  Uiso   1.00
H1368  H     0.60899   0.69186   0.17772   0.00000  Uiso   1.00
O1369  O     0.59070   0.64685   0.15172   0.00000  Uiso   1.00
C1370  C     0.89474   0.83753   0.82110   0.00000  Uiso   1.00
H1371  H     0.89101   0.80814   0.82228   0.00000  Uiso   1.00
O1372  O     0.90931   0.85315   0.84828   0.00000  Uiso   1.00
C1373  C     0.83494   0.60782   0.17915   0.00000  Uiso   1.00
H1374  H     0.80644   0.60010   0.18197   0.00000  Uiso   1.00
O1375  O     0.84808   0.60884   0.14666   0.00000  Uiso   1.00
C1376  C     0.66288   0.89446   0.82096   0.00000  Uiso   1.00
H1377  H     0.69219   0.89014   0.82199   0.00000  Uiso   1.00
O1378  O     0.64768   0.90937   0.84820   0.00000  Uiso   1.00
C1379  C     0.89444   0.83710   0.17912   0.00000  Uiso   1.00
H1380  H     0.89007   0.80780   0.17806   0.00000  Uiso   1.00
O1381  O     0.90941   0.85232   0.15192   0.00000  Uiso   1.00
C1382  C     0.60800   0.66523   0.82073   0.00000  Uiso   1.00
H1383  H     0.60003   0.69366   0.81784   0.00000  Uiso   1.00
O1384  O     0.60943   0.65227   0.85328   0.00000  Uiso   1.00
C1385  C     0.66246   0.60525   0.82109   0.00000  Uiso   1.00
H1386  H     0.69185   0.60899   0.82227   0.00000  Uiso   1.00
O1387  O     0.64684   0.59068   0.84828   0.00000  Uiso   1.00
C1388  C     0.83538   0.89242   0.17897   0.00000  Uiso   1.00
H1389  H     0.80689   0.90026   0.18155   0.00000  Uiso   1.00
O1390  O     0.84881   0.89148   0.14662   0.00000  Uiso   1.00
C1391  C     0.60742   0.83553   0.82115   0.00000  Uiso   1.00
H1392  H     0.59976   0.80699   0.81864   0.00000  Uiso   1.00
O1393  O     0.60802   0.84912   0.85344   0.00000  Uiso   1.00
C1394  C     0.89480   0.66242   0.17881   0.00000  Uiso   1.00
H1395  H     0.89112   0.69182   0.17765   0.00000  Uiso   1.00
O1396  O     0.90931   0.64680   0.15160   0.00000  Uiso   1.00
C1397  C     0.83477   0.89201   0.82074   0.00000  Uiso   1.00
H1398  H     0.80634   0.89994   0.81786   0.00000  Uiso   1.00
O1399  O     0.84775   0.89061   0.85328   0.00000  Uiso   1.00
C1400  C     0.66523   0.60800   0.17926   0.00000  Uiso   1.00
H1401  H     0.69367   0.60006   0.18215   0.00000  Uiso   1.00
O1402  O     0.65227   0.60941   0.14672   0.00000  Uiso   1.00
C1403  C     0.89448   0.66286   0.82096   0.00000  Uiso   1.00
H1404  H     0.89015   0.69217   0.82200   0.00000  Uiso   1.00
O1405  O     0.90940   0.64765   0.84820   0.00000  Uiso   1.00
C1406  C     0.60741   0.83558   0.17884   0.00000  Uiso   1.00
H1407  H     0.59974   0.80704   0.18135   0.00000  Uiso   1.00
O1408  O     0.60804   0.84918   0.14656   0.00000  Uiso   1.00
C1409  C     0.91468   0.64238   0.67898   0.00000  Uiso   1.00
H1410  H     0.94316   0.65024   0.68158   0.00000  Uiso   1.00
O1411  O     0.90128   0.64139   0.64662   0.00000  Uiso   1.00
C1412  C     0.58702   0.85560   0.32086   0.00000  Uiso   1.00
H1413  H     0.55771   0.85997   0.32188   0.00000  Uiso   1.00
O1414  O     0.60219   0.84065   0.34809   0.00000  Uiso   1.00
C1415  C     0.85775   0.91502   0.67913   0.00000  Uiso   1.00
H1416  H     0.85006   0.94353   0.68193   0.00000  Uiso   1.00
O1417  O     0.85871   0.90185   0.64666   0.00000  Uiso   1.00
C1418  C     0.64224   0.58497   0.32087   0.00000  Uiso   1.00
H1419  H     0.64994   0.55647   0.31807   0.00000  Uiso   1.00
O1420  O     0.64127   0.59814   0.35334   0.00000  Uiso   1.00
C1421  C     0.58704   0.85563   0.67914   0.00000  Uiso   1.00
H1422  H     0.55773   0.85999   0.67810   0.00000  Uiso   1.00
O1423  O     0.60222   0.84068   0.65191   0.00000  Uiso   1.00
C1424  C     0.91249   0.64469   0.32109   0.00000  Uiso   1.00
H1425  H     0.94188   0.64096   0.32225   0.00000  Uiso   1.00
O1426  O     0.89687   0.65922   0.34829   0.00000  Uiso   1.00
C1427  C     0.64483   0.58766   0.67880   0.00000  Uiso   1.00
H1428  H     0.64114   0.55826   0.67761   0.00000  Uiso   1.00
O1429  O     0.65936   0.60331   0.65160   0.00000  Uiso   1.00
C1430  C     0.85548   0.91282   0.32098   0.00000  Uiso   1.00
H1431  H     0.85982   0.94213   0.32203   0.00000  Uiso   1.00
O1432  O     0.84054   0.89760   0.34820   0.00000  Uiso   1.00
C1433  C     0.91438   0.85734   0.32118   0.00000  Uiso   1.00
H1434  H     0.94293   0.84971   0.31869   0.00000  Uiso   1.00
O1435  O     0.90074   0.85788   0.35344   0.00000  Uiso   1.00
C1436  C     0.58498   0.64225   0.67913   0.00000  Uiso   1.00
H1437  H     0.55647   0.64994   0.68194   0.00000  Uiso   1.00
O1438  O     0.59815   0.64129   0.64666   0.00000  Uiso   1.00
C1439  C     0.85804   0.58468   0.32071   0.00000  Uiso   1.00
H1440  H     0.85007   0.55626   0.31781   0.00000  Uiso   1.00
O1441  O     0.85950   0.59760   0.35327   0.00000  Uiso   1.00
C1442  C     0.64236   0.91470   0.67899   0.00000  Uiso   1.00
H1443  H     0.65023   0.94318   0.68159   0.00000  Uiso   1.00
O1444  O     0.64136   0.90131   0.64662   0.00000  Uiso   1.00
C1445  C     0.58766   0.64483   0.32121   0.00000  Uiso   1.00
H1446  H     0.55826   0.64113   0.32241   0.00000  Uiso   1.00
O1447  O     0.60331   0.65936   0.34839   0.00000  Uiso   1.00
C1448  C     0.91235   0.85518   0.67879   0.00000  Uiso   1.00
H1449  H     0.94174   0.85887   0.67760   0.00000  Uiso   1.00
O1450  O     0.89670   0.84064   0.65161   0.00000  Uiso   1.00
C1451  C     0.64237   0.91464   0.32102   0.00000  Uiso   1.00
H1452  H     0.65021   0.94313   0.31842   0.00000  Uiso   1.00
O1453  O     0.64140   0.90122   0.35337   0.00000  Uiso   1.00
C1454  C     0.85560   0.58706   0.67913   0.00000  Uiso   1.00
H1455  H     0.85997   0.55775   0.67810   0.00000  Uiso   1.00
O1456  O     0.84066   0.60225   0.65191   0.00000  Uiso   1.00
loop_
_geom_bond_atom_site_label_1
_geom_bond_atom_site_label_2
_geom_bond_distance
_geom_bond_site_symmetry_2
_ccdc_geom_bond_type
C1     C101    1.403   .     A
C1     H137    1.082   .     S
C1     C381    1.393   .     A
C2     H138    1.082   .     S
C2     C102    1.403   .     A
C2     C18     1.393   .     A
C3     C103    1.403   .     A
C3     H139    1.082   .     S
C3     C747    1.393   1_545 S
C4     C104    1.403   .     A
C4     H140    1.082   .     S
C4     C748    1.393   .     S
C5     C97     1.403   .     A
C5     H141    1.081   .     S
C5     C17     1.393   .     S
C6     H142    1.082   .     S
C6     C98     1.403   .     A
C6     C382    1.393   .     S
C7     C99     1.403   .     A
C7     C19     1.393   .     A
C7     H143    1.082   .     S
C8     C100    1.403   .     A
C8     C20     1.393   .     A
C8     H144    1.082   .     S
C9     H145    1.082   .     S
C9     C109    1.403   .     A
C9     C749    1.393   1_545 S
C10    H146    1.082   .     S
C10    C22     1.393   .     A
C10    C110    1.403   .     A
C11    C23     1.393   .     A
C11    C111    1.403   .     A
C11    H147    1.082   .     S
C12    C112    1.403   .     A
C12    H148    1.082   .     S
C12    C388    1.393   1_455 S
C13    C21     1.393   .     A
C13    C105    1.403   .     A
C13    H149    1.082   .     S
C14    C106    1.403   .     A
C14    H150    1.082   .     S
C14    C750    1.393   1_545 S
C15    H151    1.082   .     S
C15    C107    1.403   .     A
C15    C387    1.393   1_455 S
C16    H152    1.082   .     S
C16    C24     1.393   .     A
C16    C108    1.403   .     A
C17    C43     1.462   .     S
C17    C365    1.393   1_455 A
C18    C44     1.462   .     S
C18    C370    1.393   1_455 S
C19    C769    1.462   .     S
C19    C731    1.393   .     S
C20    C42     1.462   .     S
C20    C732    1.393   1_545 S
C21    C775    1.462   .     S
C21    C737    1.393   .     S
C22    C776    1.462   .     S
C22    C742    1.393   .     S
C23    C409    1.462   .     S
C23    C379    1.393   .     S
C24    C46     1.462   .     S
C24    C376    1.393   .     S
C25    C97     1.417   .     A
C25    C30     1.413   .     A
C25    C221    1.489   .     S
C26    C98     1.417   .     A
C26    C224    1.487   .     S
C26    C29     1.413   .     A
C27    C99     1.417   .     A
C27    C227    1.488   .     S
C27    C32     1.413   .     A
C28    C230    1.488   .     S
C28    C31     1.413   .     A
C28    C100    1.417   .     A
C29    C233    1.488   .     S
C29    C101    1.417   .     A
C30    C102    1.417   .     A
C30    C236    1.487   .     S
C31    C239    1.488   .     S
C31    C103    1.417   .     A
C32    C104    1.417   .     A
C32    C242    1.488   .     S
C33    C245    1.488   .     S
C33    C105    1.417   .     A
C33    C38     1.413   1_556 S
C34    C106    1.417   .     A
C34    C248    1.488   .     S
C34    C37     1.413   1_554 S
C35    C107    1.417   .     A
C35    C251    1.488   .     S
C35    C40     1.413   1_556 S
C36    C108    1.417   .     A
C36    C254    1.488   .     S
C36    C39     1.413   1_554 S
C37    C257    1.488   .     S
C37    C109    1.417   .     A
C37    C34     1.413   1_556 S
C38    C260    1.487   .     S
C38    C110    1.417   .     A
C38    C33     1.413   1_554 S
C39    C111    1.417   .     A
C39    C263    1.488   .     S
C39    C36     1.413   1_556 S
C40    C112    1.417   .     A
C40    C266    1.487   .     S
C40    C35     1.413   1_554 S
C41    O885    1.280   1_545 A
C41    C747    1.462   1_545 S
C41    O161    1.280   .     S
C42    O158    1.280   .     A
C42    O890    1.280   1_545 S
C43    O527    1.280   1_455 A
C43    O159    1.280   .     S
C44    O164    1.280   .     A
C44    O524    1.280   1_455 S
C45    C387    1.462   1_455 S
C45    O165    1.280   .     S
C45    O169    1.280   .     S
C46    O530    1.280   .     A
C46    O534    1.280   .     S
C47    O171    1.280   .     A
C47    C749    1.462   1_545 S
C47    O167    1.280   .     A
C48    C750    1.462   1_545 S
C48    O168    1.280   .     S
C48    O172    1.280   .     S
C49    O173    1.278   .     A
C49    C115    1.456   .     S
C49    O199    1.279   .     A
C50    C116    1.456   .     S
C50    O200    1.279   .     A
C50    O174    1.278   .     A
C51    O197    1.279   .     A
C51    C117    1.458   .     S
C51    O175    1.279   .     A
C52    O198    1.279   .     A
C52    O176    1.278   .     A
C52    C118    1.457   .     S
C53    O177    1.278   .     A
C53    O203    1.279   .     A
C53    C119    1.457   .     S
C54    O178    1.279   .     A
C54    O204    1.279   .     A
C54    C120    1.458   .     S
C55    O201    1.279   .     A
C55    O179    1.278   .     A
C55    C113    1.457   .     S
C56    O180    1.280   .     A
C56    O202    1.278   .     A
C56    C114    1.457   .     S
C57    C123    1.457   .     S
C57    O191    1.278   .     A
C57    O181    1.280   .     A
C58    O192    1.278   .     A
C58    O182    1.279   .     A
C58    C124    1.456   .     S
C59    O189    1.279   .     A
C59    O183    1.279   .     A
C59    C125    1.458   .     S
C60    O184    1.279   .     A
C60    O190    1.279   .     A
C60    C126    1.458   .     S
C61    C127    1.457   .     S
C61    O195    1.279   .     A
C61    O185    1.278   .     A
C62    O196    1.278   .     A
C62    O186    1.280   .     A
C62    C128    1.457   .     S
C63    O187    1.278   .     A
C63    O193    1.279   .     A
C63    C121    1.456   .     S
C64    O194    1.278   .     A
C64    O188    1.279   .     A
C64    C122    1.457   .     S
C65    C128    1.413   .     A
C65    C269    1.485   .     S
C65    C80     1.408   .     A
C66    C79     1.408   .     A
C66    C127    1.413   .     A
C66    C272    1.496   .     S
C67    C126    1.411   .     A
C67    C275    1.485   .     S
C67    C78     1.408   .     A
C68    C278    1.485   .     S
C68    C77     1.408   .     A
C68    C125    1.411   .     A
C69    C76     1.408   .     A
C69    C124    1.415   .     A
C69    C281    1.497   .     S
C70    C284    1.485   .     S
C70    C75     1.408   .     A
C70    C123    1.413   .     A
C71    C122    1.412   .     A
C71    C74     1.408   .     A
C71    C287    1.485   .     S
C72    C73     1.408   .     A
C72    C290    1.497   .     S
C72    C121    1.415   .     A
C73    C120    1.411   .     A
C73    C293    1.485   .     S
C74    C296    1.496   .     S
C74    C119    1.413   .     A
C75    C299    1.496   .     S
C75    C118    1.413   .     A
C76    C302    1.485   .     S
C76    C117    1.411   .     A
C77    C305    1.497   .     S
C77    C116    1.415   .     A
C78    C115    1.415   .     A
C78    C308    1.497   .     S
C79    C311    1.485   .     S
C79    C114    1.413   .     A
C80    C314    1.496   .     S
C80    C113    1.414   .     A
C81    C114    1.413   .     A
C81    C96     1.408   .     A
C81    C317    1.496   .     S
C82    C320    1.485   .     S
C82    C95     1.408   .     A
C82    C113    1.412   .     A
C83    C94     1.408   .     A
C83    C323    1.497   .     S
C83    C116    1.415   .     A
C84    C326    1.497   .     S
C84    C93     1.408   .     A
C84    C115    1.415   .     A
C85    C92     1.408   .     A
C85    C329    1.485   .     S
C85    C118    1.412   .     A
C86    C332    1.485   .     S
C86    C117    1.411   .     A
C86    C91     1.408   .     A
C87    C335    1.485   .     S
C87    C90     1.408   .     A
C87    C120    1.411   .     A
C88    C119    1.413   .     A
C88    C89     1.408   .     A
C88    C338    1.485   .     S
C89    C122    1.414   .     A
C89    C341    1.496   .     S
C90    C121    1.415   .     A
C90    C344    1.497   .     S
C91    C347    1.497   .     S
C91    C124    1.415   .     A
C92    C123    1.413   .     A
C92    C350    1.496   .     S
C93    C126    1.411   .     A
C93    C353    1.485   .     S
C94    C125    1.411   .     A
C94    C356    1.485   .     S
C95    C128    1.413   .     A
C95    C359    1.496   .     S
C96    C127    1.412   .     A
C96    C362    1.485   .     S
C97    C129    1.420   .     A
C98    C494    1.420   .     S
C99    C859    1.420   .     S
C100   C132    1.420   .     A
C101   C493    1.420   .     S
C102   C130    1.420   .     A
C103   C131    1.420   .     A
C104   C860    1.420   .     S
C105   C133    1.420   .     A
C106   C862    1.420   1_545 S
C107   C499    1.420   1_455 S
C108   C136    1.420   .     A
C109   C861    1.420   1_545 S
C110   C134    1.420   .     A
C111   C135    1.420   .     A
C112   C500    1.420   1_455 S
C129   C130    1.403   .     A
C129   C465    1.420   1_455 S
C130   C462    1.420   1_455 S
C131   C132    1.403   .     A
C131   C827    1.420   1_545 S
C132   C832    1.420   1_545 S
C133   C837    1.420   .     S
C133   C134    1.404   1_556 S
C134   C834    1.420   .     S
C134   C133    1.404   1_554 S
C135   C471    1.420   .     S
C135   C136    1.404   1_556 S
C136   C476    1.420   .     S
C136   C135    1.404   1_554 S
O153   Zn205   1.947   .     S
O153   Zn209   1.947   .     S
O153   Zn216   1.948   .     S
O153   Zn948   1.947   1_545 S
O154   Zn210   1.947   .     S
O154   Zn219   1.947   .     S
O154   Zn206   1.947   .     S
O154   Zn943   1.948   1_545 S
O155   Zn207   1.948   .     S
O155   Zn211   1.947   .     S
O155   Zn214   1.947   .     S
O155   Zn582   1.947   1_455 S
O156   Zn208   1.948   .     S
O156   Zn212   1.947   .     S
O156   Zn217   1.947   .     S
O156   Zn577   1.947   1_455 S
O157   Zn220   1.952   .     S
O157   C769    1.280   .     A
O158   Zn219   1.952   .     S
O159   Zn214   1.952   .     S
O160   Zn213   1.952   .     S
O160   C408    1.280   .     S
O161   Zn216   1.952   .     S
O162   Zn215   1.952   .     S
O162   C770    1.280   .     S
O163   C407    1.280   .     A
O163   Zn218   1.952   .     S
O164   Zn217   1.952   .     S
O165   Zn212   1.952   .     S
O166   C410    1.280   1_455 A
O166   Zn211   1.952   .     S
O167   Zn206   1.952   .     S
O168   Zn205   1.952   .     S
O169   Zn208   1.952   .     S
O170   Zn207   1.952   .     S
O170   C410    1.280   1_455 S
O171   Zn210   1.952   .     S
O172   Zn209   1.952   .     S
O173   Zn216   1.934   .     S
O174   Zn215   1.934   .     S
O175   Zn218   1.934   .     S
O176   Zn217   1.934   .     S
O177   Zn220   1.934   .     S
O178   Zn219   1.934   .     S
O179   Zn214   1.934   .     S
O180   Zn213   1.934   .     S
O181   Zn215   1.934   .     S
O182   Zn216   1.934   .     S
O183   Zn213   1.934   .     S
O184   Zn214   1.934   .     S
O185   Zn219   1.934   .     S
O186   Zn220   1.934   .     S
O187   Zn217   1.934   .     S
O188   Zn218   1.934   .     S
O189   Zn572   1.934   .     S
O190   Zn207   1.934   .     S
O191   Zn938   1.934   .     S
O192   Zn209   1.934   .     S
O193   Zn212   1.934   .     S
O194   Zn575   1.934   .     S
O195   Zn206   1.934   .     S
O196   Zn933   1.934   .     S
O197   Zn571   1.934   .     S
O198   Zn208   1.934   .     S
O199   Zn205   1.934   .     S
O200   Zn934   1.934   .     S
O201   Zn211   1.934   .     S
O202   Zn576   1.934   .     S
O203   Zn937   1.934   .     S
O204   Zn210   1.934   .     S
Zn205  O924    1.934   1_545 S
Zn206  O928    1.934   1_545 S
Zn207  O561    1.934   1_455 S
Zn208  O553    1.934   1_455 S
Zn209  O931    1.934   1_545 S
Zn210  O919    1.934   1_545 S
Zn211  O558    1.934   1_455 S
Zn212  O566    1.934   1_455 S
Zn213  O520    1.947   .     S
Zn215  O882    1.948   .     S
Zn218  O519    1.947   .     S
Zn220  O881    1.947   .     S
C221   O223    1.220   .     D
C221   H222    1.085   .     S
C224   H225    1.085   .     S
C224   O226    1.220   .     D
C227   H228    1.085   .     S
C227   O229    1.220   .     D
C230   O232    1.220   .     D
C230   H231    1.085   .     S
C233   H234    1.085   .     S
C233   O235    1.220   .     D
C236   H237    1.085   .     S
C236   O238    1.220   .     D
C239   O241    1.220   .     D
C239   H240    1.085   .     S
C242   O244    1.220   .     D
C242   H243    1.085   .     S
C245   H246    1.085   .     S
C245   O247    1.220   .     D
C248   O250    1.220   .     D
C248   H249    1.085   .     S
C251   H252    1.085   .     S
C251   O253    1.220   .     D
C254   O256    1.220   .     D
C254   H255    1.085   .     S
C257   H258    1.085   .     S
C257   O259    1.220   .     D
C260   H261    1.085   .     S
C260   O262    1.220   .     D
C263   O265    1.220   .     D
C263   H264    1.085   .     S
C266   O268    1.220   .     D
C266   H267    1.085   .     S
C269   O271    1.221   .     D
C269   H270    1.085   .     S
C272   H273    1.085   .     S
C272   O274    1.220   .     D
C275   H276    1.085   .     S
C275   O277    1.221   .     D
C278   O280    1.221   .     D
C278   H279    1.085   .     S
C281   O283    1.220   .     D
C281   H282    1.085   .     S
C284   H285    1.085   .     S
C284   O286    1.221   .     D
C287   O289    1.221   .     D
C287   H288    1.085   .     S
C290   H291    1.085   .     S
C290   O292    1.220   .     D
C293   H294    1.085   .     S
C293   O295    1.221   .     D
C296   H297    1.085   .     S
C296   O298    1.220   .     D
C299   O301    1.220   .     D
C299   H300    1.085   .     S
C302   O304    1.221   .     D
C302   H303    1.085   .     S
C305   O307    1.220   .     D
C305   H306    1.085   .     S
C308   O310    1.220   .     D
C308   H309    1.085   .     S
C311   O313    1.221   .     D
C311   H312    1.085   .     S
C314   H315    1.085   .     S
C314   O316    1.220   .     D
C317   O319    1.220   .     D
C317   H318    1.085   .     S
C320   O322    1.221   .     D
C320   H321    1.085   .     S
C323   H324    1.085   .     S
C323   O325    1.220   .     D
C326   H327    1.085   .     S
C326   O328    1.220   .     D
C329   O331    1.221   .     D
C329   H330    1.085   .     S
C332   H333    1.085   .     S
C332   O334    1.221   .     D
C335   O337    1.221   .     D
C335   H336    1.085   .     S
C338   O340    1.221   .     D
C338   H339    1.085   .     S
C341   O343    1.220   .     D
C341   H342    1.085   .     S
C344   H345    1.085   .     S
C344   O346    1.220   .     D
C347   H348    1.085   .     S
C347   O349    1.220   .     D
C350   H351    1.085   .     S
C350   O352    1.220   .     D
C353   O355    1.221   .     D
C353   H354    1.085   .     S
C356   O358    1.221   .     D
C356   H357    1.085   .     S
C359   H360    1.085   .     S
C359   O361    1.219   .     D
C362   O364    1.221   .     D
C362   H363    1.085   .     S
C365   C465    1.403   .     A
C365   H501    1.082   .     S
C365   C17     1.393   1_655 A
C366   H502    1.082   .     S
C366   C466    1.403   .     A
C366   C382    1.393   .     A
C367   C467    1.403   .     A
C367   H503    1.082   .     S
C367   C1111   1.393   1_545 S
C368   C468    1.403   .     A
C368   H504    1.082   .     S
C368   C1112   1.393   .     S
C369   C461    1.403   .     A
C369   H505    1.081   .     S
C369   C381    1.393   .     S
C370   H506    1.082   .     S
C370   C462    1.403   .     A
C370   C18     1.393   1_655 S
C371   C463    1.403   .     A
C371   C383    1.393   .     A
C371   H507    1.082   .     S
C372   C464    1.403   .     A
C372   C384    1.393   .     A
C372   H508    1.082   .     S
C373   H509    1.082   .     S
C373   C473    1.403   .     A
C373   C1113   1.393   1_545 S
C374   H510    1.082   .     S
C374   C386    1.393   .     A
C374   C474    1.403   .     A
C375   C387    1.393   .     A
C375   C475    1.403   .     A
C375   H511    1.082   .     S
C376   C476    1.403   .     A
C376   H512    1.082   .     S
C377   C385    1.393   .     A
C377   C469    1.403   .     A
C377   H513    1.082   .     S
C378   C470    1.403   .     A
C378   H514    1.082   .     S
C378   C1114   1.393   1_545 S
C379   H515    1.082   .     S
C379   C471    1.403   .     A
C380   H516    1.082   .     S
C380   C388    1.393   .     A
C380   C472    1.403   .     A
C381   C407    1.462   .     S
C382   C408    1.462   .     S
C383   C1133   1.462   .     S
C383   C1095   1.393   .     S
C384   C406    1.462   .     S
C384   C1096   1.393   1_545 S
C385   C1139   1.462   .     S
C385   C1101   1.393   .     S
C386   C1140   1.462   .     S
C386   C1106   1.393   .     S
C387   C45     1.462   1_655 S
C387   C15     1.393   1_655 S
C388   C410    1.462   .     S
C388   C12     1.393   1_655 S
C389   C461    1.417   .     A
C389   C394    1.413   .     A
C389   C585    1.489   .     S
C390   C462    1.417   .     A
C390   C588    1.487   .     S
C390   C393    1.413   .     A
C391   C463    1.417   .     A
C391   C591    1.488   .     S
C391   C396    1.413   .     A
C392   C594    1.488   .     S
C392   C395    1.413   .     A
C392   C464    1.417   .     A
C393   C597    1.488   .     S
C393   C465    1.417   .     A
C394   C466    1.417   .     A
C394   C600    1.487   .     S
C395   C603    1.488   .     S
C395   C467    1.417   .     A
C396   C468    1.417   .     A
C396   C606    1.488   .     S
C397   C609    1.488   .     S
C397   C469    1.417   .     A
C397   C402    1.413   1_556 S
C398   C470    1.417   .     A
C398   C612    1.488   .     S
C398   C401    1.413   1_554 S
C399   C471    1.417   .     A
C399   C615    1.488   .     S
C399   C404    1.413   1_556 S
C400   C472    1.417   .     A
C400   C618    1.488   .     S
C400   C403    1.413   1_554 S
C401   C621    1.488   .     S
C401   C473    1.417   .     A
C401   C398    1.413   1_556 S
C402   C624    1.487   .     S
C402   C474    1.417   .     A
C402   C397    1.413   1_554 S
C403   C475    1.417   .     A
C403   C627    1.488   .     S
C403   C400    1.413   1_556 S
C404   C476    1.417   .     A
C404   C630    1.487   .     S
C404   C399    1.413   1_554 S
C405   O1249   1.280   1_545 A
C405   C1111   1.462   1_545 S
C405   O525    1.280   .     S
C406   O522    1.280   .     A
C406   O1254   1.280   1_545 S
C407   O523    1.280   .     S
C408   O528    1.280   .     A
C409   O529    1.280   .     S
C409   O533    1.280   .     S
C410   O166    1.280   1_655 A
C410   O170    1.280   1_655 S
C411   O535    1.280   .     A
C411   C1113   1.462   1_545 S
C411   O531    1.280   .     A
C412   C1114   1.462   1_545 S
C412   O532    1.280   .     S
C412   O536    1.280   .     S
C413   O537    1.278   .     A
C413   C479    1.456   .     S
C413   O563    1.279   .     A
C414   C480    1.456   .     S
C414   O564    1.279   .     A
C414   O538    1.278   .     A
C415   O561    1.279   .     A
C415   C481    1.458   .     S
C415   O539    1.279   .     A
C416   O562    1.279   .     A
C416   O540    1.278   .     A
C416   C482    1.457   .     S
C417   O541    1.278   .     A
C417   O567    1.279   .     A
C417   C483    1.457   .     S
C418   O542    1.279   .     A
C418   O568    1.279   .     A
C418   C484    1.458   .     S
C419   O565    1.279   .     A
C419   O543    1.278   .     A
C419   C477    1.457   .     S
C420   O544    1.280   .     A
C420   O566    1.278   .     A
C420   C478    1.457   .     S
C421   C487    1.457   .     S
C421   O555    1.278   .     A
C421   O545    1.280   .     A
C422   O556    1.278   .     A
C422   O546    1.279   .     A
C422   C488    1.456   .     S
C423   O553    1.279   .     A
C423   O547    1.279   .     A
C423   C489    1.458   .     S
C424   O548    1.279   .     A
C424   O554    1.279   .     A
C424   C490    1.458   .     S
C425   C491    1.457   .     S
C425   O559    1.279   .     A
C425   O549    1.278   .     A
C426   O560    1.278   .     A
C426   O550    1.280   .     A
C426   C492    1.457   .     S
C427   O551    1.278   .     A
C427   O557    1.279   .     A
C427   C485    1.456   .     S
C428   O558    1.278   .     A
C428   O552    1.279   .     A
C428   C486    1.457   .     S
C429   C492    1.413   .     A
C429   C633    1.485   .     S
C429   C444    1.408   .     A
C430   C443    1.408   .     A
C430   C491    1.413   .     A
C430   C636    1.496   .     S
C431   C490    1.411   .     A
C431   C639    1.485   .     S
C431   C442    1.408   .     A
C432   C642    1.485   .     S
C432   C441    1.408   .     A
C432   C489    1.411   .     A
C433   C440    1.408   .     A
C433   C488    1.415   .     A
C433   C645    1.497   .     S
C434   C648    1.485   .     S
C434   C439    1.408   .     A
C434   C487    1.413   .     A
C435   C486    1.412   .     A
C435   C438    1.408   .     A
C435   C651    1.485   .     S
C436   C437    1.408   .     A
C436   C654    1.497   .     S
C436   C485    1.415   .     A
C437   C484    1.411   .     A
C437   C657    1.485   .     S
C438   C660    1.496   .     S
C438   C483    1.413   .     A
C439   C663    1.496   .     S
C439   C482    1.413   .     A
C440   C666    1.485   .     S
C440   C481    1.411   .     A
C441   C669    1.497   .     S
C441   C480    1.415   .     A
C442   C479    1.415   .     A
C442   C672    1.497   .     S
C443   C675    1.485   .     S
C443   C478    1.413   .     A
C444   C678    1.496   .     S
C444   C477    1.414   .     A
C445   C478    1.413   .     A
C445   C460    1.408   .     A
C445   C681    1.496   .     S
C446   C684    1.485   .     S
C446   C459    1.408   .     A
C446   C477    1.412   .     A
C447   C458    1.408   .     A
C447   C687    1.497   .     S
C447   C480    1.415   .     A
C448   C690    1.497   .     S
C448   C457    1.408   .     A
C448   C479    1.415   .     A
C449   C456    1.408   .     A
C449   C693    1.485   .     S
C449   C482    1.412   .     A
C450   C696    1.485   .     S
C450   C481    1.411   .     A
C450   C455    1.408   .     A
C451   C699    1.485   .     S
C451   C454    1.408   .     A
C451   C484    1.411   .     A
C452   C483    1.413   .     A
C452   C453    1.408   .     A
C452   C702    1.485   .     S
C453   C486    1.414   .     A
C453   C705    1.496   .     S
C454   C485    1.415   .     A
C454   C708    1.497   .     S
C455   C711    1.497   .     S
C455   C488    1.415   .     A
C456   C487    1.413   .     A
C456   C714    1.496   .     S
C457   C490    1.411   .     A
C457   C717    1.485   .     S
C458   C489    1.411   .     A
C458   C720    1.485   .     S
C459   C492    1.413   .     A
C459   C723    1.496   .     S
C460   C491    1.412   .     A
C460   C726    1.485   .     S
C461   C493    1.420   .     A
C462   C130    1.420   1_655 S
C463   C1223   1.420   .     S
C464   C496    1.420   .     A
C465   C129    1.420   1_655 S
C466   C494    1.420   .     A
C467   C495    1.420   .     A
C468   C1224   1.420   .     S
C469   C497    1.420   .     A
C470   C1226   1.420   1_545 S
C472   C500    1.420   .     A
C473   C1225   1.420   1_545 S
C474   C498    1.420   .     A
C475   C499    1.420   .     A
C493   C494    1.403   .     A
C495   C496    1.403   .     A
C495   C1191   1.420   1_545 S
C496   C1196   1.420   1_545 S
C497   C1201   1.420   .     S
C497   C498    1.404   1_556 S
C498   C1198   1.420   .     S
C498   C497    1.404   1_554 S
C499   C107    1.420   1_655 S
C499   C500    1.404   1_556 S
C500   C112    1.420   1_655 S
C500   C499    1.404   1_554 S
O517   Zn569   1.947   .     S
O517   Zn573   1.947   .     S
O517   Zn580   1.948   .     S
O517   Zn1312  1.947   1_545 S
O518   Zn574   1.947   .     S
O518   Zn583   1.947   .     S
O518   Zn570   1.947   .     S
O518   Zn1307  1.948   1_545 S
O519   Zn571   1.948   .     S
O519   Zn575   1.947   .     S
O519   Zn578   1.947   .     S
O520   Zn572   1.948   .     S
O520   Zn576   1.947   .     S
O520   Zn581   1.947   .     S
O521   Zn584   1.952   .     S
O521   C1133   1.280   .     A
O522   Zn583   1.952   .     S
O523   Zn578   1.952   .     S
O524   Zn577   1.952   .     S
O524   C44     1.280   1_655 S
O525   Zn580   1.952   .     S
O526   Zn579   1.952   .     S
O526   C1134   1.280   .     S
O527   C43     1.280   1_655 A
O527   Zn582   1.952   .     S
O528   Zn581   1.952   .     S
O529   Zn576   1.952   .     S
O530   Zn575   1.952   .     S
O531   Zn570   1.952   .     S
O532   Zn569   1.952   .     S
O533   Zn572   1.952   .     S
O534   Zn571   1.952   .     S
O535   Zn574   1.952   .     S
O536   Zn573   1.952   .     S
O537   Zn580   1.934   .     S
O538   Zn579   1.934   .     S
O539   Zn582   1.934   .     S
O540   Zn581   1.934   .     S
O541   Zn584   1.934   .     S
O542   Zn583   1.934   .     S
O543   Zn578   1.934   .     S
O544   Zn577   1.934   .     S
O545   Zn579   1.934   .     S
O546   Zn580   1.934   .     S
O547   Zn577   1.934   .     S
O548   Zn578   1.934   .     S
O549   Zn583   1.934   .     S
O550   Zn584   1.934   .     S
O551   Zn581   1.934   .     S
O552   Zn582   1.934   .     S
O553   Zn208   1.934   1_655 S
O554   Zn571   1.934   .     S
O555   Zn1302  1.934   .     S
O556   Zn573   1.934   .     S
O557   Zn576   1.934   .     S
O558   Zn211   1.934   1_655 S
O559   Zn570   1.934   .     S
O560   Zn1297  1.934   .     S
O561   Zn207   1.934   1_655 S
O562   Zn572   1.934   .     S
O563   Zn569   1.934   .     S
O564   Zn1298  1.934   .     S
O565   Zn575   1.934   .     S
O566   Zn212   1.934   1_655 S
O567   Zn1301  1.934   .     S
O568   Zn574   1.934   .     S
Zn569  O1288   1.934   1_545 S
Zn570  O1292   1.934   1_545 S
Zn573  O1295   1.934   1_545 S
Zn574  O1283   1.934   1_545 S
Zn577  O156    1.947   1_655 S
Zn579  O1246   1.948   .     S
Zn582  O155    1.947   1_655 S
Zn584  O1245   1.947   .     S
C585   O587    1.220   .     D
C585   H586    1.085   .     S
C588   H589    1.085   .     S
C588   O590    1.220   .     D
C591   H592    1.085   .     S
C591   O593    1.220   .     D
C594   O596    1.220   .     D
C594   H595    1.085   .     S
C597   H598    1.085   .     S
C597   O599    1.220   .     D
C600   H601    1.085   .     S
C600   O602    1.220   .     D
C603   O605    1.220   .     D
C603   H604    1.085   .     S
C606   O608    1.220   .     D
C606   H607    1.085   .     S
C609   H610    1.085   .     S
C609   O611    1.220   .     D
C612   O614    1.220   .     D
C612   H613    1.085   .     S
C615   H616    1.085   .     S
C615   O617    1.220   .     D
C618   O620    1.220   .     D
C618   H619    1.085   .     S
C621   H622    1.085   .     S
C621   O623    1.220   .     D
C624   H625    1.085   .     S
C624   O626    1.220   .     D
C627   O629    1.220   .     D
C627   H628    1.085   .     S
C630   O632    1.220   .     D
C630   H631    1.085   .     S
C633   O635    1.221   .     D
C633   H634    1.085   .     S
C636   H637    1.085   .     S
C636   O638    1.220   .     D
C639   H640    1.085   .     S
C639   O641    1.221   .     D
C642   O644    1.221   .     D
C642   H643    1.085   .     S
C645   O647    1.220   .     D
C645   H646    1.085   .     S
C648   H649    1.085   .     S
C648   O650    1.221   .     D
C651   O653    1.221   .     D
C651   H652    1.085   .     S
C654   H655    1.085   .     S
C654   O656    1.220   .     D
C657   H658    1.085   .     S
C657   O659    1.221   .     D
C660   H661    1.085   .     S
C660   O662    1.220   .     D
C663   O665    1.220   .     D
C663   H664    1.085   .     S
C666   O668    1.221   .     D
C666   H667    1.085   .     S
C669   O671    1.220   .     D
C669   H670    1.085   .     S
C672   O674    1.220   .     D
C672   H673    1.085   .     S
C675   O677    1.221   .     D
C675   H676    1.085   .     S
C678   H679    1.085   .     S
C678   O680    1.220   .     D
C681   O683    1.220   .     D
C681   H682    1.085   .     S
C684   O686    1.221   .     D
C684   H685    1.085   .     S
C687   H688    1.085   .     S
C687   O689    1.220   .     D
C690   H691    1.085   .     S
C690   O692    1.220   .     D
C693   O695    1.221   .     D
C693   H694    1.085   .     S
C696   H697    1.085   .     S
C696   O698    1.221   .     D
C699   O701    1.221   .     D
C699   H700    1.085   .     S
C702   O704    1.221   .     D
C702   H703    1.085   .     S
C705   O707    1.220   .     D
C705   H706    1.085   .     S
C708   H709    1.085   .     S
C708   O710    1.220   .     D
C711   H712    1.085   .     S
C711   O713    1.220   .     D
C714   H715    1.085   .     S
C714   O716    1.220   .     D
C717   O719    1.221   .     D
C717   H718    1.085   .     S
C720   O722    1.221   .     D
C720   H721    1.085   .     S
C723   H724    1.085   .     S
C723   O725    1.219   .     D
C726   O728    1.221   .     D
C726   H727    1.085   .     S
C729   C829    1.403   .     A
C729   H865    1.082   .     S
C729   C1109   1.393   .     A
C730   H866    1.082   .     S
C730   C830    1.403   .     A
C730   C746    1.393   .     A
C731   C831    1.403   .     A
C731   H867    1.082   .     S
C732   C832    1.403   .     A
C732   H868    1.082   .     S
C732   C20     1.393   1_565 S
C733   C825    1.403   .     A
C733   H869    1.081   .     S
C733   C745    1.393   .     S
C734   H870    1.082   .     S
C734   C826    1.403   .     A
C734   C1110   1.393   .     S
C735   C827    1.403   .     A
C735   C747    1.393   .     A
C735   H871    1.082   .     S
C736   C828    1.403   .     A
C736   C748    1.393   .     A
C736   H872    1.082   .     S
C737   H873    1.082   .     S
C737   C837    1.403   .     A
C738   H874    1.082   .     S
C738   C750    1.393   .     A
C738   C838    1.403   .     A
C739   C751    1.393   .     A
C739   C839    1.403   .     A
C739   H875    1.082   .     S
C740   C840    1.403   .     A
C740   H876    1.082   .     S
C740   C1116   1.393   1_455 S
C741   C749    1.393   .     A
C741   C833    1.403   .     A
C741   H877    1.082   .     S
C742   C834    1.403   .     A
C742   H878    1.082   .     S
C743   H879    1.082   .     S
C743   C835    1.403   .     A
C743   C1115   1.393   1_455 S
C744   H880    1.082   .     S
C744   C752    1.393   .     A
C744   C836    1.403   .     A
C745   C771    1.462   .     S
C745   C1093   1.393   1_455 A
C746   C772    1.462   .     S
C746   C1098   1.393   1_455 S
C747   C41     1.462   1_565 S
C747   C3      1.393   1_565 S
C748   C770    1.462   .     S
C749   C47     1.462   1_565 S
C749   C9      1.393   1_565 S
C750   C48     1.462   1_565 S
C750   C14     1.393   1_565 S
C751   C1137   1.462   .     S
C751   C1107   1.393   .     S
C752   C774    1.462   .     S
C752   C1104   1.393   .     S
C753   C825    1.417   .     A
C753   C758    1.413   .     A
C753   C949    1.489   .     S
C754   C826    1.417   .     A
C754   C952    1.487   .     S
C754   C757    1.413   .     A
C755   C827    1.417   .     A
C755   C955    1.488   .     S
C755   C760    1.413   .     A
C756   C958    1.488   .     S
C756   C759    1.413   .     A
C756   C828    1.417   .     A
C757   C961    1.488   .     S
C757   C829    1.417   .     A
C758   C830    1.417   .     A
C758   C964    1.487   .     S
C759   C967    1.488   .     S
C759   C831    1.417   .     A
C760   C832    1.417   .     A
C760   C970    1.488   .     S
C761   C973    1.488   .     S
C761   C833    1.417   .     A
C761   C766    1.413   1_556 S
C762   C834    1.417   .     A
C762   C976    1.488   .     S
C762   C765    1.413   1_554 S
C763   C835    1.417   .     A
C763   C979    1.488   .     S
C763   C768    1.413   1_556 S
C764   C836    1.417   .     A
C764   C982    1.488   .     S
C764   C767    1.413   1_554 S
C765   C985    1.488   .     S
C765   C837    1.417   .     A
C765   C762    1.413   1_556 S
C766   C988    1.487   .     S
C766   C838    1.417   .     A
C766   C761    1.413   1_554 S
C767   C839    1.417   .     A
C767   C991    1.488   .     S
C767   C764    1.413   1_556 S
C768   C840    1.417   .     A
C768   C994    1.487   .     S
C768   C763    1.413   1_554 S
C769   O889    1.280   .     S
C770   O886    1.280   .     A
C771   O1255   1.280   1_455 A
C771   O887    1.280   .     S
C772   O892    1.280   .     A
C772   O1252   1.280   1_455 S
C773   C1115   1.462   1_455 S
C773   O893    1.280   .     S
C773   O897    1.280   .     S
C774   O1258   1.280   .     A
C774   O1262   1.280   .     S
C775   O899    1.280   .     A
C775   O895    1.280   .     A
C776   O896    1.280   .     S
C776   O900    1.280   .     S
C777   O901    1.278   .     A
C777   C843    1.456   .     S
C777   O927    1.279   .     A
C778   C844    1.456   .     S
C778   O928    1.279   .     A
C778   O902    1.278   .     A
C779   O925    1.279   .     A
C779   C845    1.458   .     S
C779   O903    1.279   .     A
C780   O926    1.279   .     A
C780   O904    1.278   .     A
C780   C846    1.457   .     S
C781   O905    1.278   .     A
C781   O931    1.279   .     A
C781   C847    1.457   .     S
C782   O906    1.279   .     A
C782   O932    1.279   .     A
C782   C848    1.458   .     S
C783   O929    1.279   .     A
C783   O907    1.278   .     A
C783   C841    1.457   .     S
C784   O908    1.280   .     A
C784   O930    1.278   .     A
C784   C842    1.457   .     S
C785   C851    1.457   .     S
C785   O919    1.278   .     A
C785   O909    1.280   .     A
C786   O920    1.278   .     A
C786   O910    1.279   .     A
C786   C852    1.456   .     S
C787   O917    1.279   .     A
C787   O911    1.279   .     A
C787   C853    1.458   .     S
C788   O912    1.279   .     A
C788   O918    1.279   .     A
C788   C854    1.458   .     S
C789   C855    1.457   .     S
C789   O923    1.279   .     A
C789   O913    1.278   .     A
C790   O924    1.278   .     A
C790   O914    1.280   .     A
C790   C856    1.457   .     S
C791   O915    1.278   .     A
C791   O921    1.279   .     A
C791   C849    1.456   .     S
C792   O922    1.278   .     A
C792   O916    1.279   .     A
C792   C850    1.457   .     S
C793   C856    1.413   .     A
C793   C997    1.485   .     S
C793   C808    1.408   .     A
C794   C807    1.408   .     A
C794   C855    1.413   .     A
C794   C1000   1.496   .     S
C795   C854    1.411   .     A
C795   C1003   1.485   .     S
C795   C806    1.408   .     A
C796   C1006   1.485   .     S
C796   C805    1.408   .     A
C796   C853    1.411   .     A
C797   C804    1.408   .     A
C797   C852    1.415   .     A
C797   C1009   1.497   .     S
C798   C1012   1.485   .     S
C798   C803    1.408   .     A
C798   C851    1.413   .     A
C799   C850    1.412   .     A
C799   C802    1.408   .     A
C799   C1015   1.485   .     S
C800   C801    1.408   .     A
C800   C1018   1.497   .     S
C800   C849    1.415   .     A
C801   C848    1.411   .     A
C801   C1021   1.485   .     S
C802   C1024   1.496   .     S
C802   C847    1.413   .     A
C803   C1027   1.496   .     S
C803   C846    1.413   .     A
C804   C1030   1.485   .     S
C804   C845    1.411   .     A
C805   C1033   1.497   .     S
C805   C844    1.415   .     A
C806   C843    1.415   .     A
C806   C1036   1.497   .     S
C807   C1039   1.485   .     S
C807   C842    1.413   .     A
C808   C1042   1.496   .     S
C808   C841    1.414   .     A
C809   C842    1.413   .     A
C809   C824    1.408   .     A
C809   C1045   1.496   .     S
C810   C1048   1.485   .     S
C810   C823    1.408   .     A
C810   C841    1.412   .     A
C811   C822    1.408   .     A
C811   C1051   1.497   .     S
C811   C844    1.415   .     A
C812   C1054   1.497   .     S
C812   C821    1.408   .     A
C812   C843    1.415   .     A
C813   C820    1.408   .     A
C813   C1057   1.485   .     S
C813   C846    1.412   .     A
C814   C1060   1.485   .     S
C814   C845    1.411   .     A
C814   C819    1.408   .     A
C815   C1063   1.485   .     S
C815   C818    1.408   .     A
C815   C848    1.411   .     A
C816   C847    1.413   .     A
C816   C817    1.408   .     A
C816   C1066   1.485   .     S
C817   C850    1.414   .     A
C817   C1069   1.496   .     S
C818   C849    1.415   .     A
C818   C1072   1.497   .     S
C819   C1075   1.497   .     S
C819   C852    1.415   .     A
C820   C851    1.413   .     A
C820   C1078   1.496   .     S
C821   C854    1.411   .     A
C821   C1081   1.485   .     S
C822   C853    1.411   .     A
C822   C1084   1.485   .     S
C823   C856    1.413   .     A
C823   C1087   1.496   .     S
C824   C855    1.412   .     A
C824   C1090   1.485   .     S
C825   C857    1.420   .     A
C826   C1222   1.420   .     S
C827   C131    1.420   1_565 S
C828   C860    1.420   .     A
C829   C1221   1.420   .     S
C830   C858    1.420   .     A
C831   C859    1.420   .     A
C832   C132    1.420   1_565 S
C833   C861    1.420   .     A
C835   C1227   1.420   1_455 S
C836   C864    1.420   .     A
C838   C862    1.420   .     A
C839   C863    1.420   .     A
C840   C1228   1.420   1_455 S
C857   C858    1.403   .     A
C857   C1193   1.420   1_455 S
C858   C1190   1.420   1_455 S
C859   C860    1.403   .     A
C861   C109    1.420   1_565 S
C861   C862    1.404   1_556 S
C862   C106    1.420   1_565 S
C862   C861    1.404   1_554 S
C863   C1199   1.420   .     S
C863   C864    1.404   1_556 S
C864   C1204   1.420   .     S
C864   C863    1.404   1_554 S
O881   Zn933   1.947   .     S
O881   Zn937   1.947   .     S
O881   Zn944   1.948   .     S
O882   Zn938   1.947   .     S
O882   Zn947   1.947   .     S
O882   Zn934   1.947   .     S
O883   Zn935   1.948   .     S
O883   Zn939   1.947   .     S
O883   Zn942   1.947   .     S
O883   Zn1310  1.947   1_455 S
O884   Zn936   1.948   .     S
O884   Zn940   1.947   .     S
O884   Zn945   1.947   .     S
O884   Zn1305  1.947   1_455 S
O885   Zn948   1.952   .     S
O885   C41     1.280   1_565 A
O886   Zn947   1.952   .     S
O887   Zn942   1.952   .     S
O888   Zn941   1.952   .     S
O888   C1136   1.280   .     S
O889   Zn944   1.952   .     S
O890   Zn943   1.952   .     S
O890   C42     1.280   1_565 S
O891   C1135   1.280   .     A
O891   Zn946   1.952   .     S
O892   Zn945   1.952   .     S
O893   Zn940   1.952   .     S
O894   C1138   1.280   1_455 A
O894   Zn939   1.952   .     S
O895   Zn934   1.952   .     S
O896   Zn933   1.952   .     S
O897   Zn936   1.952   .     S
O898   Zn935   1.952   .     S
O898   C1138   1.280   1_455 S
O899   Zn938   1.952   .     S
O900   Zn937   1.952   .     S
O901   Zn944   1.934   .     S
O902   Zn943   1.934   .     S
O903   Zn946   1.934   .     S
O904   Zn945   1.934   .     S
O905   Zn948   1.934   .     S
O906   Zn947   1.934   .     S
O907   Zn942   1.934   .     S
O908   Zn941   1.934   .     S
O909   Zn943   1.934   .     S
O910   Zn944   1.934   .     S
O911   Zn941   1.934   .     S
O912   Zn942   1.934   .     S
O913   Zn947   1.934   .     S
O914   Zn948   1.934   .     S
O915   Zn945   1.934   .     S
O916   Zn946   1.934   .     S
O917   Zn1300  1.934   .     S
O918   Zn935   1.934   .     S
O919   Zn210   1.934   1_565 S
O920   Zn937   1.934   .     S
O921   Zn940   1.934   .     S
O922   Zn1303  1.934   .     S
O923   Zn934   1.934   .     S
O924   Zn205   1.934   1_565 S
O925   Zn1299  1.934   .     S
O926   Zn936   1.934   .     S
O927   Zn933   1.934   .     S
O928   Zn206   1.934   1_565 S
O929   Zn939   1.934   .     S
O930   Zn1304  1.934   .     S
O931   Zn209   1.934   1_565 S
O932   Zn938   1.934   .     S
Zn935  O1289   1.934   1_455 S
Zn936  O1281   1.934   1_455 S
Zn939  O1286   1.934   1_455 S
Zn940  O1294   1.934   1_455 S
Zn941  O1248   1.947   .     S
Zn943  O154    1.948   1_565 S
Zn946  O1247   1.947   .     S
Zn948  O153    1.947   1_565 S
C949   O951    1.220   .     D
C949   H950    1.085   .     S
C952   H953    1.085   .     S
C952   O954    1.220   .     D
C955   H956    1.085   .     S
C955   O957    1.220   .     D
C958   O960    1.220   .     D
C958   H959    1.085   .     S
C961   H962    1.085   .     S
C961   O963    1.220   .     D
C964   H965    1.085   .     S
C964   O966    1.220   .     D
C967   O969    1.220   .     D
C967   H968    1.085   .     S
C970   O972    1.220   .     D
C970   H971    1.085   .     S
C973   H974    1.085   .     S
C973   O975    1.220   .     D
C976   O978    1.220   .     D
C976   H977    1.085   .     S
C979   H980    1.085   .     S
C979   O981    1.220   .     D
C982   O984    1.220   .     D
C982   H983    1.085   .     S
C985   H986    1.085   .     S
C985   O987    1.220   .     D
C988   H989    1.085   .     S
C988   O990    1.220   .     D
C991   O993    1.220   .     D
C991   H992    1.085   .     S
C994   O996    1.220   .     D
C994   H995    1.085   .     S
C997   O999    1.221   .     D
C997   H998    1.085   .     S
C1000  H1001   1.085   .     S
C1000  O1002   1.220   .     D
C1003  H1004   1.085   .     S
C1003  O1005   1.221   .     D
C1006  O1008   1.221   .     D
C1006  H1007   1.085   .     S
C1009  O1011   1.220   .     D
C1009  H1010   1.085   .     S
C1012  H1013   1.085   .     S
C1012  O1014   1.221   .     D
C1015  O1017   1.221   .     D
C1015  H1016   1.085   .     S
C1018  H1019   1.085   .     S
C1018  O1020   1.220   .     D
C1021  H1022   1.085   .     S
C1021  O1023   1.221   .     D
C1024  H1025   1.085   .     S
C1024  O1026   1.220   .     D
C1027  O1029   1.220   .     D
C1027  H1028   1.085   .     S
C1030  O1032   1.221   .     D
C1030  H1031   1.085   .     S
C1033  O1035   1.220   .     D
C1033  H1034   1.085   .     S
C1036  O1038   1.220   .     D
C1036  H1037   1.085   .     S
C1039  O1041   1.221   .     D
C1039  H1040   1.085   .     S
C1042  H1043   1.085   .     S
C1042  O1044   1.220   .     D
C1045  O1047   1.220   .     D
C1045  H1046   1.085   .     S
C1048  O1050   1.221   .     D
C1048  H1049   1.085   .     S
C1051  H1052   1.085   .     S
C1051  O1053   1.220   .     D
C1054  H1055   1.085   .     S
C1054  O1056   1.220   .     D
C1057  O1059   1.221   .     D
C1057  H1058   1.085   .     S
C1060  H1061   1.085   .     S
C1060  O1062   1.221   .     D
C1063  O1065   1.221   .     D
C1063  H1064   1.085   .     S
C1066  O1068   1.221   .     D
C1066  H1067   1.085   .     S
C1069  O1071   1.220   .     D
C1069  H1070   1.085   .     S
C1072  H1073   1.085   .     S
C1072  O1074   1.220   .     D
C1075  H1076   1.085   .     S
C1075  O1077   1.220   .     D
C1078  H1079   1.085   .     S
C1078  O1080   1.220   .     D
C1081  O1083   1.221   .     D
C1081  H1082   1.085   .     S
C1084  O1086   1.221   .     D
C1084  H1085   1.085   .     S
C1087  H1088   1.085   .     S
C1087  O1089   1.219   .     D
C1090  O1092   1.221   .     D
C1090  H1091   1.085   .     S
C1093  C1193   1.403   .     A
C1093  H1229   1.082   .     S
C1093  C745    1.393   1_655 A
C1094  H1230   1.082   .     S
C1094  C1194   1.403   .     A
C1094  C1110   1.393   .     A
C1095  C1195   1.403   .     A
C1095  H1231   1.082   .     S
C1096  C1196   1.403   .     A
C1096  H1232   1.082   .     S
C1096  C384    1.393   1_565 S
C1097  C1189   1.403   .     A
C1097  H1233   1.081   .     S
C1097  C1109   1.393   .     S
C1098  H1234   1.082   .     S
C1098  C1190   1.403   .     A
C1098  C746    1.393   1_655 S
C1099  C1191   1.403   .     A
C1099  C1111   1.393   .     A
C1099  H1235   1.082   .     S
C1100  C1192   1.403   .     A
C1100  C1112   1.393   .     A
C1100  H1236   1.082   .     S
C1101  H1237   1.082   .     S
C1101  C1201   1.403   .     A
C1102  H1238   1.082   .     S
C1102  C1114   1.393   .     A
C1102  C1202   1.403   .     A
C1103  C1115   1.393   .     A
C1103  C1203   1.403   .     A
C1103  H1239   1.082   .     S
C1104  C1204   1.403   .     A
C1104  H1240   1.082   .     S
C1105  C1113   1.393   .     A
C1105  C1197   1.403   .     A
C1105  H1241   1.082   .     S
C1106  C1198   1.403   .     A
C1106  H1242   1.082   .     S
C1107  H1243   1.082   .     S
C1107  C1199   1.403   .     A
C1108  H1244   1.082   .     S
C1108  C1116   1.393   .     A
C1108  C1200   1.403   .     A
C1109  C1135   1.462   .     S
C1110  C1136   1.462   .     S
C1111  C405    1.462   1_565 S
C1111  C367    1.393   1_565 S
C1112  C1134   1.462   .     S
C1113  C411    1.462   1_565 S
C1113  C373    1.393   1_565 S
C1114  C412    1.462   1_565 S
C1114  C378    1.393   1_565 S
C1115  C773    1.462   1_655 S
C1115  C743    1.393   1_655 S
C1116  C1138   1.462   .     S
C1116  C740    1.393   1_655 S
C1117  C1189   1.417   .     A
C1117  C1122   1.413   .     A
C1117  C1313   1.489   .     S
C1118  C1190   1.417   .     A
C1118  C1316   1.487   .     S
C1118  C1121   1.413   .     A
C1119  C1191   1.417   .     A
C1119  C1319   1.488   .     S
C1119  C1124   1.413   .     A
C1120  C1322   1.488   .     S
C1120  C1123   1.413   .     A
C1120  C1192   1.417   .     A
C1121  C1325   1.488   .     S
C1121  C1193   1.417   .     A
C1122  C1194   1.417   .     A
C1122  C1328   1.487   .     S
C1123  C1331   1.488   .     S
C1123  C1195   1.417   .     A
C1124  C1196   1.417   .     A
C1124  C1334   1.488   .     S
C1125  C1337   1.488   .     S
C1125  C1197   1.417   .     A
C1125  C1130   1.413   1_556 S
C1126  C1198   1.417   .     A
C1126  C1340   1.488   .     S
C1126  C1129   1.413   1_554 S
C1127  C1199   1.417   .     A
C1127  C1343   1.488   .     S
C1127  C1132   1.413   1_556 S
C1128  C1200   1.417   .     A
C1128  C1346   1.488   .     S
C1128  C1131   1.413   1_554 S
C1129  C1349   1.488   .     S
C1129  C1201   1.417   .     A
C1129  C1126   1.413   1_556 S
C1130  C1352   1.487   .     S
C1130  C1202   1.417   .     A
C1130  C1125   1.413   1_554 S
C1131  C1203   1.417   .     A
C1131  C1355   1.488   .     S
C1131  C1128   1.413   1_556 S
C1132  C1204   1.417   .     A
C1132  C1358   1.487   .     S
C1132  C1127   1.413   1_554 S
C1133  O1253   1.280   .     S
C1134  O1250   1.280   .     A
C1135  O1251   1.280   .     S
C1136  O1256   1.280   .     A
C1137  O1257   1.280   .     S
C1137  O1261   1.280   .     S
C1138  O894    1.280   1_655 A
C1138  O898    1.280   1_655 S
C1139  O1263   1.280   .     A
C1139  O1259   1.280   .     A
C1140  O1260   1.280   .     S
C1140  O1264   1.280   .     S
C1141  O1265   1.278   .     A
C1141  C1207   1.456   .     S
C1141  O1291   1.279   .     A
C1142  C1208   1.456   .     S
C1142  O1292   1.279   .     A
C1142  O1266   1.278   .     A
C1143  O1289   1.279   .     A
C1143  C1209   1.458   .     S
C1143  O1267   1.279   .     A
C1144  O1290   1.279   .     A
C1144  O1268   1.278   .     A
C1144  C1210   1.457   .     S
C1145  O1269   1.278   .     A
C1145  O1295   1.279   .     A
C1145  C1211   1.457   .     S
C1146  O1270   1.279   .     A
C1146  O1296   1.279   .     A
C1146  C1212   1.458   .     S
C1147  O1293   1.279   .     A
C1147  O1271   1.278   .     A
C1147  C1205   1.457   .     S
C1148  O1272   1.280   .     A
C1148  O1294   1.278   .     A
C1148  C1206   1.457   .     S
C1149  C1215   1.457   .     S
C1149  O1283   1.278   .     A
C1149  O1273   1.280   .     A
C1150  O1284   1.278   .     A
C1150  O1274   1.279   .     A
C1150  C1216   1.456   .     S
C1151  O1281   1.279   .     A
C1151  O1275   1.279   .     A
C1151  C1217   1.458   .     S
C1152  O1276   1.279   .     A
C1152  O1282   1.279   .     A
C1152  C1218   1.458   .     S
C1153  C1219   1.457   .     S
C1153  O1287   1.279   .     A
C1153  O1277   1.278   .     A
C1154  O1288   1.278   .     A
C1154  O1278   1.280   .     A
C1154  C1220   1.457   .     S
C1155  O1279   1.278   .     A
C1155  O1285   1.279   .     A
C1155  C1213   1.456   .     S
C1156  O1286   1.278   .     A
C1156  O1280   1.279   .     A
C1156  C1214   1.457   .     S
C1157  C1220   1.413   .     A
C1157  C1361   1.485   .     S
C1157  C1172   1.408   .     A
C1158  C1171   1.408   .     A
C1158  C1219   1.413   .     A
C1158  C1364   1.496   .     S
C1159  C1218   1.411   .     A
C1159  C1367   1.485   .     S
C1159  C1170   1.408   .     A
C1160  C1370   1.485   .     S
C1160  C1169   1.408   .     A
C1160  C1217   1.411   .     A
C1161  C1168   1.408   .     A
C1161  C1216   1.415   .     A
C1161  C1373   1.497   .     S
C1162  C1376   1.485   .     S
C1162  C1167   1.408   .     A
C1162  C1215   1.413   .     A
C1163  C1214   1.412   .     A
C1163  C1166   1.408   .     A
C1163  C1379   1.485   .     S
C1164  C1165   1.408   .     A
C1164  C1382   1.497   .     S
C1164  C1213   1.415   .     A
C1165  C1212   1.411   .     A
C1165  C1385   1.485   .     S
C1166  C1388   1.496   .     S
C1166  C1211   1.413   .     A
C1167  C1391   1.496   .     S
C1167  C1210   1.413   .     A
C1168  C1394   1.485   .     S
C1168  C1209   1.411   .     A
C1169  C1397   1.497   .     S
C1169  C1208   1.415   .     A
C1170  C1207   1.415   .     A
C1170  C1400   1.497   .     S
C1171  C1403   1.485   .     S
C1171  C1206   1.413   .     A
C1172  C1406   1.496   .     S
C1172  C1205   1.414   .     A
C1173  C1206   1.413   .     A
C1173  C1188   1.408   .     A
C1173  C1409   1.496   .     S
C1174  C1412   1.485   .     S
C1174  C1187   1.408   .     A
C1174  C1205   1.412   .     A
C1175  C1186   1.408   .     A
C1175  C1415   1.497   .     S
C1175  C1208   1.415   .     A
C1176  C1418   1.497   .     S
C1176  C1185   1.408   .     A
C1176  C1207   1.415   .     A
C1177  C1184   1.408   .     A
C1177  C1421   1.485   .     S
C1177  C1210   1.412   .     A
C1178  C1424   1.485   .     S
C1178  C1209   1.411   .     A
C1178  C1183   1.408   .     A
C1179  C1427   1.485   .     S
C1179  C1182   1.408   .     A
C1179  C1212   1.411   .     A
C1180  C1211   1.413   .     A
C1180  C1181   1.408   .     A
C1180  C1430   1.485   .     S
C1181  C1214   1.414   .     A
C1181  C1433   1.496   .     S
C1182  C1213   1.415   .     A
C1182  C1436   1.497   .     S
C1183  C1439   1.497   .     S
C1183  C1216   1.415   .     A
C1184  C1215   1.413   .     A
C1184  C1442   1.496   .     S
C1185  C1218   1.411   .     A
C1185  C1445   1.485   .     S
C1186  C1217   1.411   .     A
C1186  C1448   1.485   .     S
C1187  C1220   1.413   .     A
C1187  C1451   1.496   .     S
C1188  C1219   1.412   .     A
C1188  C1454   1.485   .     S
C1189  C1221   1.420   .     A
C1190  C858    1.420   1_655 S
C1191  C495    1.420   1_565 S
C1192  C1224   1.420   .     A
C1193  C857    1.420   1_655 S
C1194  C1222   1.420   .     A
C1195  C1223   1.420   .     A
C1196  C496    1.420   1_565 S
C1197  C1225   1.420   .     A
C1200  C1228   1.420   .     A
C1202  C1226   1.420   .     A
C1203  C1227   1.420   .     A
C1221  C1222   1.403   .     A
C1223  C1224   1.403   .     A
C1225  C473    1.420   1_565 S
C1225  C1226   1.404   1_556 S
C1226  C470    1.420   1_565 S
C1226  C1225   1.404   1_554 S
C1227  C835    1.420   1_655 S
C1227  C1228   1.404   1_556 S
C1228  C840    1.420   1_655 S
C1228  C1227   1.404   1_554 S
O1245  Zn1297  1.947   .     S
O1245  Zn1301  1.947   .     S
O1245  Zn1308  1.948   .     S
O1246  Zn1302  1.947   .     S
O1246  Zn1311  1.947   .     S
O1246  Zn1298  1.947   .     S
O1247  Zn1299  1.948   .     S
O1247  Zn1303  1.947   .     S
O1247  Zn1306  1.947   .     S
O1248  Zn1300  1.948   .     S
O1248  Zn1304  1.947   .     S
O1248  Zn1309  1.947   .     S
O1249  Zn1312  1.952   .     S
O1249  C405    1.280   1_565 A
O1250  Zn1311  1.952   .     S
O1251  Zn1306  1.952   .     S
O1252  Zn1305  1.952   .     S
O1252  C772    1.280   1_655 S
O1253  Zn1308  1.952   .     S
O1254  Zn1307  1.952   .     S
O1254  C406    1.280   1_565 S
O1255  C771    1.280   1_655 A
O1255  Zn1310  1.952   .     S
O1256  Zn1309  1.952   .     S
O1257  Zn1304  1.952   .     S
O1258  Zn1303  1.952   .     S
O1259  Zn1298  1.952   .     S
O1260  Zn1297  1.952   .     S
O1261  Zn1300  1.952   .     S
O1262  Zn1299  1.952   .     S
O1263  Zn1302  1.952   .     S
O1264  Zn1301  1.952   .     S
O1265  Zn1308  1.934   .     S
O1266  Zn1307  1.934   .     S
O1267  Zn1310  1.934   .     S
O1268  Zn1309  1.934   .     S
O1269  Zn1312  1.934   .     S
O1270  Zn1311  1.934   .     S
O1271  Zn1306  1.934   .     S
O1272  Zn1305  1.934   .     S
O1273  Zn1307  1.934   .     S
O1274  Zn1308  1.934   .     S
O1275  Zn1305  1.934   .     S
O1276  Zn1306  1.934   .     S
O1277  Zn1311  1.934   .     S
O1278  Zn1312  1.934   .     S
O1279  Zn1309  1.934   .     S
O1280  Zn1310  1.934   .     S
O1281  Zn936   1.934   1_655 S
O1282  Zn1299  1.934   .     S
O1283  Zn574   1.934   1_565 S
O1284  Zn1301  1.934   .     S
O1285  Zn1304  1.934   .     S
O1286  Zn939   1.934   1_655 S
O1287  Zn1298  1.934   .     S
O1288  Zn569   1.934   1_565 S
O1289  Zn935   1.934   1_655 S
O1290  Zn1300  1.934   .     S
O1291  Zn1297  1.934   .     S
O1292  Zn570   1.934   1_565 S
O1293  Zn1303  1.934   .     S
O1294  Zn940   1.934   1_655 S
O1295  Zn573   1.934   1_565 S
O1296  Zn1302  1.934   .     S
Zn1305 O884    1.947   1_655 S
Zn1307 O518    1.948   1_565 S
Zn1310 O883    1.947   1_655 S
Zn1312 O517    1.947   1_565 S
C1313  O1315   1.220   .     D
C1313  H1314   1.085   .     S
C1316  H1317   1.085   .     S
C1316  O1318   1.220   .     D
C1319  H1320   1.085   .     S
C1319  O1321   1.220   .     D
C1322  O1324   1.220   .     D
C1322  H1323   1.085   .     S
C1325  H1326   1.085   .     S
C1325  O1327   1.220   .     D
C1328  H1329   1.085   .     S
C1328  O1330   1.220   .     D
C1331  O1333   1.220   .     D
C1331  H1332   1.085   .     S
C1334  O1336   1.220   .     D
C1334  H1335   1.085   .     S
C1337  H1338   1.085   .     S
C1337  O1339   1.220   .     D
C1340  O1342   1.220   .     D
C1340  H1341   1.085   .     S
C1343  H1344   1.085   .     S
C1343  O1345   1.220   .     D
C1346  O1348   1.220   .     D
C1346  H1347   1.085   .     S
C1349  H1350   1.085   .     S
C1349  O1351   1.220   .     D
C1352  H1353   1.085   .     S
C1352  O1354   1.220   .     D
C1355  O1357   1.220   .     D
C1355  H1356   1.085   .     S
C1358  O1360   1.220   .     D
C1358  H1359   1.085   .     S
C1361  O1363   1.221   .     D
C1361  H1362   1.085   .     S
C1364  H1365   1.085   .     S
C1364  O1366   1.220   .     D
C1367  H1368   1.085   .     S
C1367  O1369   1.221   .     D
C1370  O1372   1.221   .     D
C1370  H1371   1.085   .     S
C1373  O1375   1.220   .     D
C1373  H1374   1.085   .     S
C1376  H1377   1.085   .     S
C1376  O1378   1.221   .     D
C1379  O1381   1.221   .     D
C1379  H1380   1.085   .     S
C1382  H1383   1.085   .     S
C1382  O1384   1.220   .     D
C1385  H1386   1.085   .     S
C1385  O1387   1.221   .     D
C1388  H1389   1.085   .     S
C1388  O1390   1.220   .     D
C1391  O1393   1.220   .     D
C1391  H1392   1.085   .     S
C1394  O1396   1.221   .     D
C1394  H1395   1.085   .     S
C1397  O1399   1.220   .     D
C1397  H1398   1.085   .     S
C1400  O1402   1.220   .     D
C1400  H1401   1.085   .     S
C1403  O1405   1.221   .     D
C1403  H1404   1.085   .     S
C1406  H1407   1.085   .     S
C1406  O1408   1.220   .     D
C1409  O1411   1.220   .     D
C1409  H1410   1.085   .     S
C1412  O1414   1.221   .     D
C1412  H1413   1.085   .     S
C1415  H1416   1.085   .     S
C1415  O1417   1.220   .     D
C1418  H1419   1.085   .     S
C1418  O1420   1.220   .     D
C1421  O1423   1.221   .     D
C1421  H1422   1.085   .     S
C1424  H1425   1.085   .     S
C1424  O1426   1.221   .     D
C1427  O1429   1.221   .     D
C1427  H1428   1.085   .     S
C1430  O1432   1.221   .     D
C1430  H1431   1.085   .     S
C1433  O1435   1.220   .     D
C1433  H1434   1.085   .     S
C1436  H1437   1.085   .     S
C1436  O1438   1.220   .     D
C1439  H1440   1.085   .     S
C1439  O1441   1.220   .     D
C1442  H1443   1.085   .     S
C1442  O1444   1.220   .     D
C1445  O1447   1.221   .     D
C1445  H1446   1.085   .     S
C1448  O1450   1.221   .     D
C1448  H1449   1.085   .     S
C1451  H1452   1.085   .     S
C1451  O1453   1.219   .     D
C1454  O1456   1.221   .     D
C1454  H1455   1.085   .     S
