data_str_m1_o1_o1_pcu_sym.8
_audit_creation_date              2020-01-03
_audit_creation_method            'Materials Studio'
_symmetry_space_group_name_H-M    'P1'
_symmetry_Int_Tables_number       1
_symmetry_cell_setting            triclinic
loop_
_symmetry_equiv_pos_as_xyz
  x,y,z
_cell_length_a                    25.9329
_cell_length_b                    25.9327
_cell_length_c                    25.9328
_cell_angle_alpha                 89.9937
_cell_angle_beta                  89.9938
_cell_angle_gamma                 90.0065
loop_
_atom_site_label
_atom_site_type_symbol
_atom_site_fract_x
_atom_site_fract_y
_atom_site_fract_z
_atom_site_U_iso_or_equiv
_atom_site_adp_type
_atom_site_occupancy
C1     C     0.39014   0.24997   0.25002   0.00000  Uiso   1.00
C2     C     0.60998   0.25004   0.24995   0.00000  Uiso   1.00
C3     C     0.97327   0.70326   0.24311   0.00000  Uiso   1.00
C4     C     0.02718   0.75490   0.70325   0.00000  Uiso   1.00
C5     C     0.97283   0.20312   0.25505   0.00000  Uiso   1.00
C6     C     0.02716   0.70298   0.24636   0.00000  Uiso   1.00
C7     C     0.97280   0.25820   0.79630   0.00000  Uiso   1.00
C8     C     0.79662   0.74276   0.02665   0.00000  Uiso   1.00
C9     C     0.23915   0.29601   0.97333   0.00000  Uiso   1.00
C10    C     0.74220   0.20336   0.02674   0.00000  Uiso   1.00
C11    C     0.29640   0.75849   0.97324   0.00000  Uiso   1.00
C12    C     0.24226   0.29657   0.02716   0.00000  Uiso   1.00
C13    C     0.25004   0.75005   0.39002   0.00000  Uiso   1.00
C14    C     0.79688   0.74626   0.97279   0.00000  Uiso   1.00
C15    C     0.29679   0.75512   0.02710   0.00000  Uiso   1.00
C16    C     0.74553   0.20303   0.97286   0.00000  Uiso   1.00
C17    C     0.20344   0.74188   0.97329   0.00000  Uiso   1.00
C18    C     0.75843   0.29640   0.02666   0.00000  Uiso   1.00
C19    C     0.26182   0.20433   0.97343   0.00000  Uiso   1.00
C20    C     0.70326   0.75690   0.02673   0.00000  Uiso   1.00
C21    C     0.75491   0.29675   0.97282   0.00000  Uiso   1.00
C22    C     0.20311   0.74497   0.02716   0.00000  Uiso   1.00
C23    C     0.70298   0.75365   0.97283   0.00000  Uiso   1.00
C24    C     0.74999   0.24996   0.60999   0.00000  Uiso   1.00
C25    C     0.25818   0.20370   0.02720   0.00000  Uiso   1.00
C26    C     0.74174   0.47325   0.70355   0.00000  Uiso   1.00
C27    C     0.29648   0.52665   0.25809   0.00000  Uiso   1.00
C28    C     0.70337   0.47329   0.25751   0.00000  Uiso   1.00
C29    C     0.26098   0.52661   0.70405   0.00000  Uiso   1.00
C30    C     0.29680   0.47281   0.25451   0.00000  Uiso   1.00
C31    C     0.74501   0.52711   0.70317   0.00000  Uiso   1.00
C32    C     0.25751   0.47281   0.70350   0.00000  Uiso   1.00
C33    C     0.70308   0.52717   0.25440   0.00000  Uiso   1.00
C34    C     0.47325   0.29645   0.25824   0.00000  Uiso   1.00
C35    C     0.60999   0.74994   0.24996   0.00000  Uiso   1.00
C36    C     0.52665   0.74185   0.70353   0.00000  Uiso   1.00
C37    C     0.47329   0.74247   0.29663   0.00000  Uiso   1.00
C38    C     0.52661   0.29592   0.73890   0.00000  Uiso   1.00
C39    C     0.47281   0.74544   0.70320   0.00000  Uiso   1.00
C40    C     0.52711   0.29683   0.25497   0.00000  Uiso   1.00
C41    C     0.47281   0.29648   0.74237   0.00000  Uiso   1.00
C42    C     0.52717   0.74558   0.29691   0.00000  Uiso   1.00
C43    C     0.29645   0.74176   0.52675   0.00000  Uiso   1.00
C44    C     0.74189   0.29648   0.47335   0.00000  Uiso   1.00
C45    C     0.74246   0.70337   0.52671   0.00000  Uiso   1.00
C46    C     0.39000   0.24996   0.74994   0.00000  Uiso   1.00
C47    C     0.29592   0.26110   0.47339   0.00000  Uiso   1.00
C48    C     0.74547   0.29680   0.52719   0.00000  Uiso   1.00
C49    C     0.29683   0.74503   0.47288   0.00000  Uiso   1.00
C50    C     0.29648   0.25763   0.52719   0.00000  Uiso   1.00
C51    C     0.74557   0.70309   0.47283   0.00000  Uiso   1.00
C52    C     0.24998   0.55361   0.25002   0.00000  Uiso   1.00
C53    C     0.75002   0.44637   0.75004   0.00000  Uiso   1.00
C54    C     0.25001   0.55358   0.74999   0.00000  Uiso   1.00
C55    C     0.74997   0.44639   0.24999   0.00000  Uiso   1.00
C56    C     0.75006   0.55395   0.74999   0.00000  Uiso   1.00
C57    C     0.75002   0.74998   0.60985   0.00000  Uiso   1.00
C58    C     0.24994   0.44602   0.24989   0.00000  Uiso   1.00
C59    C     0.75001   0.55397   0.25011   0.00000  Uiso   1.00
C60    C     0.25011   0.44599   0.75003   0.00000  Uiso   1.00
C61    C     0.55361   0.74997   0.75002   0.00000  Uiso   1.00
C62    C     0.44637   0.24996   0.24998   0.00000  Uiso   1.00
C63    C     0.55358   0.25001   0.74999   0.00000  Uiso   1.00
C64    C     0.44639   0.75001   0.25002   0.00000  Uiso   1.00
C65    C     0.55395   0.25001   0.24994   0.00000  Uiso   1.00
C66    C     0.44602   0.75011   0.75006   0.00000  Uiso   1.00
C67    C     0.55397   0.74989   0.24999   0.00000  Uiso   1.00
C68    C     0.25001   0.24999   0.39016   0.00000  Uiso   1.00
C69    C     0.44599   0.24997   0.74989   0.00000  Uiso   1.00
C70    C     0.74998   0.24998   0.44639   0.00000  Uiso   1.00
C71    C     0.24996   0.75002   0.55363   0.00000  Uiso   1.00
C72    C     0.25001   0.25001   0.44642   0.00000  Uiso   1.00
C73    C     0.75001   0.74997   0.55361   0.00000  Uiso   1.00
C74    C     0.25001   0.75006   0.44605   0.00000  Uiso   1.00
C75    C     0.75011   0.24994   0.55398   0.00000  Uiso   1.00
C76    C     0.74988   0.75001   0.44603   0.00000  Uiso   1.00
C77    C     0.24997   0.25011   0.55401   0.00000  Uiso   1.00
C78    C     0.74999   0.05399   0.25007   0.00000  Uiso   1.00
C79    C     0.25006   0.39000   0.75004   0.00000  Uiso   1.00
C80    C     0.25010   0.94600   0.74993   0.00000  Uiso   1.00
C81    C     0.24990   0.05397   0.24990   0.00000  Uiso   1.00
C82    C     0.75004   0.94605   0.75002   0.00000  Uiso   1.00
C83    C     0.25011   0.05358   0.74968   0.00000  Uiso   1.00
C84    C     0.74988   0.94640   0.25004   0.00000  Uiso   1.00
C85    C     0.75016   0.05363   0.75008   0.00000  Uiso   1.00
C86    C     0.24992   0.94639   0.24981   0.00000  Uiso   1.00
C87    C     0.05399   0.74993   0.25001   0.00000  Uiso   1.00
C88    C     0.94600   0.25006   0.74990   0.00000  Uiso   1.00
C89    C     0.05397   0.75010   0.75010   0.00000  Uiso   1.00
C90    C     0.75004   0.60999   0.25006   0.00000  Uiso   1.00
C91    C     0.94605   0.24997   0.24996   0.00000  Uiso   1.00
C92    C     0.05358   0.25032   0.74989   0.00000  Uiso   1.00
C93    C     0.94640   0.74996   0.25012   0.00000  Uiso   1.00
C94    C     0.05363   0.24992   0.24984   0.00000  Uiso   1.00
C95    C     0.94639   0.75019   0.75008   0.00000  Uiso   1.00
C96    C     0.74993   0.74999   0.94601   0.00000  Uiso   1.00
C97    C     0.25007   0.25010   0.05400   0.00000  Uiso   1.00
C98    C     0.75010   0.24990   0.94603   0.00000  Uiso   1.00
C99    C     0.24997   0.75004   0.05395   0.00000  Uiso   1.00
C100   C     0.25032   0.25011   0.94642   0.00000  Uiso   1.00
C101   C     0.25000   0.60985   0.25001   0.00000  Uiso   1.00
C102   C     0.74996   0.74988   0.05360   0.00000  Uiso   1.00
C103   C     0.24992   0.75016   0.94637   0.00000  Uiso   1.00
C104   C     0.75019   0.24992   0.05361   0.00000  Uiso   1.00
C105   C     0.13626   0.44252   0.29264   0.00000  Uiso   1.00
C106   C     0.70889   0.55894   0.86381   0.00000  Uiso   1.00
C107   C     0.28745   0.44201   0.86506   0.00000  Uiso   1.00
C108   C     0.86251   0.55787   0.29485   0.00000  Uiso   1.00
C109   C     0.81578   0.44881   0.85827   0.00000  Uiso   1.00
C110   C     0.14093   0.55092   0.18522   0.00000  Uiso   1.00
C111   C     0.85982   0.44948   0.18662   0.00000  Uiso   1.00
C112   C     0.60985   0.74999   0.75000   0.00000  Uiso   1.00
C113   C     0.74998   0.39014   0.75003   0.00000  Uiso   1.00
C114   C     0.17795   0.55013   0.85412   0.00000  Uiso   1.00
C115   C     0.44253   0.70743   0.86377   0.00000  Uiso   1.00
C116   C     0.55894   0.13620   0.29114   0.00000  Uiso   1.00
C117   C     0.44206   0.13483   0.71282   0.00000  Uiso   1.00
C118   C     0.55786   0.70519   0.13747   0.00000  Uiso   1.00
C119   C     0.44881   0.14171   0.18426   0.00000  Uiso   1.00
C120   C     0.55092   0.81486   0.85903   0.00000  Uiso   1.00
C121   C     0.44947   0.81341   0.14020   0.00000  Uiso   1.00
C122   C     0.55014   0.14609   0.82233   0.00000  Uiso   1.00
C123   C     0.70737   0.13626   0.55748   0.00000  Uiso   1.00
C124   C     0.75005   0.60998   0.74996   0.00000  Uiso   1.00
C125   C     0.13619   0.70888   0.44106   0.00000  Uiso   1.00
C126   C     0.13484   0.28718   0.55794   0.00000  Uiso   1.00
C127   C     0.70520   0.86253   0.44214   0.00000  Uiso   1.00
C128   C     0.14173   0.81577   0.55119   0.00000  Uiso   1.00
C129   C     0.81478   0.14093   0.44908   0.00000  Uiso   1.00
C130   C     0.81344   0.85978   0.55052   0.00000  Uiso   1.00
C131   C     0.14610   0.17766   0.44986   0.00000  Uiso   1.00
C132   C     0.68668   0.94966   0.14025   0.00000  Uiso   1.00
C133   C     0.35401   0.05096   0.82206   0.00000  Uiso   1.00
C134   C     0.14063   0.94917   0.31428   0.00000  Uiso   1.00
C135   C     0.24996   0.39001   0.25000   0.00000  Uiso   1.00
C136   C     0.81564   0.05084   0.64146   0.00000  Uiso   1.00
C137   C     0.36619   0.94119   0.71543   0.00000  Uiso   1.00
C138   C     0.79552   0.05866   0.13815   0.00000  Uiso   1.00
C139   C     0.70775   0.94286   0.63623   0.00000  Uiso   1.00
C140   C     0.13696   0.05806   0.20639   0.00000  Uiso   1.00
C141   C     0.68447   0.05111   0.85831   0.00000  Uiso   1.00
C142   C     0.35795   0.94970   0.18376   0.00000  Uiso   1.00
C143   C     0.14807   0.05025   0.67528   0.00000  Uiso   1.00
C144   C     0.81228   0.94930   0.36045   0.00000  Uiso   1.00
C145   C     0.36332   0.05786   0.29263   0.00000  Uiso   1.00
C146   C     0.74998   0.39014   0.24998   0.00000  Uiso   1.00
C147   C     0.79115   0.94100   0.86392   0.00000  Uiso   1.00
C148   C     0.70463   0.05820   0.36236   0.00000  Uiso   1.00
C149   C     0.13415   0.94100   0.78415   0.00000  Uiso   1.00
C150   C     0.94966   0.85976   0.31329   0.00000  Uiso   1.00
C151   C     0.05096   0.17794   0.64599   0.00000  Uiso   1.00
C152   C     0.94917   0.68572   0.85938   0.00000  Uiso   1.00
C153   C     0.05083   0.35855   0.18438   0.00000  Uiso   1.00
C154   C     0.94119   0.28457   0.63381   0.00000  Uiso   1.00
C155   C     0.05866   0.86184   0.20446   0.00000  Uiso   1.00
C156   C     0.94286   0.36376   0.29227   0.00000  Uiso   1.00
C157   C     0.24999   0.60984   0.74999   0.00000  Uiso   1.00
C158   C     0.05805   0.79362   0.86304   0.00000  Uiso   1.00
C159   C     0.05111   0.14168   0.31552   0.00000  Uiso   1.00
C160   C     0.94971   0.81624   0.64205   0.00000  Uiso   1.00
C161   C     0.05026   0.32470   0.85194   0.00000  Uiso   1.00
C162   C     0.94930   0.63953   0.18775   0.00000  Uiso   1.00
C163   C     0.05786   0.70737   0.63667   0.00000  Uiso   1.00
C164   C     0.94099   0.13609   0.20883   0.00000  Uiso   1.00
C165   C     0.05821   0.63765   0.29539   0.00000  Uiso   1.00
C166   C     0.94099   0.21584   0.86585   0.00000  Uiso   1.00
C167   C     0.85976   0.68669   0.05034   0.00000  Uiso   1.00
C168   C     0.89015   0.74999   0.25003   0.00000  Uiso   1.00
C169   C     0.17804   0.35408   0.94904   0.00000  Uiso   1.00
C170   C     0.68572   0.14063   0.05083   0.00000  Uiso   1.00
C171   C     0.35854   0.81563   0.94917   0.00000  Uiso   1.00
C172   C     0.28465   0.36617   0.05882   0.00000  Uiso   1.00
C173   C     0.86184   0.79553   0.94134   0.00000  Uiso   1.00
C174   C     0.36376   0.70773   0.05714   0.00000  Uiso   1.00
C175   C     0.79361   0.13696   0.94194   0.00000  Uiso   1.00
C176   C     0.14165   0.68452   0.94889   0.00000  Uiso   1.00
C177   C     0.81625   0.35794   0.05030   0.00000  Uiso   1.00
C178   C     0.32465   0.14803   0.94975   0.00000  Uiso   1.00
C179   C     0.10984   0.25008   0.74996   0.00000  Uiso   1.00
C180   C     0.63954   0.81227   0.05070   0.00000  Uiso   1.00
C181   C     0.70739   0.36333   0.94213   0.00000  Uiso   1.00
C182   C     0.13610   0.79120   0.05901   0.00000  Uiso   1.00
C183   C     0.63764   0.70464   0.94179   0.00000  Uiso   1.00
C184   C     0.21577   0.13417   0.05900   0.00000  Uiso   1.00
C185   C     0.68447   0.44927   0.64153   0.00000  Uiso   1.00
C186   C     0.35833   0.55016   0.31562   0.00000  Uiso   1.00
C187   C     0.64064   0.44895   0.31386   0.00000  Uiso   1.00
C188   C     0.32259   0.55055   0.64644   0.00000  Uiso   1.00
C189   C     0.36271   0.44161   0.20639   0.00000  Uiso   1.00
C190   C     0.25003   0.74997   0.10998   0.00000  Uiso   1.00
C191   C     0.79226   0.55726   0.63613   0.00000  Uiso   1.00
C192   C     0.21428   0.44086   0.63456   0.00000  Uiso   1.00
C193   C     0.63683   0.55890   0.20703   0.00000  Uiso   1.00
C194   C     0.44928   0.35850   0.31548   0.00000  Uiso   1.00
C195   C     0.55016   0.68422   0.64177   0.00000  Uiso   1.00
C196   C     0.44895   0.68610   0.35933   0.00000  Uiso   1.00
C197   C     0.55057   0.35334   0.67713   0.00000  Uiso   1.00
C198   C     0.44165   0.79350   0.63723   0.00000  Uiso   1.00
C199   C     0.55726   0.36384   0.20769   0.00000  Uiso   1.00
C200   C     0.44089   0.36555   0.78540   0.00000  Uiso   1.00
C201   C     0.75004   0.24995   0.89001   0.00000  Uiso   1.00
C202   C     0.55890   0.79294   0.36319   0.00000  Uiso   1.00
C203   C     0.35850   0.68451   0.55071   0.00000  Uiso   1.00
C204   C     0.68433   0.35830   0.44983   0.00000  Uiso   1.00
C205   C     0.68607   0.64068   0.55105   0.00000  Uiso   1.00
C206   C     0.35334   0.32287   0.44943   0.00000  Uiso   1.00
C207   C     0.79357   0.36273   0.55838   0.00000  Uiso   1.00
C208   C     0.36386   0.79229   0.44274   0.00000  Uiso   1.00
C209   C     0.36555   0.21460   0.55911   0.00000  Uiso   1.00
C210   C     0.79292   0.63680   0.44110   0.00000  Uiso   1.00
C211   C     0.10999   0.75004   0.75005   0.00000  Uiso   1.00
C212   C     0.24996   0.25006   0.61000   0.00000  Uiso   1.00
C213   C     0.89002   0.25003   0.25003   0.00000  Uiso   1.00
C214   C     0.74996   0.74998   0.89000   0.00000  Uiso   1.00
C215   C     0.25002   0.25004   0.11000   0.00000  Uiso   1.00
C216   C     0.89000   0.25002   0.74996   0.00000  Uiso   1.00
C217   C     0.11000   0.74996   0.25002   0.00000  Uiso   1.00
C218   C     0.25008   0.25004   0.89016   0.00000  Uiso   1.00
C219   C     0.74999   0.74997   0.10985   0.00000  Uiso   1.00
C220   C     0.10986   0.24996   0.24995   0.00000  Uiso   1.00
C221   C     0.89015   0.75005   0.75003   0.00000  Uiso   1.00
C222   C     0.75005   0.24997   0.10985   0.00000  Uiso   1.00
C223   C     0.74994   0.75004   0.39001   0.00000  Uiso   1.00
C224   C     0.24996   0.75005   0.89014   0.00000  Uiso   1.00
C225   C     0.74997   0.89002   0.74997   0.00000  Uiso   1.00
C226   C     0.24995   0.10999   0.24996   0.00000  Uiso   1.00
C227   C     0.74998   0.11000   0.25004   0.00000  Uiso   1.00
C228   C     0.25004   0.89000   0.74998   0.00000  Uiso   1.00
C229   C     0.25004   0.10984   0.74992   0.00000  Uiso   1.00
C230   C     0.74997   0.89015   0.25001   0.00000  Uiso   1.00
C231   C     0.24997   0.89015   0.24994   0.00000  Uiso   1.00
C232   C     0.75005   0.10986   0.75004   0.00000  Uiso   1.00
C233   C     0.20308   0.47286   0.24518   0.00000  Uiso   1.00
C234   C     0.60984   0.25001   0.75001   0.00000  Uiso   1.00
C235   C     0.75523   0.52715   0.79683   0.00000  Uiso   1.00
C236   C     0.24287   0.47282   0.79655   0.00000  Uiso   1.00
C237   C     0.79692   0.52715   0.24600   0.00000  Uiso   1.00
C238   C     0.75843   0.47328   0.79650   0.00000  Uiso   1.00
C239   C     0.20344   0.52674   0.24191   0.00000  Uiso   1.00
C240   C     0.79661   0.47328   0.24264   0.00000  Uiso   1.00
C241   C     0.23920   0.52662   0.79596   0.00000  Uiso   1.00
C242   C     0.47286   0.75485   0.79692   0.00000  Uiso   1.00
C243   C     0.52715   0.20316   0.24479   0.00000  Uiso   1.00
C244   C     0.47282   0.20347   0.75725   0.00000  Uiso   1.00
C245   C     0.39015   0.75002   0.25002   0.00000  Uiso   1.00
C246   C     0.52715   0.75402   0.20308   0.00000  Uiso   1.00
C247   C     0.47328   0.20350   0.24159   0.00000  Uiso   1.00
C248   C     0.52674   0.75813   0.79655   0.00000  Uiso   1.00
C249   C     0.47328   0.75737   0.20339   0.00000  Uiso   1.00
C250   C     0.52662   0.20407   0.76092   0.00000  Uiso   1.00
C251   C     0.75482   0.20308   0.52714   0.00000  Uiso   1.00
C252   C     0.20316   0.75522   0.47285   0.00000  Uiso   1.00
C253   C     0.20347   0.24275   0.52718   0.00000  Uiso   1.00
C254   C     0.75402   0.79692   0.47285   0.00000  Uiso   1.00
C255   C     0.20350   0.75842   0.52672   0.00000  Uiso   1.00
C256   C     0.74999   0.25000   0.39015   0.00000  Uiso   1.00
C257   C     0.75810   0.20344   0.47325   0.00000  Uiso   1.00
C258   C     0.75738   0.79660   0.52672   0.00000  Uiso   1.00
C259   C     0.20407   0.23908   0.47338   0.00000  Uiso   1.00
C260   C     0.74276   0.97335   0.20337   0.00000  Uiso   1.00
C261   C     0.29600   0.02667   0.76088   0.00000  Uiso   1.00
C262   C     0.20336   0.97326   0.25780   0.00000  Uiso   1.00
C263   C     0.75849   0.02676   0.70360   0.00000  Uiso   1.00
C264   C     0.29656   0.97284   0.75777   0.00000  Uiso   1.00
C265   C     0.74626   0.02721   0.20312   0.00000  Uiso   1.00
C266   C     0.75513   0.97290   0.70321   0.00000  Uiso   1.00
C267   C     0.24997   0.74998   0.60986   0.00000  Uiso   1.00
C268   C     0.20303   0.02714   0.25447   0.00000  Uiso   1.00
C269   C     0.74185   0.02671   0.79656   0.00000  Uiso   1.00
C270   C     0.29640   0.97334   0.24157   0.00000  Uiso   1.00
C271   C     0.20433   0.02657   0.73815   0.00000  Uiso   1.00
C272   C     0.75690   0.97327   0.29674   0.00000  Uiso   1.00
C273   C     0.29675   0.02718   0.24510   0.00000  Uiso   1.00
C274   C     0.74494   0.97283   0.79688   0.00000  Uiso   1.00
C275   C     0.75365   0.02716   0.29702   0.00000  Uiso   1.00
C276   C     0.20370   0.97280   0.74179   0.00000  Uiso   1.00
C277   C     0.97335   0.79663   0.25723   0.00000  Uiso   1.00
C278   C     0.39001   0.74999   0.75004   0.00000  Uiso   1.00
C279   C     0.02667   0.23912   0.70401   0.00000  Uiso   1.00
C280   C     0.97326   0.74220   0.79664   0.00000  Uiso   1.00
C281   C     0.02676   0.29640   0.24151   0.00000  Uiso   1.00
C282   C     0.97284   0.24222   0.70344   0.00000  Uiso   1.00
C283   C     0.02721   0.79688   0.25373   0.00000  Uiso   1.00
C284   C     0.97290   0.29679   0.24488   0.00000  Uiso   1.00
C285   C     0.02714   0.74554   0.79697   0.00000  Uiso   1.00
C286   C     0.02671   0.20344   0.25814   0.00000  Uiso   1.00
C287   C     0.97334   0.75843   0.70360   0.00000  Uiso   1.00
C288   C     0.02657   0.26184   0.79567   0.00000  Uiso   1.00
H1     H     0.12839   0.48121   0.30947   0.00000  Uiso   1.00
H2     H     0.86981   0.51930   0.31222   0.00000  Uiso   1.00
H3     H     0.36931   0.98957   0.17292   0.00000  Uiso   1.00
H4     H     0.32740   0.93533   0.15721   0.00000  Uiso   1.00
H5     H     0.39230   0.92483   0.17847   0.00000  Uiso   1.00
H6     H     0.13835   0.01032   0.66316   0.00000  Uiso   1.00
H7     H     0.18067   0.06529   0.65169   0.00000  Uiso   1.00
H8     H     0.11398   0.07466   0.66708   0.00000  Uiso   1.00
H9     H     0.82171   0.98854   0.37479   0.00000  Uiso   1.00
H10    H     0.84029   0.93755   0.33010   0.00000  Uiso   1.00
H11    H     0.81683   0.92221   0.39325   0.00000  Uiso   1.00
H12    H     0.37091   0.01928   0.30984   0.00000  Uiso   1.00
H13    H     0.83595   0.58063   0.31975   0.00000  Uiso   1.00
H14    H     0.33731   0.08066   0.31804   0.00000  Uiso   1.00
H15    H     0.40070   0.07853   0.29054   0.00000  Uiso   1.00
H16    H     0.80854   0.97922   0.87283   0.00000  Uiso   1.00
H17    H     0.81680   0.91872   0.83767   0.00000  Uiso   1.00
H18    H     0.78829   0.91921   0.90062   0.00000  Uiso   1.00
H19    H     0.68714   0.01972   0.36985   0.00000  Uiso   1.00
H20    H     0.67990   0.08086   0.33557   0.00000  Uiso   1.00
H21    H     0.70589   0.07918   0.39960   0.00000  Uiso   1.00
H22    H     0.12448   0.97919   0.80118   0.00000  Uiso   1.00
H23    H     0.15886   0.91849   0.81109   0.00000  Uiso   1.00
H24    H     0.89988   0.57860   0.29352   0.00000  Uiso   1.00
H25    H     0.09756   0.91938   0.77921   0.00000  Uiso   1.00
H26    H     0.98952   0.87145   0.32380   0.00000  Uiso   1.00
H27    H     0.93530   0.82997   0.34070   0.00000  Uiso   1.00
H28    H     0.92477   0.89423   0.31759   0.00000  Uiso   1.00
H29    H     0.01197   0.16699   0.63205   0.00000  Uiso   1.00
H30    H     0.06224   0.15313   0.67919   0.00000  Uiso   1.00
H31    H     0.07862   0.17027   0.61427   0.00000  Uiso   1.00
H32    H     0.98866   0.67552   0.87247   0.00000  Uiso   1.00
H33    H     0.93618   0.65839   0.82889   0.00000  Uiso   1.00
H34    H     0.92295   0.68097   0.89284   0.00000  Uiso   1.00
H35    H     0.82655   0.48821   0.87115   0.00000  Uiso   1.00
H36    H     0.01133   0.37150   0.17402   0.00000  Uiso   1.00
H37    H     0.06387   0.32779   0.15737   0.00000  Uiso   1.00
H38    H     0.07702   0.39199   0.17928   0.00000  Uiso   1.00
H39    H     0.97944   0.30136   0.62391   0.00000  Uiso   1.00
H40    H     0.91895   0.31170   0.65855   0.00000  Uiso   1.00
H41    H     0.91939   0.27965   0.59733   0.00000  Uiso   1.00
H42    H     0.02032   0.86895   0.18651   0.00000  Uiso   1.00
H43    H     0.08172   0.83497   0.18018   0.00000  Uiso   1.00
H44    H     0.07942   0.89921   0.20561   0.00000  Uiso   1.00
H45    H     0.98164   0.37144   0.30900   0.00000  Uiso   1.00
H46    H     0.84247   0.43559   0.82731   0.00000  Uiso   1.00
H47    H     0.92031   0.33796   0.31813   0.00000  Uiso   1.00
H48    H     0.92225   0.40115   0.29015   0.00000  Uiso   1.00
H49    H     0.01954   0.81100   0.87063   0.00000  Uiso   1.00
H50    H     0.08080   0.81875   0.83668   0.00000  Uiso   1.00
H51    H     0.07888   0.79186   0.90033   0.00000  Uiso   1.00
H52    H     0.01201   0.12751   0.32576   0.00000  Uiso   1.00
H53    H     0.06290   0.17308   0.34234   0.00000  Uiso   1.00
H54    H     0.07841   0.10922   0.32103   0.00000  Uiso   1.00
H55    H     0.98958   0.82708   0.63069   0.00000  Uiso   1.00
H56    H     0.93533   0.84279   0.67260   0.00000  Uiso   1.00
H57    H     0.82089   0.42255   0.89165   0.00000  Uiso   1.00
H58    H     0.92484   0.82153   0.60770   0.00000  Uiso   1.00
H59    H     0.01033   0.33683   0.86167   0.00000  Uiso   1.00
H60    H     0.06529   0.34830   0.81935   0.00000  Uiso   1.00
H61    H     0.07467   0.33289   0.88603   0.00000  Uiso   1.00
H62    H     0.98854   0.62519   0.17832   0.00000  Uiso   1.00
H63    H     0.93754   0.66987   0.15974   0.00000  Uiso   1.00
H64    H     0.92221   0.60673   0.18321   0.00000  Uiso   1.00
H65    H     0.01928   0.69016   0.62908   0.00000  Uiso   1.00
H66    H     0.08065   0.68195   0.66269   0.00000  Uiso   1.00
H67    H     0.07853   0.70946   0.59930   0.00000  Uiso   1.00
H68    H     0.12781   0.51146   0.17493   0.00000  Uiso   1.00
H69    H     0.97921   0.12718   0.19144   0.00000  Uiso   1.00
H70    H     0.91871   0.16234   0.18319   0.00000  Uiso   1.00
H71    H     0.91920   0.09938   0.21169   0.00000  Uiso   1.00
H72    H     0.01974   0.63017   0.31290   0.00000  Uiso   1.00
H73    H     0.08087   0.66445   0.32011   0.00000  Uiso   1.00
H74    H     0.07919   0.60041   0.29414   0.00000  Uiso   1.00
H75    H     0.97918   0.19880   0.87552   0.00000  Uiso   1.00
H76    H     0.91848   0.18890   0.84114   0.00000  Uiso   1.00
H77    H     0.91937   0.22078   0.90244   0.00000  Uiso   1.00
H78    H     0.87145   0.67619   0.01048   0.00000  Uiso   1.00
H79    H     0.17154   0.56389   0.15801   0.00000  Uiso   1.00
H80    H     0.82996   0.65929   0.06469   0.00000  Uiso   1.00
H81    H     0.89423   0.68239   0.07524   0.00000  Uiso   1.00
H82    H     0.16710   0.36804   0.98802   0.00000  Uiso   1.00
H83    H     0.15319   0.32090   0.93776   0.00000  Uiso   1.00
H84    H     0.17040   0.38581   0.92137   0.00000  Uiso   1.00
H85    H     0.67552   0.12752   0.01134   0.00000  Uiso   1.00
H86    H     0.65838   0.17111   0.06381   0.00000  Uiso   1.00
H87    H     0.68096   0.10717   0.07706   0.00000  Uiso   1.00
H88    H     0.37149   0.82598   0.98867   0.00000  Uiso   1.00
H89    H     0.32778   0.84263   0.93614   0.00000  Uiso   1.00
H90    H     0.10752   0.57719   0.18037   0.00000  Uiso   1.00
H91    H     0.39198   0.82073   0.92297   0.00000  Uiso   1.00
H92    H     0.30146   0.37605   0.02058   0.00000  Uiso   1.00
H93    H     0.31176   0.34140   0.08107   0.00000  Uiso   1.00
H94    H     0.27976   0.40264   0.08062   0.00000  Uiso   1.00
H95    H     0.86895   0.81347   0.97968   0.00000  Uiso   1.00
H96    H     0.83498   0.81981   0.91829   0.00000  Uiso   1.00
H97    H     0.89921   0.79437   0.92058   0.00000  Uiso   1.00
H98    H     0.37144   0.69100   0.01836   0.00000  Uiso   1.00
H99    H     0.33796   0.68187   0.07969   0.00000  Uiso   1.00
H100   H     0.40115   0.70985   0.07776   0.00000  Uiso   1.00
H101   H     0.87412   0.48874   0.17718   0.00000  Uiso   1.00
H102   H     0.81099   0.12936   0.98045   0.00000  Uiso   1.00
H103   H     0.81874   0.16332   0.91920   0.00000  Uiso   1.00
H104   H     0.79183   0.09966   0.92111   0.00000  Uiso   1.00
H105   H     0.12744   0.67431   0.98799   0.00000  Uiso   1.00
H106   H     0.17305   0.65768   0.93714   0.00000  Uiso   1.00
H107   H     0.10921   0.67902   0.92157   0.00000  Uiso   1.00
H108   H     0.82710   0.36931   0.01044   0.00000  Uiso   1.00
H109   H     0.84279   0.32738   0.06466   0.00000  Uiso   1.00
H110   H     0.82155   0.39228   0.07518   0.00000  Uiso   1.00
H111   H     0.33677   0.13830   0.98969   0.00000  Uiso   1.00
H112   H     0.16225   0.42007   0.31839   0.00000  Uiso   1.00
H113   H     0.82918   0.43786   0.15886   0.00000  Uiso   1.00
H114   H     0.34827   0.18060   0.93471   0.00000  Uiso   1.00
H115   H     0.33283   0.11392   0.92536   0.00000  Uiso   1.00
H116   H     0.62521   0.82171   0.01146   0.00000  Uiso   1.00
H117   H     0.66989   0.84028   0.06246   0.00000  Uiso   1.00
H118   H     0.60675   0.81682   0.07779   0.00000  Uiso   1.00
H119   H     0.69017   0.37092   0.98071   0.00000  Uiso   1.00
H120   H     0.68197   0.33732   0.91934   0.00000  Uiso   1.00
H121   H     0.70949   0.40070   0.92147   0.00000  Uiso   1.00
H122   H     0.12719   0.80859   0.02079   0.00000  Uiso   1.00
H123   H     0.16236   0.81683   0.08129   0.00000  Uiso   1.00
H124   H     0.89252   0.42236   0.18167   0.00000  Uiso   1.00
H125   H     0.09939   0.78834   0.08080   0.00000  Uiso   1.00
H126   H     0.63014   0.68714   0.98026   0.00000  Uiso   1.00
H127   H     0.66443   0.67991   0.91913   0.00000  Uiso   1.00
H128   H     0.60040   0.70590   0.92081   0.00000  Uiso   1.00
H129   H     0.19874   0.12451   0.02081   0.00000  Uiso   1.00
H130   H     0.18884   0.15890   0.08150   0.00000  Uiso   1.00
H131   H     0.22069   0.09758   0.08062   0.00000  Uiso   1.00
H132   H     0.67468   0.48846   0.62725   0.00000  Uiso   1.00
H133   H     0.65737   0.43775   0.67280   0.00000  Uiso   1.00
H134   H     0.67889   0.42199   0.60906   0.00000  Uiso   1.00
H135   H     0.16650   0.51023   0.86478   0.00000  Uiso   1.00
H136   H     0.36956   0.51024   0.32639   0.00000  Uiso   1.00
H137   H     0.32799   0.56466   0.34234   0.00000  Uiso   1.00
H138   H     0.39284   0.57486   0.32074   0.00000  Uiso   1.00
H139   H     0.62630   0.48807   0.32378   0.00000  Uiso   1.00
H140   H     0.67156   0.43720   0.34124   0.00000  Uiso   1.00
H141   H     0.60807   0.42167   0.31887   0.00000  Uiso   1.00
H142   H     0.33443   0.51077   0.63582   0.00000  Uiso   1.00
H143   H     0.34693   0.56505   0.67873   0.00000  Uiso   1.00
H144   H     0.33004   0.57553   0.61256   0.00000  Uiso   1.00
H145   H     0.37010   0.48003   0.18871   0.00000  Uiso   1.00
H146   H     0.15321   0.56451   0.82209   0.00000  Uiso   1.00
H147   H     0.33635   0.41860   0.18153   0.00000  Uiso   1.00
H148   H     0.40009   0.42093   0.20817   0.00000  Uiso   1.00
H149   H     0.79006   0.57789   0.59876   0.00000  Uiso   1.00
H150   H     0.80903   0.51851   0.62841   0.00000  Uiso   1.00
H151   H     0.81812   0.57983   0.66190   0.00000  Uiso   1.00
H152   H     0.19706   0.47902   0.62506   0.00000  Uiso   1.00
H153   H     0.18770   0.41836   0.65968   0.00000  Uiso   1.00
H154   H     0.21877   0.41920   0.59795   0.00000  Uiso   1.00
H155   H     0.62819   0.52065   0.18959   0.00000  Uiso   1.00
H156   H     0.66350   0.58113   0.18176   0.00000  Uiso   1.00
H157   H     0.17064   0.57498   0.88811   0.00000  Uiso   1.00
H158   H     0.60009   0.58070   0.20923   0.00000  Uiso   1.00
H159   H     0.48846   0.37278   0.32526   0.00000  Uiso   1.00
H160   H     0.43775   0.32725   0.34259   0.00000  Uiso   1.00
H161   H     0.42200   0.39098   0.32105   0.00000  Uiso   1.00
H162   H     0.51023   0.67344   0.63056   0.00000  Uiso   1.00
H163   H     0.56465   0.65755   0.67216   0.00000  Uiso   1.00
H164   H     0.57486   0.67904   0.60729   0.00000  Uiso   1.00
H165   H     0.48807   0.67617   0.37365   0.00000  Uiso   1.00
H166   H     0.43718   0.65874   0.32840   0.00000  Uiso   1.00
H167   H     0.42168   0.68108   0.39191   0.00000  Uiso   1.00
H168   H     0.48122   0.69062   0.87165   0.00000  Uiso   1.00
H169   H     0.51080   0.36393   0.66523   0.00000  Uiso   1.00
H170   H     0.56507   0.32097   0.65290   0.00000  Uiso   1.00
H171   H     0.57556   0.38719   0.66958   0.00000  Uiso   1.00
H172   H     0.48007   0.81114   0.62981   0.00000  Uiso   1.00
H173   H     0.41865   0.81841   0.66357   0.00000  Uiso   1.00
H174   H     0.42096   0.79168   0.59986   0.00000  Uiso   1.00
H175   H     0.57790   0.40121   0.20987   0.00000  Uiso   1.00
H176   H     0.51852   0.37157   0.19091   0.00000  Uiso   1.00
H177   H     0.57983   0.33805   0.18184   0.00000  Uiso   1.00
H178   H     0.47905   0.37512   0.80257   0.00000  Uiso   1.00
H179   H     0.42008   0.68166   0.83779   0.00000  Uiso   1.00
H180   H     0.41841   0.34051   0.81208   0.00000  Uiso   1.00
H181   H     0.41921   0.40214   0.78082   0.00000  Uiso   1.00
H182   H     0.52065   0.81037   0.37183   0.00000  Uiso   1.00
H183   H     0.58112   0.81821   0.33652   0.00000  Uiso   1.00
H184   H     0.58071   0.79072   0.39992   0.00000  Uiso   1.00
H185   H     0.37281   0.67475   0.51154   0.00000  Uiso   1.00
H186   H     0.32723   0.65739   0.56220   0.00000  Uiso   1.00
H187   H     0.39095   0.67893   0.57802   0.00000  Uiso   1.00
H188   H     0.67357   0.36953   0.48976   0.00000  Uiso   1.00
H189   H     0.65763   0.32795   0.43534   0.00000  Uiso   1.00
H190   H     0.42167   0.70954   0.90103   0.00000  Uiso   1.00
H191   H     0.67920   0.39280   0.42513   0.00000  Uiso   1.00
H192   H     0.67613   0.62638   0.51193   0.00000  Uiso   1.00
H193   H     0.65872   0.67162   0.56282   0.00000  Uiso   1.00
H194   H     0.68104   0.60811   0.57831   0.00000  Uiso   1.00
H195   H     0.36394   0.33476   0.48920   0.00000  Uiso   1.00
H196   H     0.32097   0.34710   0.43494   0.00000  Uiso   1.00
H197   H     0.38719   0.33042   0.42443   0.00000  Uiso   1.00
H198   H     0.81125   0.37013   0.51996   0.00000  Uiso   1.00
H199   H     0.81845   0.33637   0.58139   0.00000  Uiso   1.00
H200   H     0.79178   0.40011   0.57907   0.00000  Uiso   1.00
H201   H     0.52070   0.12734   0.30853   0.00000  Uiso   1.00
H202   H     0.40123   0.79010   0.42210   0.00000  Uiso   1.00
H203   H     0.37158   0.80906   0.48149   0.00000  Uiso   1.00
H204   H     0.33808   0.81815   0.42017   0.00000  Uiso   1.00
H205   H     0.37511   0.19742   0.52096   0.00000  Uiso   1.00
H206   H     0.34051   0.18793   0.58160   0.00000  Uiso   1.00
H207   H     0.40214   0.21918   0.58079   0.00000  Uiso   1.00
H208   H     0.81035   0.62815   0.47935   0.00000  Uiso   1.00
H209   H     0.81820   0.66347   0.41888   0.00000  Uiso   1.00
H210   H     0.79069   0.60007   0.41929   0.00000  Uiso   1.00
H211   H     0.58123   0.16249   0.31674   0.00000  Uiso   1.00
H212   H     0.09900   0.42166   0.29055   0.00000  Uiso   1.00
H213   H     0.58070   0.09948   0.28836   0.00000  Uiso   1.00
H214   H     0.48057   0.12681   0.69564   0.00000  Uiso   1.00
H215   H     0.41888   0.15957   0.68648   0.00000  Uiso   1.00
H216   H     0.42172   0.09743   0.71665   0.00000  Uiso   1.00
H217   H     0.51928   0.68784   0.13014   0.00000  Uiso   1.00
H218   H     0.58059   0.68026   0.16401   0.00000  Uiso   1.00
H219   H     0.57859   0.70653   0.10010   0.00000  Uiso   1.00
H220   H     0.48821   0.12882   0.17349   0.00000  Uiso   1.00
H221   H     0.43559   0.17266   0.15756   0.00000  Uiso   1.00
H222   H     0.42255   0.10833   0.17915   0.00000  Uiso   1.00
H223   H     0.69150   0.52071   0.87267   0.00000  Uiso   1.00
H224   H     0.51146   0.82516   0.87214   0.00000  Uiso   1.00
H225   H     0.56389   0.84205   0.82840   0.00000  Uiso   1.00
H226   H     0.57719   0.81973   0.89243   0.00000  Uiso   1.00
H227   H     0.48874   0.82287   0.12592   0.00000  Uiso   1.00
H228   H     0.43783   0.84115   0.17084   0.00000  Uiso   1.00
H229   H     0.42237   0.81837   0.10749   0.00000  Uiso   1.00
H230   H     0.51025   0.13546   0.83382   0.00000  Uiso   1.00
H231   H     0.56453   0.17820   0.84697   0.00000  Uiso   1.00
H232   H     0.57500   0.11212   0.82973   0.00000  Uiso   1.00
H233   H     0.69055   0.12839   0.51879   0.00000  Uiso   1.00
H234   H     0.68329   0.58123   0.83753   0.00000  Uiso   1.00
H235   H     0.68162   0.16225   0.57993   0.00000  Uiso   1.00
H236   H     0.70947   0.09900   0.57835   0.00000  Uiso   1.00
H237   H     0.12734   0.69149   0.47929   0.00000  Uiso   1.00
H238   H     0.16247   0.68328   0.41877   0.00000  Uiso   1.00
H239   H     0.09947   0.71167   0.41930   0.00000  Uiso   1.00
H240   H     0.12681   0.30436   0.51943   0.00000  Uiso   1.00
H241   H     0.15958   0.31352   0.58112   0.00000  Uiso   1.00
H242   H     0.09743   0.28335   0.57829   0.00000  Uiso   1.00
H243   H     0.68786   0.86987   0.48072   0.00000  Uiso   1.00
H244   H     0.68027   0.83599   0.41941   0.00000  Uiso   1.00
H245   H     0.71169   0.58070   0.90053   0.00000  Uiso   1.00
H246   H     0.70654   0.89990   0.42141   0.00000  Uiso   1.00
H247   H     0.12885   0.82655   0.51179   0.00000  Uiso   1.00
H248   H     0.17269   0.84245   0.56441   0.00000  Uiso   1.00
H249   H     0.10835   0.82088   0.57745   0.00000  Uiso   1.00
H250   H     0.82507   0.12780   0.48854   0.00000  Uiso   1.00
H251   H     0.84200   0.17154   0.43612   0.00000  Uiso   1.00
H252   H     0.81963   0.10753   0.42280   0.00000  Uiso   1.00
H253   H     0.82290   0.87407   0.51126   0.00000  Uiso   1.00
H254   H     0.84117   0.82913   0.56216   0.00000  Uiso   1.00
H255   H     0.81841   0.89249   0.57763   0.00000  Uiso   1.00
H256   H     0.30467   0.48051   0.87307   0.00000  Uiso   1.00
H257   H     0.13546   0.16618   0.48975   0.00000  Uiso   1.00
H258   H     0.17820   0.15302   0.43548   0.00000  Uiso   1.00
H259   H     0.11213   0.17025   0.42500   0.00000  Uiso   1.00
H260   H     0.67617   0.98952   0.12856   0.00000  Uiso   1.00
H261   H     0.65928   0.93531   0.17005   0.00000  Uiso   1.00
H262   H     0.68237   0.92477   0.10578   0.00000  Uiso   1.00
H263   H     0.36796   0.01197   0.83300   0.00000  Uiso   1.00
H264   H     0.32081   0.06223   0.84687   0.00000  Uiso   1.00
H265   H     0.38573   0.07862   0.82973   0.00000  Uiso   1.00
H266   H     0.12753   0.98866   0.32449   0.00000  Uiso   1.00
H267   H     0.31372   0.41883   0.84024   0.00000  Uiso   1.00
H268   H     0.17112   0.93619   0.34162   0.00000  Uiso   1.00
H269   H     0.10717   0.92294   0.31904   0.00000  Uiso   1.00
H270   H     0.82600   0.01133   0.62853   0.00000  Uiso   1.00
H271   H     0.84264   0.06387   0.67223   0.00000  Uiso   1.00
H272   H     0.82074   0.07702   0.60802   0.00000  Uiso   1.00
H273   H     0.37609   0.97943   0.69864   0.00000  Uiso   1.00
H274   H     0.34145   0.91895   0.68830   0.00000  Uiso   1.00
H275   H     0.40267   0.91938   0.72035   0.00000  Uiso   1.00
H276   H     0.81347   0.02032   0.13105   0.00000  Uiso   1.00
H277   H     0.81980   0.08172   0.16502   0.00000  Uiso   1.00
H278   H     0.28371   0.42164   0.90246   0.00000  Uiso   1.00
H279   H     0.79436   0.07942   0.10079   0.00000  Uiso   1.00
H280   H     0.69102   0.98164   0.62854   0.00000  Uiso   1.00
H281   H     0.68189   0.92031   0.66203   0.00000  Uiso   1.00
H282   H     0.70988   0.92225   0.59884   0.00000  Uiso   1.00
H283   H     0.12936   0.01955   0.18901   0.00000  Uiso   1.00
H284   H     0.16332   0.08080   0.18126   0.00000  Uiso   1.00
H285   H     0.09966   0.07888   0.20816   0.00000  Uiso   1.00
H286   H     0.67423   0.01201   0.87248   0.00000  Uiso   1.00
H287   H     0.65765   0.06290   0.82691   0.00000  Uiso   1.00
H288   H     0.67895   0.07841   0.89077   0.00000  Uiso   1.00
O1     O     0.25000   0.25000   0.25000   0.00000  Uiso   1.00
O2     O     0.63420   0.71971   0.71971   0.00000  Uiso   1.00
O3     O     0.21971   0.36580   0.21971   0.00000  Uiso   1.00
O4     O     0.21971   0.63420   0.21971   0.00000  Uiso   1.00
O5     O     0.78029   0.36580   0.78029   0.00000  Uiso   1.00
O6     O     0.21971   0.36580   0.78029   0.00000  Uiso   1.00
O7     O     0.78029   0.63420   0.21971   0.00000  Uiso   1.00
O8     O     0.15680   0.44643   0.24245   0.00000  Uiso   1.00
O9     O     0.75886   0.55360   0.84304   0.00000  Uiso   1.00
O10    O     0.23807   0.44653   0.84274   0.00000  Uiso   1.00
O11    O     0.84324   0.55357   0.24418   0.00000  Uiso   1.00
O12    O     0.76374   0.44665   0.84248   0.00000  Uiso   1.00
O13    O     0.28029   0.28029   0.63420   0.00000  Uiso   1.00
O14    O     0.15746   0.55345   0.23701   0.00000  Uiso   1.00
O15    O     0.84263   0.44658   0.23817   0.00000  Uiso   1.00
O16    O     0.23084   0.55308   0.84158   0.00000  Uiso   1.00
O17    O     0.44643   0.75761   0.84319   0.00000  Uiso   1.00
O18    O     0.55360   0.15696   0.24117   0.00000  Uiso   1.00
O19    O     0.44654   0.15728   0.76214   0.00000  Uiso   1.00
O20    O     0.55357   0.75585   0.15676   0.00000  Uiso   1.00
O21    O     0.44665   0.15752   0.23629   0.00000  Uiso   1.00
O22    O     0.55345   0.76306   0.84254   0.00000  Uiso   1.00
O23    O     0.44658   0.76185   0.15737   0.00000  Uiso   1.00
O24    O     0.71971   0.71971   0.36580   0.00000  Uiso   1.00
O25    O     0.55307   0.15847   0.76940   0.00000  Uiso   1.00
O26    O     0.75757   0.15680   0.55357   0.00000  Uiso   1.00
O27    O     0.15696   0.75884   0.44640   0.00000  Uiso   1.00
O28    O     0.15728   0.23786   0.55346   0.00000  Uiso   1.00
O29    O     0.75586   0.84324   0.44643   0.00000  Uiso   1.00
O30    O     0.15752   0.76372   0.55335   0.00000  Uiso   1.00
O31    O     0.76299   0.15746   0.44655   0.00000  Uiso   1.00
O32    O     0.76187   0.84262   0.55342   0.00000  Uiso   1.00
O33    O     0.15847   0.23060   0.44693   0.00000  Uiso   1.00
O34    O     0.73830   0.94676   0.15728   0.00000  Uiso   1.00
O35    O     0.63420   0.28029   0.71971   0.00000  Uiso   1.00
O36    O     0.34156   0.05325   0.76913   0.00000  Uiso   1.00
O37    O     0.15736   0.94656   0.26256   0.00000  Uiso   1.00
O38    O     0.76374   0.05344   0.65764   0.00000  Uiso   1.00
O39    O     0.34253   0.94650   0.76410   0.00000  Uiso   1.00
O40    O     0.74468   0.05365   0.15680   0.00000  Uiso   1.00
O41    O     0.75791   0.94651   0.65692   0.00000  Uiso   1.00
O42    O     0.15673   0.05356   0.25684   0.00000  Uiso   1.00
O43    O     0.73650   0.05336   0.84252   0.00000  Uiso   1.00
O44    O     0.34237   0.94679   0.23584   0.00000  Uiso   1.00
O45    O     0.15889   0.05292   0.72858   0.00000  Uiso   1.00
O46    O     0.36580   0.71971   0.28029   0.00000  Uiso   1.00
O47    O     0.76088   0.94653   0.34279   0.00000  Uiso   1.00
O48    O     0.34303   0.05360   0.24237   0.00000  Uiso   1.00
O49    O     0.74123   0.94636   0.84307   0.00000  Uiso   1.00
O50    O     0.75536   0.05361   0.34333   0.00000  Uiso   1.00
O51    O     0.15770   0.94649   0.73545   0.00000  Uiso   1.00
O52    O     0.94676   0.84272   0.26168   0.00000  Uiso   1.00
O53    O     0.05325   0.23087   0.65844   0.00000  Uiso   1.00
O54    O     0.94656   0.73745   0.84264   0.00000  Uiso   1.00
O55    O     0.05344   0.34237   0.23628   0.00000  Uiso   1.00
O56    O     0.94650   0.23590   0.65747   0.00000  Uiso   1.00
O57    O     0.71971   0.28029   0.36580   0.00000  Uiso   1.00
O58    O     0.05365   0.84320   0.25530   0.00000  Uiso   1.00
O59    O     0.94651   0.34308   0.24211   0.00000  Uiso   1.00
O60    O     0.05356   0.74317   0.84327   0.00000  Uiso   1.00
O61    O     0.05336   0.15748   0.26349   0.00000  Uiso   1.00
O62    O     0.94679   0.76416   0.65762   0.00000  Uiso   1.00
O63    O     0.05292   0.27141   0.84112   0.00000  Uiso   1.00
O64    O     0.94653   0.65721   0.23914   0.00000  Uiso   1.00
O65    O     0.05360   0.75763   0.65697   0.00000  Uiso   1.00
O66    O     0.94636   0.15693   0.25876   0.00000  Uiso   1.00
O67    O     0.05361   0.65667   0.24466   0.00000  Uiso   1.00
O68    O     0.28029   0.71971   0.63420   0.00000  Uiso   1.00
O69    O     0.94649   0.26454   0.84230   0.00000  Uiso   1.00
O70    O     0.84272   0.73831   0.05324   0.00000  Uiso   1.00
O71    O     0.23095   0.34158   0.94674   0.00000  Uiso   1.00
O72    O     0.73744   0.15736   0.05344   0.00000  Uiso   1.00
O73    O     0.34236   0.76373   0.94656   0.00000  Uiso   1.00
O74    O     0.23596   0.34255   0.05350   0.00000  Uiso   1.00
O75    O     0.84320   0.74469   0.94635   0.00000  Uiso   1.00
O76    O     0.34308   0.75789   0.05348   0.00000  Uiso   1.00
O77    O     0.74315   0.15673   0.94644   0.00000  Uiso   1.00
O78    O     0.15747   0.73655   0.94663   0.00000  Uiso   1.00
O79    O     0.36580   0.71971   0.71971   0.00000  Uiso   1.00
O80    O     0.76417   0.34237   0.05321   0.00000  Uiso   1.00
O81    O     0.27136   0.15888   0.94708   0.00000  Uiso   1.00
O82    O     0.65721   0.76087   0.05347   0.00000  Uiso   1.00
O83    O     0.75765   0.34303   0.94640   0.00000  Uiso   1.00
O84    O     0.15692   0.74127   0.05364   0.00000  Uiso   1.00
O85    O     0.65667   0.75537   0.94639   0.00000  Uiso   1.00
O86    O     0.26448   0.15770   0.05351   0.00000  Uiso   1.00
O87    O     0.73639   0.44655   0.65762   0.00000  Uiso   1.00
O88    O     0.34249   0.55320   0.26364   0.00000  Uiso   1.00
O89    O     0.65735   0.44660   0.26212   0.00000  Uiso   1.00
O90    O     0.63420   0.28029   0.28029   0.00000  Uiso   1.00
O91    O     0.26954   0.55306   0.65845   0.00000  Uiso   1.00
O92    O     0.34311   0.44639   0.25689   0.00000  Uiso   1.00
O93    O     0.74213   0.55352   0.65689   0.00000  Uiso   1.00
O94    O     0.26328   0.44646   0.65745   0.00000  Uiso   1.00
O95    O     0.65685   0.55365   0.25730   0.00000  Uiso   1.00
O96    O     0.44655   0.34239   0.26357   0.00000  Uiso   1.00
O97    O     0.55319   0.73623   0.65753   0.00000  Uiso   1.00
O98    O     0.44660   0.73785   0.34265   0.00000  Uiso   1.00
O99    O     0.55305   0.34150   0.73021   0.00000  Uiso   1.00
O100   O     0.44640   0.74303   0.65690   0.00000  Uiso   1.00
O101   O     0.28029   0.71971   0.36580   0.00000  Uiso   1.00
O102   O     0.55352   0.34311   0.25782   0.00000  Uiso   1.00
O103   O     0.44647   0.34252   0.73647   0.00000  Uiso   1.00
O104   O     0.55365   0.74267   0.34315   0.00000  Uiso   1.00
O105   O     0.34238   0.73642   0.55345   0.00000  Uiso   1.00
O106   O     0.73633   0.34248   0.44680   0.00000  Uiso   1.00
O107   O     0.73783   0.65735   0.55340   0.00000  Uiso   1.00
O108   O     0.34150   0.26979   0.44695   0.00000  Uiso   1.00
O109   O     0.74309   0.34311   0.55360   0.00000  Uiso   1.00
O110   O     0.34311   0.74216   0.44648   0.00000  Uiso   1.00
O111   O     0.34252   0.26353   0.55353   0.00000  Uiso   1.00
O112   O     0.75000   0.75000   0.75000   0.00000  Uiso   1.00
O113   O     0.71971   0.28029   0.63420   0.00000  Uiso   1.00
O114   O     0.74266   0.65685   0.44635   0.00000  Uiso   1.00
O115   O     0.63420   0.71971   0.28029   0.00000  Uiso   1.00
O116   O     0.36580   0.28029   0.71971   0.00000  Uiso   1.00
O117   O     0.71971   0.71971   0.63420   0.00000  Uiso   1.00
O118   O     0.28029   0.28029   0.36580   0.00000  Uiso   1.00
O119   O     0.28029   0.36580   0.71971   0.00000  Uiso   1.00
O120   O     0.71971   0.63420   0.28029   0.00000  Uiso   1.00
O121   O     0.28029   0.63420   0.28029   0.00000  Uiso   1.00
O122   O     0.71971   0.36580   0.71971   0.00000  Uiso   1.00
O123   O     0.71971   0.63420   0.71971   0.00000  Uiso   1.00
O124   O     0.25000   0.25000   0.75000   0.00000  Uiso   1.00
O125   O     0.28029   0.36580   0.28029   0.00000  Uiso   1.00
O126   O     0.71971   0.36580   0.28029   0.00000  Uiso   1.00
O127   O     0.28029   0.63420   0.71971   0.00000  Uiso   1.00
O128   O     0.86580   0.78029   0.28029   0.00000  Uiso   1.00
O129   O     0.13420   0.21971   0.71971   0.00000  Uiso   1.00
O130   O     0.28029   0.78029   0.13420   0.00000  Uiso   1.00
O131   O     0.71971   0.21971   0.86580   0.00000  Uiso   1.00
O132   O     0.13420   0.78029   0.71971   0.00000  Uiso   1.00
O133   O     0.86580   0.21971   0.28029   0.00000  Uiso   1.00
O134   O     0.71971   0.78029   0.86580   0.00000  Uiso   1.00
O135   O     0.75000   0.75000   0.25000   0.00000  Uiso   1.00
O136   O     0.28029   0.21971   0.13420   0.00000  Uiso   1.00
O137   O     0.86580   0.21971   0.71971   0.00000  Uiso   1.00
O138   O     0.13420   0.78029   0.28029   0.00000  Uiso   1.00
O139   O     0.28029   0.21971   0.86580   0.00000  Uiso   1.00
O140   O     0.71971   0.78029   0.13420   0.00000  Uiso   1.00
O141   O     0.13420   0.21971   0.28029   0.00000  Uiso   1.00
O142   O     0.86580   0.78029   0.71971   0.00000  Uiso   1.00
O143   O     0.71971   0.21971   0.13420   0.00000  Uiso   1.00
O144   O     0.28029   0.78029   0.86580   0.00000  Uiso   1.00
O145   O     0.78029   0.71971   0.13420   0.00000  Uiso   1.00
O146   O     0.75000   0.25000   0.75000   0.00000  Uiso   1.00
O147   O     0.21971   0.28029   0.86580   0.00000  Uiso   1.00
O148   O     0.78029   0.86580   0.71971   0.00000  Uiso   1.00
O149   O     0.21971   0.13420   0.28029   0.00000  Uiso   1.00
O150   O     0.78029   0.28029   0.86580   0.00000  Uiso   1.00
O151   O     0.21971   0.71971   0.13420   0.00000  Uiso   1.00
O152   O     0.78029   0.13420   0.28029   0.00000  Uiso   1.00
O153   O     0.21971   0.86580   0.71971   0.00000  Uiso   1.00
O154   O     0.21971   0.28029   0.13420   0.00000  Uiso   1.00
O155   O     0.78029   0.71971   0.86580   0.00000  Uiso   1.00
O156   O     0.21971   0.13420   0.71971   0.00000  Uiso   1.00
O157   O     0.25000   0.75000   0.25000   0.00000  Uiso   1.00
O158   O     0.78029   0.86580   0.28029   0.00000  Uiso   1.00
O159   O     0.21971   0.71971   0.86580   0.00000  Uiso   1.00
O160   O     0.78029   0.28029   0.13420   0.00000  Uiso   1.00
O161   O     0.21971   0.86580   0.28029   0.00000  Uiso   1.00
O162   O     0.78029   0.13420   0.71971   0.00000  Uiso   1.00
O163   O     0.71971   0.86580   0.21971   0.00000  Uiso   1.00
O164   O     0.28029   0.13420   0.78029   0.00000  Uiso   1.00
O165   O     0.86580   0.28029   0.21971   0.00000  Uiso   1.00
O166   O     0.13420   0.71971   0.78029   0.00000  Uiso   1.00
O167   O     0.28029   0.13420   0.21971   0.00000  Uiso   1.00
O168   O     0.75000   0.25000   0.25000   0.00000  Uiso   1.00
O169   O     0.71971   0.86580   0.78029   0.00000  Uiso   1.00
O170   O     0.13420   0.71971   0.21971   0.00000  Uiso   1.00
O171   O     0.86580   0.28029   0.78029   0.00000  Uiso   1.00
O172   O     0.28029   0.86580   0.78029   0.00000  Uiso   1.00
O173   O     0.71971   0.13420   0.21971   0.00000  Uiso   1.00
O174   O     0.13420   0.28029   0.78029   0.00000  Uiso   1.00
O175   O     0.86580   0.71971   0.21971   0.00000  Uiso   1.00
O176   O     0.71971   0.13420   0.78029   0.00000  Uiso   1.00
O177   O     0.28029   0.86580   0.21971   0.00000  Uiso   1.00
O178   O     0.86580   0.71971   0.78029   0.00000  Uiso   1.00
O179   O     0.25000   0.75000   0.75000   0.00000  Uiso   1.00
O180   O     0.13420   0.28029   0.21971   0.00000  Uiso   1.00
O181   O     0.36580   0.78029   0.78029   0.00000  Uiso   1.00
O182   O     0.63420   0.21971   0.21971   0.00000  Uiso   1.00
O183   O     0.78029   0.78029   0.63420   0.00000  Uiso   1.00
O184   O     0.21971   0.21971   0.36580   0.00000  Uiso   1.00
O185   O     0.63420   0.78029   0.21971   0.00000  Uiso   1.00
O186   O     0.36580   0.21971   0.78029   0.00000  Uiso   1.00
O187   O     0.21971   0.78029   0.36580   0.00000  Uiso   1.00
O188   O     0.78029   0.21971   0.63420   0.00000  Uiso   1.00
O189   O     0.36580   0.21971   0.21971   0.00000  Uiso   1.00
O190   O     0.36580   0.28029   0.28029   0.00000  Uiso   1.00
O191   O     0.63420   0.78029   0.78029   0.00000  Uiso   1.00
O192   O     0.78029   0.21971   0.36580   0.00000  Uiso   1.00
O193   O     0.21971   0.78029   0.63420   0.00000  Uiso   1.00
O194   O     0.63420   0.21971   0.78029   0.00000  Uiso   1.00
O195   O     0.36580   0.78029   0.21971   0.00000  Uiso   1.00
O196   O     0.21971   0.21971   0.63420   0.00000  Uiso   1.00
O197   O     0.78029   0.78029   0.36580   0.00000  Uiso   1.00
O198   O     0.78029   0.36580   0.21971   0.00000  Uiso   1.00
O199   O     0.21971   0.63420   0.78029   0.00000  Uiso   1.00
O200   O     0.78029   0.63420   0.78029   0.00000  Uiso   1.00
Zn1    Zn    0.20660   0.29340   0.20660   0.00000  Uiso   1.00
Zn2    Zn    0.70660   0.20660   0.20660   0.00000  Uiso   1.00
Zn3    Zn    0.29340   0.20660   0.79340   0.00000  Uiso   1.00
Zn4    Zn    0.70660   0.79340   0.20660   0.00000  Uiso   1.00
Zn5    Zn    0.29340   0.20660   0.20660   0.00000  Uiso   1.00
Zn6    Zn    0.70660   0.79340   0.79340   0.00000  Uiso   1.00
Zn7    Zn    0.29340   0.79340   0.20660   0.00000  Uiso   1.00
Zn8    Zn    0.70660   0.20660   0.79340   0.00000  Uiso   1.00
Zn9    Zn    0.79340   0.20660   0.70660   0.00000  Uiso   1.00
Zn10   Zn    0.20660   0.79340   0.29340   0.00000  Uiso   1.00
Zn11   Zn    0.20660   0.20660   0.70660   0.00000  Uiso   1.00
Zn12   Zn    0.79340   0.70660   0.79340   0.00000  Uiso   1.00
Zn13   Zn    0.79340   0.79340   0.29340   0.00000  Uiso   1.00
Zn14   Zn    0.20660   0.79340   0.70660   0.00000  Uiso   1.00
Zn15   Zn    0.79340   0.20660   0.29340   0.00000  Uiso   1.00
Zn16   Zn    0.79340   0.79340   0.70660   0.00000  Uiso   1.00
Zn17   Zn    0.20660   0.20660   0.29340   0.00000  Uiso   1.00
Zn18   Zn    0.70660   0.29340   0.70660   0.00000  Uiso   1.00
Zn19   Zn    0.29340   0.70660   0.29340   0.00000  Uiso   1.00
Zn20   Zn    0.70660   0.29340   0.29340   0.00000  Uiso   1.00
Zn21   Zn    0.29340   0.70660   0.70660   0.00000  Uiso   1.00
Zn22   Zn    0.29340   0.29340   0.29340   0.00000  Uiso   1.00
Zn23   Zn    0.20660   0.29340   0.79340   0.00000  Uiso   1.00
Zn24   Zn    0.70660   0.70660   0.70660   0.00000  Uiso   1.00
Zn25   Zn    0.29340   0.29340   0.70660   0.00000  Uiso   1.00
Zn26   Zn    0.70660   0.70660   0.29340   0.00000  Uiso   1.00
Zn27   Zn    0.79340   0.70660   0.20660   0.00000  Uiso   1.00
Zn28   Zn    0.79340   0.29340   0.79340   0.00000  Uiso   1.00
Zn29   Zn    0.20660   0.70660   0.20660   0.00000  Uiso   1.00
Zn30   Zn    0.79340   0.29340   0.20660   0.00000  Uiso   1.00
Zn31   Zn    0.20660   0.70660   0.79340   0.00000  Uiso   1.00
Zn32   Zn    0.29340   0.79340   0.79340   0.00000  Uiso   1.00
loop_
_geom_bond_atom_site_label_1
_geom_bond_atom_site_label_2
_geom_bond_distance
_geom_bond_site_symmetry_2
_ccdc_geom_bond_type
C1     O189    1.278   .     A
C1     C62     1.458   .     S
C1     O190    1.278   .     A
C2     C65     1.453   .     S
C2     O182    1.276   .     A
C2     O90     1.276   .     A
C3     C93     1.409   .     A
C3     O64     1.385   .     S
C3     C6      1.400   1_655 S
C4     C89     1.405   .     A
C4     O65     1.384   .     S
C4     C287    1.399   1_455 S
C5     C91     1.406   .     A
C5     O66     1.384   .     S
C5     C286    1.399   1_655 S
C6     C87     1.405   .     A
C6     O67     1.384   .     S
C6     C3      1.400   1_455 S
C7     C88     1.406   .     A
C7     O69     1.384   .     S
C7     C288    1.398   1_655 S
C8     O70     1.385   .     S
C8     C102    1.409   .     A
C8     C14     1.400   1_554 S
C9     C100    1.410   .     A
C9     O71     1.385   .     S
C9     C12     1.398   1_556 S
C10    O72     1.385   .     S
C10    C104    1.409   .     A
C10    C16     1.400   1_554 S
C11    O73     1.385   .     S
C11    C103    1.409   .     A
C11    C15     1.399   1_556 S
C12    C97     1.406   .     A
C12    O74     1.384   .     S
C12    C9      1.398   1_554 S
C13    O187    1.276   .     A
C13    C74     1.453   .     S
C13    O101    1.276   .     A
C14    O75     1.384   .     S
C14    C96     1.405   .     A
C14    C8      1.400   1_556 S
C15    O76     1.384   .     S
C15    C99     1.406   .     A
C15    C11     1.399   1_554 S
C16    O77     1.384   .     S
C16    C98     1.406   .     A
C16    C10     1.400   1_556 S
C17    O78     1.385   .     S
C17    C103    1.409   .     A
C17    C22     1.399   1_556 S
C18    C104    1.409   .     A
C18    O80     1.385   .     S
C18    C21     1.399   1_554 S
C19    O81     1.385   .     S
C19    C100    1.410   .     A
C19    C25     1.398   1_556 S
C20    O82     1.385   .     S
C20    C102    1.409   .     A
C20    C23     1.400   1_554 S
C21    O83     1.384   .     S
C21    C98     1.405   .     A
C21    C18     1.399   1_556 S
C22    O84     1.384   .     S
C22    C99     1.406   .     A
C22    C17     1.399   1_554 S
C23    C96     1.405   .     A
C23    O85     1.384   .     S
C23    C20     1.400   1_556 S
C24    C75     1.453   .     S
C24    O188    1.275   .     A
C24    O113    1.277   .     A
C25    C97     1.405   .     A
C25    O86     1.384   .     S
C25    C19     1.398   1_554 S
C26    O87     1.385   .     S
C26    C53     1.409   .     A
C26    C31     1.399   .     A
C27    O88     1.385   .     S
C27    C30     1.399   .     A
C27    C52     1.410   .     A
C28    C33     1.400   .     A
C28    O89     1.385   .     S
C28    C55     1.409   .     A
C29    O91     1.385   .     S
C29    C32     1.398   .     A
C29    C54     1.410   .     A
C30    C58     1.405   .     A
C30    O92     1.384   .     S
C31    C56     1.406   .     A
C31    O93     1.384   .     S
C32    O94     1.384   .     S
C32    C60     1.406   .     A
C33    C59     1.406   .     A
C33    O95     1.384   .     S
C34    O96     1.385   .     S
C34    C62     1.409   .     A
C34    C40     1.399   .     A
C35    O185    1.276   .     A
C35    C67     1.453   .     S
C35    O115    1.276   .     A
C36    C39     1.399   .     A
C36    C61     1.410   .     A
C36    O97     1.385   .     S
C37    C42     1.400   .     A
C37    C64     1.409   .     A
C37    O98     1.385   .     S
C38    C41     1.398   .     A
C38    C63     1.410   .     A
C38    O99     1.385   .     S
C39    C66     1.405   .     A
C39    O100    1.384   .     S
C40    C65     1.406   .     A
C40    O102    1.384   .     S
C41    C69     1.406   .     A
C41    O103    1.384   .     S
C42    C67     1.406   .     A
C42    O104    1.384   .     S
C43    C71     1.409   .     A
C43    O105    1.385   .     S
C43    C49     1.399   .     A
C44    C70     1.410   .     A
C44    O106    1.385   .     S
C44    C48     1.399   .     A
C45    O107    1.385   .     S
C45    C51     1.400   .     A
C45    C73     1.409   .     A
C46    O116    1.276   .     A
C46    O186    1.276   .     A
C46    C69     1.452   .     S
C47    O108    1.385   .     S
C47    C50     1.398   .     A
C47    C72     1.410   .     A
C48    O109    1.384   .     S
C48    C75     1.405   .     A
C49    C74     1.406   .     A
C49    O110    1.384   .     S
C50    O111    1.384   .     S
C50    C77     1.406   .     A
C51    O114    1.384   .     S
C51    C76     1.406   .     A
C52    C239    1.409   .     A
C52    C101    1.459   .     S
C53    C113    1.458   .     S
C53    C238    1.409   .     A
C54    C241    1.410   .     A
C54    C157    1.459   .     S
C55    C146    1.459   .     S
C55    C240    1.409   .     A
C56    C235    1.406   .     A
C56    C124    1.453   .     S
C57    O183    1.278   .     A
C57    C73     1.459   .     S
C57    O117    1.278   .     A
C58    C233    1.406   .     A
C58    C135    1.453   .     S
C59    C237    1.405   .     A
C59    C90     1.453   .     S
C60    C79     1.452   .     S
C60    C236    1.405   .     A
C61    C112    1.459   .     S
C61    C248    1.409   .     A
C62    C247    1.409   .     A
C63    C250    1.410   .     A
C63    C234    1.459   .     S
C64    C249    1.409   .     A
C64    C245    1.459   .     S
C65    C243    1.406   .     A
C66    C278    1.453   .     S
C66    C242    1.406   .     A
C67    C246    1.405   .     A
C68    O184    1.278   .     A
C68    O118    1.278   .     A
C68    C72     1.459   .     S
C69    C244    1.405   .     A
C70    C256    1.459   .     S
C70    C257    1.409   .     A
C71    C255    1.409   .     A
C71    C267    1.458   .     S
C72    C259    1.410   .     A
C73    C258    1.409   .     A
C74    C252    1.406   .     A
C75    C251    1.406   .     A
C76    C254    1.405   .     A
C76    C223    1.453   .     S
C77    C253    1.405   .     A
C77    C212    1.452   .     S
C78    C227    1.452   .     S
C78    C265    1.405   .     A
C78    C275    1.405   .     A
C79    O119    1.276   .     A
C79    O6      1.276   .     A
C80    C276    1.406   .     A
C80    C264    1.406   .     A
C80    C228    1.452   .     S
C81    C226    1.453   .     S
C81    C268    1.406   .     A
C81    C273    1.405   .     A
C82    C274    1.406   .     A
C82    C225    1.453   .     S
C82    C266    1.406   .     A
C83    C261    1.410   .     A
C83    C229    1.459   .     S
C83    C271    1.410   .     A
C84    C230    1.459   .     S
C84    C272    1.409   .     A
C84    C260    1.409   .     A
C85    C263    1.409   .     A
C85    C269    1.409   .     A
C85    C232    1.458   .     S
C86    C231    1.458   .     S
C86    C270    1.410   .     A
C86    C262    1.409   .     A
C87    C283    1.405   .     A
C87    C217    1.452   .     S
C88    C282    1.406   .     A
C88    C216    1.452   .     S
C89    C285    1.406   .     A
C89    C211    1.453   .     S
C90    O7      1.276   .     A
C90    O120    1.276   .     A
C91    C213    1.453   .     S
C91    C284    1.406   .     A
C92    C279    1.410   .     A
C92    C179    1.459   .     S
C92    C288    1.410   .     A
C93    C277    1.409   .     A
C93    C168    1.459   .     S
C94    C220    1.458   .     S
C94    C281    1.409   .     A
C94    C286    1.409   .     A
C95    C280    1.409   .     A
C95    C287    1.409   .     A
C95    C221    1.459   .     S
C96    C214    1.452   .     S
C97    C215    1.452   .     S
C98    C201    1.453   .     S
C99    C190    1.453   .     S
C100   C218    1.459   .     S
C101   O121    1.278   .     A
C101   O4      1.278   .     A
C102   C219    1.459   .     S
C103   C224    1.458   .     S
C104   C222    1.459   .     S
C105   H112    1.113   .     S
C105   H1      1.113   .     S
C105   H212    1.109   .     S
C105   O8      1.410   .     S
C106   H234    1.113   .     S
C106   H245    1.109   .     S
C106   O9      1.410   .     S
C106   H223    1.113   .     S
C107   H256    1.113   .     S
C107   H278    1.109   .     S
C107   H267    1.113   .     S
C107   O10     1.410   .     S
C108   H2      1.113   .     S
C108   H13     1.113   .     S
C108   H24     1.109   .     S
C108   O11     1.410   .     S
C109   H57     1.109   .     S
C109   O12     1.411   .     S
C109   H35     1.111   .     S
C109   H46     1.114   .     S
C110   H90     1.109   .     S
C110   O14     1.411   .     S
C110   H79     1.114   .     S
C110   H68     1.111   .     S
C111   H113    1.114   .     S
C111   H124    1.109   .     S
C111   H101    1.111   .     S
C111   O15     1.411   .     S
C112   O2      1.278   .     A
C112   O191    1.278   .     A
C113   O122    1.278   .     A
C113   O5      1.278   .     A
C114   H157    1.108   .     S
C114   H135    1.111   .     S
C114   H146    1.114   .     S
C114   O16     1.412   .     S
C115   H179    1.113   .     S
C115   H168    1.113   .     S
C115   H190    1.109   .     S
C115   O17     1.410   .     S
C116   O18     1.410   .     S
C116   H213    1.109   .     S
C116   H201    1.113   .     S
C116   H211    1.113   .     S
C117   H215    1.113   .     S
C117   O19     1.410   .     S
C117   H214    1.113   .     S
C117   H216    1.109   .     S
C118   H217    1.113   .     S
C118   H218    1.113   .     S
C118   O20     1.410   .     S
C118   H219    1.109   .     S
C119   H221    1.114   .     S
C119   H220    1.111   .     S
C119   H222    1.109   .     S
C119   O21     1.411   .     S
C120   H224    1.111   .     S
C120   H226    1.109   .     S
C120   O22     1.411   .     S
C120   H225    1.114   .     S
C121   H228    1.114   .     S
C121   O23     1.411   .     S
C121   H227    1.111   .     S
C121   H229    1.109   .     S
C122   H231    1.114   .     S
C122   H232    1.108   .     S
C122   H230    1.111   .     S
C122   O25     1.412   .     S
C123   H233    1.113   .     S
C123   H236    1.109   .     S
C123   O26     1.410   .     S
C123   H235    1.113   .     S
C124   O123    1.276   .     A
C124   O200    1.276   .     A
C125   H237    1.113   .     S
C125   H239    1.109   .     S
C125   H238    1.113   .     S
C125   O27     1.410   .     S
C126   H242    1.109   .     S
C126   O28     1.410   .     S
C126   H241    1.113   .     S
C126   H240    1.113   .     S
C127   O29     1.410   .     S
C127   H243    1.113   .     S
C127   H246    1.109   .     S
C127   H244    1.113   .     S
C128   H248    1.114   .     S
C128   H249    1.109   .     S
C128   O30     1.411   .     S
C128   H247    1.111   .     S
C129   H251    1.114   .     S
C129   O31     1.411   .     S
C129   H250    1.111   .     S
C129   H252    1.109   .     S
C130   H254    1.114   .     S
C130   H255    1.109   .     S
C130   H253    1.111   .     S
C130   O32     1.411   .     S
C131   H257    1.111   .     S
C131   H259    1.108   .     S
C131   H258    1.114   .     S
C131   O33     1.412   .     S
C132   H260    1.111   .     S
C132   H261    1.114   .     S
C132   H262    1.108   .     S
C132   O34     1.412   .     S
C133   H265    1.109   .     S
C133   O36     1.411   .     S
C133   H263    1.111   .     S
C133   H264    1.114   .     S
C134   H268    1.114   .     S
C134   H266    1.111   .     S
C134   O37     1.411   .     S
C134   H269    1.109   .     S
C135   O125    1.277   .     A
C135   O3      1.275   .     A
C136   O38     1.411   .     S
C136   H271    1.114   .     S
C136   H270    1.111   .     S
C136   H272    1.109   .     S
C137   H273    1.113   .     S
C137   H275    1.109   .     S
C137   H274    1.113   .     S
C137   O39     1.410   .     S
C138   H279    1.109   .     S
C138   H276    1.113   .     S
C138   H277    1.113   .     S
C138   O40     1.410   .     S
C139   H282    1.109   .     S
C139   H281    1.113   .     S
C139   O41     1.410   .     S
C139   H280    1.113   .     S
C140   H284    1.113   .     S
C140   H283    1.113   .     S
C140   O42     1.410   .     S
C140   H285    1.109   .     S
C141   H286    1.111   .     S
C141   H288    1.109   .     S
C141   O43     1.411   .     S
C141   H287    1.114   .     S
C142   O44     1.412   .     S
C142   H4      1.114   .     S
C142   H5      1.108   .     S
C142   H3      1.111   .     S
C143   O45     1.412   .     S
C143   H7      1.114   .     S
C143   H8      1.108   .     S
C143   H6      1.111   .     S
C144   H9      1.111   .     S
C144   H11     1.109   .     S
C144   O47     1.411   .     S
C144   H10     1.114   .     S
C145   H15     1.109   .     S
C145   H12     1.113   .     S
C145   O48     1.410   .     S
C145   H14     1.113   .     S
C146   O126    1.278   .     A
C146   O198    1.278   .     A
C147   O49     1.410   .     S
C147   H18     1.109   .     S
C147   H16     1.113   .     S
C147   H17     1.113   .     S
C148   H19     1.113   .     S
C148   H20     1.113   .     S
C148   O50     1.410   .     S
C148   H21     1.109   .     S
C149   H22     1.113   .     S
C149   H25     1.109   .     S
C149   O51     1.410   .     S
C149   H23     1.113   .     S
C150   O52     1.412   .     S
C150   H28     1.108   .     S
C150   H26     1.111   .     S
C150   H27     1.114   .     S
C151   H30     1.114   .     S
C151   O53     1.411   .     S
C151   H29     1.111   .     S
C151   H31     1.109   .     S
C152   O54     1.411   .     S
C152   H33     1.114   .     S
C152   H34     1.109   .     S
C152   H32     1.111   .     S
C153   H37     1.114   .     S
C153   O55     1.411   .     S
C153   H38     1.109   .     S
C153   H36     1.111   .     S
C154   H39     1.113   .     S
C154   O56     1.410   .     S
C154   H40     1.113   .     S
C154   H41     1.109   .     S
C155   O58     1.410   .     S
C155   H44     1.109   .     S
C155   H42     1.113   .     S
C155   H43     1.113   .     S
C156   O59     1.410   .     S
C156   H45     1.113   .     S
C156   H47     1.113   .     S
C156   H48     1.109   .     S
C157   O127    1.278   .     A
C157   O199    1.278   .     A
C158   H51     1.109   .     S
C158   H49     1.113   .     S
C158   O60     1.410   .     S
C158   H50     1.113   .     S
C159   H53     1.114   .     S
C159   H52     1.111   .     S
C159   O61     1.411   .     S
C159   H54     1.109   .     S
C160   H58     1.108   .     S
C160   H56     1.114   .     S
C160   H55     1.111   .     S
C160   O62     1.412   .     S
C161   H60     1.114   .     S
C161   O63     1.412   .     S
C161   H59     1.111   .     S
C161   H61     1.108   .     S
C162   H64     1.109   .     S
C162   O64     1.411   .     S
C162   H62     1.111   .     S
C162   H63     1.114   .     S
C163   H66     1.113   .     S
C163   O65     1.410   .     S
C163   H67     1.109   .     S
C163   H65     1.113   .     S
C164   H71     1.109   .     S
C164   H69     1.113   .     S
C164   H70     1.113   .     S
C164   O66     1.410   .     S
C165   H72     1.113   .     S
C165   H74     1.109   .     S
C165   H73     1.113   .     S
C165   O67     1.410   .     S
C166   H75     1.113   .     S
C166   H77     1.109   .     S
C166   H76     1.113   .     S
C166   O69     1.410   .     S
C167   H80     1.114   .     S
C167   H81     1.108   .     S
C167   O70     1.412   .     S
C167   H78     1.111   .     S
C168   O175    1.278   .     A
C168   O128    1.278   .     A
C169   O71     1.411   .     S
C169   H83     1.114   .     S
C169   H82     1.111   .     S
C169   H84     1.109   .     S
C170   H86     1.114   .     S
C170   H85     1.111   .     S
C170   H87     1.109   .     S
C170   O72     1.411   .     S
C171   O73     1.411   .     S
C171   H88     1.111   .     S
C171   H91     1.109   .     S
C171   H89     1.114   .     S
C172   O74     1.410   .     S
C172   H92     1.113   .     S
C172   H94     1.109   .     S
C172   H93     1.113   .     S
C173   H96     1.113   .     S
C173   O75     1.410   .     S
C173   H95     1.113   .     S
C173   H97     1.109   .     S
C174   H99     1.113   .     S
C174   H100    1.109   .     S
C174   H98     1.113   .     S
C174   O76     1.410   .     S
C175   O77     1.410   .     S
C175   H103    1.113   .     S
C175   H104    1.109   .     S
C175   H102    1.113   .     S
C176   H105    1.111   .     S
C176   H107    1.109   .     S
C176   H106    1.114   .     S
C176   O78     1.411   .     S
C177   O80     1.412   .     S
C177   H109    1.114   .     S
C177   H108    1.111   .     S
C177   H110    1.108   .     S
C178   H114    1.114   .     S
C178   H111    1.111   .     S
C178   O81     1.412   .     S
C178   H115    1.108   .     S
C179   O174    1.277   .     A
C179   O129    1.279   .     A
C180   O82     1.411   .     S
C180   H117    1.114   .     S
C180   H116    1.111   .     S
C180   H118    1.109   .     S
C181   H120    1.113   .     S
C181   H119    1.113   .     S
C181   H121    1.109   .     S
C181   O83     1.410   .     S
C182   H122    1.113   .     S
C182   O84     1.410   .     S
C182   H125    1.109   .     S
C182   H123    1.113   .     S
C183   H128    1.109   .     S
C183   H126    1.113   .     S
C183   O85     1.410   .     S
C183   H127    1.113   .     S
C184   O86     1.410   .     S
C184   H129    1.113   .     S
C184   H131    1.109   .     S
C184   H130    1.113   .     S
C185   H132    1.111   .     S
C185   O87     1.411   .     S
C185   H133    1.114   .     S
C185   H134    1.109   .     S
C186   H138    1.108   .     S
C186   O88     1.412   .     S
C186   H136    1.111   .     S
C186   H137    1.114   .     S
C187   O89     1.411   .     S
C187   H140    1.114   .     S
C187   H141    1.109   .     S
C187   H139    1.111   .     S
C188   O91     1.412   .     S
C188   H143    1.114   .     S
C188   H142    1.111   .     S
C188   H144    1.108   .     S
C189   H148    1.109   .     S
C189   H145    1.113   .     S
C189   H147    1.113   .     S
C189   O92     1.410   .     S
C190   O151    1.276   .     A
C190   O130    1.276   .     A
C191   H150    1.113   .     S
C191   H149    1.109   .     S
C191   O93     1.410   .     S
C191   H151    1.113   .     S
C192   H153    1.113   .     S
C192   O94     1.410   .     S
C192   H154    1.109   .     S
C192   H152    1.113   .     S
C193   H156    1.113   .     S
C193   H158    1.109   .     S
C193   O95     1.410   .     S
C193   H155    1.113   .     S
C194   O96     1.411   .     S
C194   H161    1.109   .     S
C194   H159    1.111   .     S
C194   H160    1.114   .     S
C195   O97     1.412   .     S
C195   H163    1.114   .     S
C195   H162    1.111   .     S
C195   H164    1.108   .     S
C196   O98     1.411   .     S
C196   H166    1.114   .     S
C196   H165    1.111   .     S
C196   H167    1.109   .     S
C197   H169    1.111   .     S
C197   H171    1.108   .     S
C197   O99     1.412   .     S
C197   H170    1.114   .     S
C198   H172    1.113   .     S
C198   O100    1.410   .     S
C198   H174    1.109   .     S
C198   H173    1.113   .     S
C199   H176    1.113   .     S
C199   H177    1.113   .     S
C199   O102    1.410   .     S
C199   H175    1.109   .     S
C200   H180    1.113   .     S
C200   H181    1.109   .     S
C200   O103    1.410   .     S
C200   H178    1.113   .     S
C201   O131    1.276   .     A
C201   O150    1.276   .     A
C202   H183    1.113   .     S
C202   O104    1.410   .     S
C202   H184    1.109   .     S
C202   H182    1.113   .     S
C203   O105    1.411   .     S
C203   H186    1.114   .     S
C203   H187    1.109   .     S
C203   H185    1.111   .     S
C204   H191    1.108   .     S
C204   H189    1.114   .     S
C204   O106    1.412   .     S
C204   H188    1.111   .     S
C205   H192    1.111   .     S
C205   O107    1.411   .     S
C205   H194    1.109   .     S
C205   H193    1.114   .     S
C206   H195    1.111   .     S
C206   H197    1.108   .     S
C206   H196    1.114   .     S
C206   O108    1.412   .     S
C207   H199    1.113   .     S
C207   O109    1.410   .     S
C207   H198    1.113   .     S
C207   H200    1.109   .     S
C208   H203    1.113   .     S
C208   H204    1.113   .     S
C208   O110    1.410   .     S
C208   H202    1.109   .     S
C209   H206    1.113   .     S
C209   O111    1.410   .     S
C209   H207    1.109   .     S
C209   H205    1.113   .     S
C210   H208    1.113   .     S
C210   H209    1.113   .     S
C210   O114    1.410   .     S
C210   H210    1.109   .     S
C211   O166    1.276   .     A
C211   O132    1.276   .     A
C212   O13     1.276   .     A
C212   O196    1.276   .     A
C213   O133    1.276   .     A
C213   O165    1.276   .     A
C214   O155    1.276   .     A
C214   O134    1.276   .     A
C215   O154    1.276   .     A
C215   O136    1.276   .     A
C216   O171    1.276   .     A
C216   O137    1.276   .     A
C217   O170    1.276   .     A
C217   O138    1.276   .     A
C218   O147    1.279   .     A
C218   O139    1.277   .     A
C219   O140    1.278   .     A
C219   O145    1.278   .     A
C220   O141    1.278   .     A
C220   O180    1.277   .     A
C221   O178    1.278   .     A
C221   O142    1.277   .     A
C222   O160    1.277   .     A
C222   O143    1.278   .     A
C223   O24     1.276   .     A
C223   O197    1.276   .     A
C224   O144    1.277   .     A
C224   O159    1.278   .     A
C225   O148    1.276   .     A
C225   O169    1.276   .     A
C226   O167    1.276   .     A
C226   O149    1.276   .     A
C227   O152    1.276   .     A
C227   O173    1.276   .     A
C228   O172    1.276   .     A
C228   O153    1.276   .     A
C229   O156    1.277   .     A
C229   O164    1.279   .     A
C230   O163    1.278   .     A
C230   O158    1.278   .     A
C231   O161    1.278   .     A
C231   O177    1.277   .     A
C232   O162    1.277   .     A
C232   O176    1.278   .     A
C233   O8      1.384   .     S
C233   C239    1.400   .     A
C234   O35     1.278   .     A
C234   O194    1.278   .     A
C235   C238    1.399   .     A
C235   O9      1.384   .     S
C236   C241    1.398   .     A
C236   O10     1.384   .     S
C237   C240    1.400   .     A
C237   O11     1.384   .     S
C238   O12     1.385   .     S
C239   O14     1.385   .     S
C240   O15     1.385   .     S
C241   O16     1.385   .     S
C242   C248    1.400   .     A
C242   O17     1.384   .     S
C243   O18     1.384   .     S
C243   C247    1.399   .     A
C244   C250    1.398   .     A
C244   O19     1.384   .     S
C245   O46     1.278   .     A
C245   O195    1.278   .     A
C246   C249    1.400   .     A
C246   O20     1.384   .     S
C247   O21     1.385   .     S
C248   O22     1.385   .     S
C249   O23     1.385   .     S
C250   O25     1.385   .     S
C251   O26     1.384   .     S
C251   C257    1.400   .     A
C252   C255    1.399   .     A
C252   O27     1.384   .     S
C253   O28     1.384   .     S
C253   C259    1.398   .     A
C254   C258    1.400   .     A
C254   O29     1.384   .     S
C255   O30     1.385   .     S
C256   O57     1.278   .     A
C256   O192    1.278   .     A
C257   O31     1.385   .     S
C258   O32     1.385   .     S
C259   O33     1.385   .     S
C260   O34     1.385   .     S
C260   C265    1.400   1_565 S
C261   O36     1.385   .     S
C261   C264    1.398   1_545 S
C262   O37     1.385   .     S
C262   C268    1.400   1_565 S
C263   O38     1.385   .     S
C263   C266    1.399   1_545 S
C264   O39     1.384   .     S
C264   C261    1.398   1_565 S
C265   O40     1.384   .     S
C265   C260    1.400   1_545 S
C266   O41     1.384   .     S
C266   C263    1.399   1_565 S
C267   O68     1.278   .     A
C267   O193    1.278   .     A
C268   O42     1.384   .     S
C268   C262    1.400   1_545 S
C269   O43     1.385   .     S
C269   C274    1.399   1_545 S
C270   O44     1.385   .     S
C270   C273    1.399   1_565 S
C271   O45     1.385   .     S
C271   C276    1.398   1_545 S
C272   O47     1.385   .     S
C272   C275    1.400   1_565 S
C273   O48     1.384   .     S
C273   C270    1.399   1_545 S
C274   O49     1.384   .     S
C274   C269    1.399   1_565 S
C275   O50     1.384   .     S
C275   C272    1.400   1_545 S
C276   O51     1.384   .     S
C276   C271    1.398   1_565 S
C277   O52     1.385   .     S
C277   C283    1.400   1_655 S
C278   O181    1.275   .     A
C278   O79     1.277   .     A
C279   O53     1.385   .     S
C279   C282    1.398   1_455 S
C280   O54     1.385   .     S
C280   C285    1.400   1_655 S
C281   O55     1.385   .     S
C281   C284    1.399   1_455 S
C282   O56     1.384   .     S
C282   C279    1.398   1_655 S
C283   O58     1.384   .     S
C283   C277    1.400   1_455 S
C284   O59     1.384   .     S
C284   C281    1.399   1_655 S
C285   O60     1.384   .     S
C285   C280    1.400   1_455 S
C286   O61     1.385   .     S
C286   C5      1.399   1_455 S
C287   O62     1.385   .     S
C287   C4      1.399   1_655 S
C288   O63     1.385   .     S
C288   C7      1.398   1_455 S
O1     Zn17    1.949   .     S
O1     Zn5     1.949   .     S
O1     Zn22    1.949   .     S
O1     Zn1     1.949   .     S
O2     Zn24    1.938   .     S
O3     Zn1     1.938   .     S
O4     Zn29    1.938   .     S
O5     Zn28    1.938   .     S
O6     Zn23    1.938   .     S
O7     Zn27    1.938   .     S
O13    Zn25    1.938   .     S
O24    Zn26    1.938   .     S
O35    Zn18    1.938   .     S
O46    Zn19    1.938   .     S
O57    Zn20    1.938   .     S
O68    Zn21    1.938   .     S
O79    Zn21    1.938   .     S
O90    Zn20    1.938   .     S
O101   Zn19    1.938   .     S
O112   Zn12    1.949   .     S
O112   Zn24    1.949   .     S
O112   Zn16    1.949   .     S
O112   Zn6     1.949   .     S
O113   Zn18    1.938   .     S
O115   Zn26    1.938   .     S
O116   Zn25    1.938   .     S
O117   Zn24    1.938   .     S
O118   Zn22    1.938   .     S
O119   Zn25    1.938   .     S
O120   Zn26    1.938   .     S
O121   Zn19    1.938   .     S
O122   Zn18    1.938   .     S
O123   Zn24    1.938   .     S
O124   Zn25    1.949   .     S
O124   Zn3     1.949   .     S
O124   Zn23    1.949   .     S
O124   Zn11    1.949   .     S
O125   Zn22    1.938   .     S
O126   Zn20    1.938   .     S
O127   Zn21    1.938   .     S
O128   Zn13    1.938   .     S
O129   Zn11    1.938   .     S
O130   Zn7     1.938   .     S
O131   Zn8     1.938   .     S
O132   Zn14    1.938   .     S
O133   Zn15    1.938   .     S
O134   Zn6     1.938   .     S
O135   Zn13    1.949   .     S
O135   Zn26    1.949   .     S
O135   Zn27    1.949   .     S
O135   Zn4     1.949   .     S
O136   Zn5     1.938   .     S
O137   Zn9     1.938   .     S
O138   Zn10    1.938   .     S
O139   Zn3     1.938   .     S
O140   Zn4     1.938   .     S
O141   Zn17    1.938   .     S
O142   Zn16    1.938   .     S
O143   Zn2     1.938   .     S
O144   Zn32    1.938   .     S
O145   Zn27    1.938   .     S
O146   Zn9     1.949   .     S
O146   Zn28    1.949   .     S
O146   Zn8     1.949   .     S
O146   Zn18    1.949   .     S
O147   Zn23    1.938   .     S
O148   Zn16    1.938   .     S
O149   Zn17    1.938   .     S
O150   Zn28    1.938   .     S
O151   Zn29    1.938   .     S
O152   Zn15    1.938   .     S
O153   Zn14    1.938   .     S
O154   Zn1     1.938   .     S
O155   Zn12    1.938   .     S
O156   Zn11    1.938   .     S
O157   Zn7     1.949   .     S
O157   Zn29    1.949   .     S
O157   Zn19    1.949   .     S
O157   Zn10    1.949   .     S
O158   Zn13    1.938   .     S
O159   Zn31    1.938   .     S
O160   Zn30    1.938   .     S
O161   Zn10    1.938   .     S
O162   Zn9     1.938   .     S
O163   Zn4     1.938   .     S
O164   Zn3     1.938   .     S
O165   Zn30    1.938   .     S
O166   Zn31    1.938   .     S
O167   Zn5     1.938   .     S
O168   Zn30    1.949   .     S
O168   Zn15    1.949   .     S
O168   Zn20    1.949   .     S
O168   Zn2     1.949   .     S
O169   Zn6     1.938   .     S
O170   Zn29    1.938   .     S
O171   Zn28    1.938   .     S
O172   Zn32    1.938   .     S
O173   Zn2     1.938   .     S
O174   Zn23    1.938   .     S
O175   Zn27    1.938   .     S
O176   Zn8     1.938   .     S
O177   Zn7     1.938   .     S
O178   Zn12    1.938   .     S
O179   Zn21    1.949   .     S
O179   Zn14    1.949   .     S
O179   Zn31    1.949   .     S
O179   Zn32    1.949   .     S
O180   Zn1     1.938   .     S
O181   Zn32    1.938   .     S
O182   Zn2     1.938   .     S
O183   Zn16    1.938   .     S
O184   Zn17    1.938   .     S
O185   Zn4     1.938   .     S
O186   Zn3     1.938   .     S
O187   Zn10    1.938   .     S
O188   Zn9     1.938   .     S
O189   Zn5     1.938   .     S
O190   Zn22    1.938   .     S
O191   Zn6     1.938   .     S
O192   Zn15    1.938   .     S
O193   Zn14    1.938   .     S
O194   Zn8     1.938   .     S
O195   Zn7     1.938   .     S
O196   Zn11    1.938   .     S
O197   Zn13    1.938   .     S
O198   Zn30    1.938   .     S
O199   Zn31    1.938   .     S
O200   Zn12    1.938   .     S
