data_str_m2_o10_o16_pcu_sym.166
_audit_creation_date              2020-01-03
_audit_creation_method            'Materials Studio'
_symmetry_space_group_name_H-M    'P1'
_symmetry_Int_Tables_number       1
_symmetry_cell_setting            triclinic
loop_
_symmetry_equiv_pos_as_xyz
  x,y,z
_cell_length_a                    22.4393
_cell_length_b                    26.0431
_cell_length_c                    26.7102
_cell_angle_alpha                 94.5274
_cell_angle_beta                  77.5628
_cell_angle_gamma                 103.4213
loop_
_atom_site_label
_atom_site_type_symbol
_atom_site_fract_x
_atom_site_fract_y
_atom_site_fract_z
_atom_site_U_iso_or_equiv
_atom_site_adp_type
_atom_site_occupancy
C1     C     0.18187   0.26672   0.25142   0.00000  Uiso   1.00
C2     C     0.13754   0.17029   0.48851   0.00000  Uiso   1.00
C3     C     0.15299   0.18590   0.43694   0.00000  Uiso   1.00
C4     C     0.18438   0.18409   0.01873   0.00000  Uiso   1.00
C5     C     0.24254   0.21843   0.49914   0.00000  Uiso   1.00
C6     C     0.25292   0.23957   0.45092   0.00000  Uiso   1.00
C7     C     0.20860   0.22389   0.42038   0.00000  Uiso   1.00
C8     C     0.17560   0.16402   0.06757   0.00000  Uiso   1.00
C9     C     0.27786   0.21368   0.07805   0.00000  Uiso   1.00
C10    C     0.11196   0.16374   0.40352   0.00000  Uiso   1.00
C11    C     0.19033   0.32280   0.25206   0.00000  Uiso   1.00
C12    C     0.13318   0.16550   0.34726   0.00000  Uiso   1.00
C13    C     0.14333   0.01053   0.24713   0.00000  Uiso   1.00
C14    C     0.15158   0.06662   0.24827   0.00000  Uiso   1.00
C15    C     0.20038   0.17074   0.15302   0.00000  Uiso   1.00
C16    C     0.28918   0.23209   0.02851   0.00000  Uiso   1.00
C17    C     0.22017   0.18079   0.09815   0.00000  Uiso   1.00
C18    C     0.05186   0.13438   0.42371   0.00000  Uiso   1.00
C19    C     0.03242   0.12414   0.47580   0.00000  Uiso   1.00
C20    C     0.07572   0.14229   0.00813   0.00000  Uiso   1.00
Cu21   Cu    0.10710   0.16105   0.24435   0.00000  Uiso   1.00
Cu22   Cu    0.22623   0.17228   0.25565   0.00000  Uiso   1.00
H23    H     0.31279   0.22713   0.10136   0.00000  Uiso   1.00
H24    H     0.09824   0.31984   0.24224   0.00000  Uiso   1.00
H25    H     0.33207   0.13109   0.20676   0.00000  Uiso   1.00
H26    H     0.29589   0.26780   0.43640   0.00000  Uiso   1.00
H27    H     0.00029   0.25836   0.01374   0.00000  Uiso   1.00
H28    H     0.13384   0.13554   0.08333   0.00000  Uiso   1.00
H29    H     0.01976   0.11790   0.39855   0.00000  Uiso   1.00
H30    H     0.06001   0.13652   0.04861   0.00000  Uiso   1.00
H31    H     0.21828   0.24233   0.38376   0.00000  Uiso   1.00
H32    H     0.23549   0.01352   0.25676   0.00000  Uiso   1.00
N33    N     0.31574   0.18074   0.26416   0.00000  Uiso   1.00
N34    N     0.01759   0.15259   0.23584   0.00000  Uiso   1.00
O35    O     0.12797   0.23807   0.24633   0.00000  Uiso   1.00
O36    O     0.22858   0.24755   0.25587   0.00000  Uiso   1.00
O37    O     0.09181   0.15960   0.31839   0.00000  Uiso   1.00
O38    O     0.19242   0.16908   0.32793   0.00000  Uiso   1.00
O39    O     0.10476   0.08578   0.24413   0.00000  Uiso   1.00
O40    O     0.20536   0.09526   0.25367   0.00000  Uiso   1.00
O41    O     0.14092   0.16425   0.17207   0.00000  Uiso   1.00
O42    O     0.24152   0.17373   0.18161   0.00000  Uiso   1.00
C43    C     0.00197   0.20818   0.30757   0.00000  Uiso   1.00
H44    H     0.03198   0.24734   0.30426   0.00000  Uiso   1.00
O45    O     0.31523   0.18908   0.34974   0.00000  Uiso   1.00
O46    O     0.30361   0.09761   0.49226   0.00000  Uiso   1.00
C47    C     0.29272   0.07093   0.03855   0.00000  Uiso   1.00
H48    H     0.29193   0.09984   0.07149   0.00000  Uiso   1.00
H49    H     0.32892   0.04777   0.03788   0.00000  Uiso   1.00
C50    C     0.22879   0.03265   0.04559   0.00000  Uiso   1.00
H51    H     0.19237   0.05429   0.04297   0.00000  Uiso   1.00
H52    H     0.22954   0.00172   0.01449   0.00000  Uiso   1.00
C53    C     0.21166   0.00644   0.09748   0.00000  Uiso   1.00
H54    H     0.24809   0.31888   0.10167   0.00000  Uiso   1.00
H55    H     0.16632   0.31064   0.10051   0.00000  Uiso   1.00
H56    H     0.20703   0.03658   0.12908   0.00000  Uiso   1.00
C57    C     0.51521   0.26672   0.25142   0.00000  Uiso   1.00
C58    C     0.47087   0.17029   0.48851   0.00000  Uiso   1.00
C59    C     0.48633   0.18590   0.43694   0.00000  Uiso   1.00
C60    C     0.51771   0.18409   0.01873   0.00000  Uiso   1.00
C61    C     0.57587   0.21843   0.49914   0.00000  Uiso   1.00
C62    C     0.58626   0.23957   0.45092   0.00000  Uiso   1.00
C63    C     0.54194   0.22389   0.42038   0.00000  Uiso   1.00
C64    C     0.50893   0.16402   0.06757   0.00000  Uiso   1.00
C65    C     0.61119   0.21368   0.07805   0.00000  Uiso   1.00
C66    C     0.44529   0.16374   0.40352   0.00000  Uiso   1.00
C67    C     0.52366   0.32280   0.25206   0.00000  Uiso   1.00
C68    C     0.46651   0.16550   0.34726   0.00000  Uiso   1.00
C69    C     0.47666   0.01053   0.24713   0.00000  Uiso   1.00
C70    C     0.48491   0.06662   0.24827   0.00000  Uiso   1.00
C71    C     0.53371   0.17074   0.15302   0.00000  Uiso   1.00
C72    C     0.62252   0.23209   0.02851   0.00000  Uiso   1.00
C73    C     0.55351   0.18079   0.09815   0.00000  Uiso   1.00
C74    C     0.38519   0.13438   0.42371   0.00000  Uiso   1.00
C75    C     0.36575   0.12414   0.47580   0.00000  Uiso   1.00
C76    C     0.40905   0.14229   0.00813   0.00000  Uiso   1.00
Cu77   Cu    0.44043   0.16105   0.24435   0.00000  Uiso   1.00
Cu78   Cu    0.55957   0.17228   0.25565   0.00000  Uiso   1.00
H79    H     0.64612   0.22713   0.10136   0.00000  Uiso   1.00
H80    H     0.43157   0.31984   0.24224   0.00000  Uiso   1.00
H81    H     0.66541   0.13109   0.20676   0.00000  Uiso   1.00
H82    H     0.62923   0.26780   0.43640   0.00000  Uiso   1.00
H83    H     0.33363   0.25836   0.01374   0.00000  Uiso   1.00
H84    H     0.46717   0.13554   0.08333   0.00000  Uiso   1.00
H85    H     0.35310   0.11790   0.39855   0.00000  Uiso   1.00
H86    H     0.39334   0.13652   0.04861   0.00000  Uiso   1.00
H87    H     0.55161   0.24233   0.38376   0.00000  Uiso   1.00
H88    H     0.56883   0.01352   0.25676   0.00000  Uiso   1.00
N89    N     0.64908   0.18074   0.26416   0.00000  Uiso   1.00
N90    N     0.35092   0.15259   0.23584   0.00000  Uiso   1.00
O91    O     0.46131   0.23807   0.24633   0.00000  Uiso   1.00
O92    O     0.56191   0.24755   0.25587   0.00000  Uiso   1.00
O93    O     0.42515   0.15960   0.31839   0.00000  Uiso   1.00
O94    O     0.52575   0.16908   0.32793   0.00000  Uiso   1.00
O95    O     0.43809   0.08578   0.24413   0.00000  Uiso   1.00
O96    O     0.53869   0.09526   0.25367   0.00000  Uiso   1.00
O97    O     0.47425   0.16425   0.17207   0.00000  Uiso   1.00
O98    O     0.57485   0.17373   0.18161   0.00000  Uiso   1.00
C99    C     0.33530   0.20818   0.30757   0.00000  Uiso   1.00
H100   H     0.36531   0.24734   0.30426   0.00000  Uiso   1.00
O101   O     0.64856   0.18908   0.34974   0.00000  Uiso   1.00
O102   O     0.63694   0.09761   0.49226   0.00000  Uiso   1.00
C103   C     0.62605   0.07093   0.03855   0.00000  Uiso   1.00
H104   H     0.62526   0.09984   0.07149   0.00000  Uiso   1.00
H105   H     0.66225   0.04777   0.03788   0.00000  Uiso   1.00
C106   C     0.56212   0.03265   0.04559   0.00000  Uiso   1.00
H107   H     0.52571   0.05429   0.04297   0.00000  Uiso   1.00
H108   H     0.56288   0.00172   0.01449   0.00000  Uiso   1.00
C109   C     0.54499   0.00644   0.09748   0.00000  Uiso   1.00
H110   H     0.58142   0.31888   0.10167   0.00000  Uiso   1.00
H111   H     0.49965   0.31064   0.10051   0.00000  Uiso   1.00
H112   H     0.54036   0.03658   0.12908   0.00000  Uiso   1.00
C113   C     0.84854   0.26672   0.25142   0.00000  Uiso   1.00
C114   C     0.80421   0.17029   0.48851   0.00000  Uiso   1.00
C115   C     0.81966   0.18590   0.43694   0.00000  Uiso   1.00
C116   C     0.85105   0.18409   0.01873   0.00000  Uiso   1.00
C117   C     0.90920   0.21843   0.49914   0.00000  Uiso   1.00
C118   C     0.91959   0.23957   0.45092   0.00000  Uiso   1.00
C119   C     0.87527   0.22389   0.42038   0.00000  Uiso   1.00
C120   C     0.84226   0.16402   0.06757   0.00000  Uiso   1.00
C121   C     0.94453   0.21368   0.07805   0.00000  Uiso   1.00
C122   C     0.77862   0.16374   0.40352   0.00000  Uiso   1.00
C123   C     0.85699   0.32280   0.25206   0.00000  Uiso   1.00
C124   C     0.79984   0.16550   0.34726   0.00000  Uiso   1.00
C125   C     0.80999   0.01053   0.24713   0.00000  Uiso   1.00
C126   C     0.81825   0.06662   0.24827   0.00000  Uiso   1.00
C127   C     0.86704   0.17074   0.15302   0.00000  Uiso   1.00
C128   C     0.95585   0.23209   0.02851   0.00000  Uiso   1.00
C129   C     0.88684   0.18079   0.09815   0.00000  Uiso   1.00
C130   C     0.71853   0.13438   0.42371   0.00000  Uiso   1.00
C131   C     0.69908   0.12414   0.47580   0.00000  Uiso   1.00
C132   C     0.74239   0.14229   0.00813   0.00000  Uiso   1.00
Cu133  Cu    0.77377   0.16105   0.24435   0.00000  Uiso   1.00
Cu134  Cu    0.89290   0.17228   0.25565   0.00000  Uiso   1.00
H135   H     0.97945   0.22713   0.10136   0.00000  Uiso   1.00
H136   H     0.76491   0.31984   0.24224   0.00000  Uiso   1.00
H137   H     0.99874   0.13109   0.20676   0.00000  Uiso   1.00
H138   H     0.96256   0.26780   0.43640   0.00000  Uiso   1.00
H139   H     0.66696   0.25836   0.01374   0.00000  Uiso   1.00
H140   H     0.80050   0.13554   0.08333   0.00000  Uiso   1.00
H141   H     0.68643   0.11790   0.39855   0.00000  Uiso   1.00
H142   H     0.72667   0.13652   0.04861   0.00000  Uiso   1.00
H143   H     0.88494   0.24233   0.38376   0.00000  Uiso   1.00
H144   H     0.90216   0.01352   0.25676   0.00000  Uiso   1.00
N145   N     0.98241   0.18074   0.26416   0.00000  Uiso   1.00
N146   N     0.68426   0.15259   0.23584   0.00000  Uiso   1.00
O147   O     0.79464   0.23807   0.24633   0.00000  Uiso   1.00
O148   O     0.89524   0.24755   0.25587   0.00000  Uiso   1.00
O149   O     0.75848   0.15960   0.31839   0.00000  Uiso   1.00
O150   O     0.85908   0.16908   0.32793   0.00000  Uiso   1.00
O151   O     0.77142   0.08578   0.24413   0.00000  Uiso   1.00
O152   O     0.87203   0.09526   0.25367   0.00000  Uiso   1.00
O153   O     0.80758   0.16425   0.17207   0.00000  Uiso   1.00
O154   O     0.90819   0.17373   0.18161   0.00000  Uiso   1.00
C155   C     0.66863   0.20818   0.30757   0.00000  Uiso   1.00
H156   H     0.69864   0.24734   0.30426   0.00000  Uiso   1.00
O157   O     0.98190   0.18908   0.34974   0.00000  Uiso   1.00
O158   O     0.97028   0.09761   0.49226   0.00000  Uiso   1.00
C159   C     0.95938   0.07093   0.03855   0.00000  Uiso   1.00
H160   H     0.95860   0.09984   0.07149   0.00000  Uiso   1.00
H161   H     0.99559   0.04777   0.03788   0.00000  Uiso   1.00
C162   C     0.89546   0.03265   0.04559   0.00000  Uiso   1.00
H163   H     0.85904   0.05429   0.04297   0.00000  Uiso   1.00
H164   H     0.89621   0.00172   0.01449   0.00000  Uiso   1.00
C165   C     0.87833   0.00644   0.09748   0.00000  Uiso   1.00
H166   H     0.91476   0.31888   0.10167   0.00000  Uiso   1.00
H167   H     0.83298   0.31064   0.10051   0.00000  Uiso   1.00
H168   H     0.87370   0.03658   0.12908   0.00000  Uiso   1.00
C169   C     0.18187   0.60005   0.25142   0.00000  Uiso   1.00
C170   C     0.13754   0.50362   0.48851   0.00000  Uiso   1.00
C171   C     0.15299   0.51924   0.43694   0.00000  Uiso   1.00
C172   C     0.18438   0.51742   0.01873   0.00000  Uiso   1.00
C173   C     0.24254   0.55177   0.49914   0.00000  Uiso   1.00
C174   C     0.25292   0.57291   0.45092   0.00000  Uiso   1.00
C175   C     0.20860   0.55722   0.42038   0.00000  Uiso   1.00
C176   C     0.17560   0.49735   0.06757   0.00000  Uiso   1.00
C177   C     0.27786   0.54701   0.07805   0.00000  Uiso   1.00
C178   C     0.11196   0.49708   0.40352   0.00000  Uiso   1.00
C179   C     0.19033   0.65614   0.25206   0.00000  Uiso   1.00
C180   C     0.13318   0.49883   0.34726   0.00000  Uiso   1.00
C181   C     0.14333   0.34387   0.24713   0.00000  Uiso   1.00
C182   C     0.15158   0.39995   0.24827   0.00000  Uiso   1.00
C183   C     0.20038   0.50408   0.15302   0.00000  Uiso   1.00
C184   C     0.28918   0.56543   0.02851   0.00000  Uiso   1.00
C185   C     0.22017   0.51412   0.09815   0.00000  Uiso   1.00
C186   C     0.05186   0.46771   0.42371   0.00000  Uiso   1.00
C187   C     0.03242   0.45748   0.47580   0.00000  Uiso   1.00
C188   C     0.07572   0.47562   0.00813   0.00000  Uiso   1.00
Cu189  Cu    0.10710   0.49439   0.24435   0.00000  Uiso   1.00
Cu190  Cu    0.22623   0.50561   0.25565   0.00000  Uiso   1.00
H191   H     0.31279   0.56046   0.10136   0.00000  Uiso   1.00
H192   H     0.09824   0.65317   0.24224   0.00000  Uiso   1.00
H193   H     0.33207   0.46442   0.20676   0.00000  Uiso   1.00
H194   H     0.29589   0.60113   0.43640   0.00000  Uiso   1.00
H195   H     0.00029   0.59170   0.01374   0.00000  Uiso   1.00
H196   H     0.13384   0.46887   0.08333   0.00000  Uiso   1.00
H197   H     0.01976   0.45124   0.39855   0.00000  Uiso   1.00
H198   H     0.06001   0.46986   0.04861   0.00000  Uiso   1.00
H199   H     0.21828   0.57566   0.38376   0.00000  Uiso   1.00
H200   H     0.23549   0.34685   0.25676   0.00000  Uiso   1.00
N201   N     0.31574   0.51407   0.26416   0.00000  Uiso   1.00
N202   N     0.01759   0.48593   0.23584   0.00000  Uiso   1.00
O203   O     0.12797   0.57141   0.24633   0.00000  Uiso   1.00
O204   O     0.22858   0.58089   0.25587   0.00000  Uiso   1.00
O205   O     0.09181   0.49293   0.31839   0.00000  Uiso   1.00
O206   O     0.19242   0.50241   0.32793   0.00000  Uiso   1.00
O207   O     0.10476   0.41911   0.24413   0.00000  Uiso   1.00
O208   O     0.20536   0.42859   0.25367   0.00000  Uiso   1.00
O209   O     0.14092   0.49759   0.17207   0.00000  Uiso   1.00
O210   O     0.24152   0.50707   0.18161   0.00000  Uiso   1.00
C211   C     0.00197   0.54152   0.30757   0.00000  Uiso   1.00
H212   H     0.03198   0.58068   0.30426   0.00000  Uiso   1.00
O213   O     0.31523   0.52241   0.34974   0.00000  Uiso   1.00
O214   O     0.30361   0.43095   0.49226   0.00000  Uiso   1.00
C215   C     0.29272   0.40426   0.03855   0.00000  Uiso   1.00
H216   H     0.29193   0.43317   0.07149   0.00000  Uiso   1.00
H217   H     0.32892   0.38110   0.03788   0.00000  Uiso   1.00
C218   C     0.22879   0.36598   0.04559   0.00000  Uiso   1.00
H219   H     0.19237   0.38762   0.04297   0.00000  Uiso   1.00
H220   H     0.22954   0.33505   0.01449   0.00000  Uiso   1.00
C221   C     0.21166   0.33978   0.09748   0.00000  Uiso   1.00
H222   H     0.24809   0.65221   0.10167   0.00000  Uiso   1.00
H223   H     0.16632   0.64398   0.10051   0.00000  Uiso   1.00
H224   H     0.20703   0.36991   0.12908   0.00000  Uiso   1.00
C225   C     0.51521   0.60005   0.25142   0.00000  Uiso   1.00
C226   C     0.47087   0.50362   0.48851   0.00000  Uiso   1.00
C227   C     0.48633   0.51924   0.43694   0.00000  Uiso   1.00
C228   C     0.51771   0.51742   0.01873   0.00000  Uiso   1.00
C229   C     0.57587   0.55177   0.49914   0.00000  Uiso   1.00
C230   C     0.58626   0.57291   0.45092   0.00000  Uiso   1.00
C231   C     0.54194   0.55722   0.42038   0.00000  Uiso   1.00
C232   C     0.50893   0.49735   0.06757   0.00000  Uiso   1.00
C233   C     0.61119   0.54701   0.07805   0.00000  Uiso   1.00
C234   C     0.44529   0.49708   0.40352   0.00000  Uiso   1.00
C235   C     0.52366   0.65614   0.25206   0.00000  Uiso   1.00
C236   C     0.46651   0.49883   0.34726   0.00000  Uiso   1.00
C237   C     0.47666   0.34387   0.24713   0.00000  Uiso   1.00
C238   C     0.48491   0.39995   0.24827   0.00000  Uiso   1.00
C239   C     0.53371   0.50408   0.15302   0.00000  Uiso   1.00
C240   C     0.62252   0.56543   0.02851   0.00000  Uiso   1.00
C241   C     0.55351   0.51412   0.09815   0.00000  Uiso   1.00
C242   C     0.38519   0.46771   0.42371   0.00000  Uiso   1.00
C243   C     0.36575   0.45748   0.47580   0.00000  Uiso   1.00
C244   C     0.40905   0.47562   0.00813   0.00000  Uiso   1.00
Cu245  Cu    0.44043   0.49439   0.24435   0.00000  Uiso   1.00
Cu246  Cu    0.55957   0.50561   0.25565   0.00000  Uiso   1.00
H247   H     0.64612   0.56046   0.10136   0.00000  Uiso   1.00
H248   H     0.43157   0.65317   0.24224   0.00000  Uiso   1.00
H249   H     0.66541   0.46442   0.20676   0.00000  Uiso   1.00
H250   H     0.62923   0.60113   0.43640   0.00000  Uiso   1.00
H251   H     0.33363   0.59170   0.01374   0.00000  Uiso   1.00
H252   H     0.46717   0.46887   0.08333   0.00000  Uiso   1.00
H253   H     0.35310   0.45124   0.39855   0.00000  Uiso   1.00
H254   H     0.39334   0.46986   0.04861   0.00000  Uiso   1.00
H255   H     0.55161   0.57566   0.38376   0.00000  Uiso   1.00
H256   H     0.56883   0.34685   0.25676   0.00000  Uiso   1.00
N257   N     0.64908   0.51407   0.26416   0.00000  Uiso   1.00
N258   N     0.35092   0.48593   0.23584   0.00000  Uiso   1.00
O259   O     0.46131   0.57141   0.24633   0.00000  Uiso   1.00
O260   O     0.56191   0.58089   0.25587   0.00000  Uiso   1.00
O261   O     0.42515   0.49293   0.31839   0.00000  Uiso   1.00
O262   O     0.52575   0.50241   0.32793   0.00000  Uiso   1.00
O263   O     0.43809   0.41911   0.24413   0.00000  Uiso   1.00
O264   O     0.53869   0.42859   0.25367   0.00000  Uiso   1.00
O265   O     0.47425   0.49759   0.17207   0.00000  Uiso   1.00
O266   O     0.57485   0.50707   0.18161   0.00000  Uiso   1.00
C267   C     0.33530   0.54152   0.30757   0.00000  Uiso   1.00
H268   H     0.36531   0.58068   0.30426   0.00000  Uiso   1.00
O269   O     0.64856   0.52241   0.34974   0.00000  Uiso   1.00
O270   O     0.63694   0.43095   0.49226   0.00000  Uiso   1.00
C271   C     0.62605   0.40426   0.03855   0.00000  Uiso   1.00
H272   H     0.62526   0.43317   0.07149   0.00000  Uiso   1.00
H273   H     0.66225   0.38110   0.03788   0.00000  Uiso   1.00
C274   C     0.56212   0.36598   0.04559   0.00000  Uiso   1.00
H275   H     0.52571   0.38762   0.04297   0.00000  Uiso   1.00
H276   H     0.56288   0.33505   0.01449   0.00000  Uiso   1.00
C277   C     0.54499   0.33978   0.09748   0.00000  Uiso   1.00
H278   H     0.58142   0.65221   0.10167   0.00000  Uiso   1.00
H279   H     0.49965   0.64398   0.10051   0.00000  Uiso   1.00
H280   H     0.54036   0.36991   0.12908   0.00000  Uiso   1.00
C281   C     0.84854   0.60005   0.25142   0.00000  Uiso   1.00
C282   C     0.80421   0.50362   0.48851   0.00000  Uiso   1.00
C283   C     0.81966   0.51924   0.43694   0.00000  Uiso   1.00
C284   C     0.85105   0.51742   0.01873   0.00000  Uiso   1.00
C285   C     0.90920   0.55177   0.49914   0.00000  Uiso   1.00
C286   C     0.91959   0.57291   0.45092   0.00000  Uiso   1.00
C287   C     0.87527   0.55722   0.42038   0.00000  Uiso   1.00
C288   C     0.84226   0.49735   0.06757   0.00000  Uiso   1.00
C289   C     0.94453   0.54701   0.07805   0.00000  Uiso   1.00
C290   C     0.77862   0.49708   0.40352   0.00000  Uiso   1.00
C291   C     0.85699   0.65614   0.25206   0.00000  Uiso   1.00
C292   C     0.79984   0.49883   0.34726   0.00000  Uiso   1.00
C293   C     0.80999   0.34387   0.24713   0.00000  Uiso   1.00
C294   C     0.81825   0.39995   0.24827   0.00000  Uiso   1.00
C295   C     0.86704   0.50408   0.15302   0.00000  Uiso   1.00
C296   C     0.95585   0.56543   0.02851   0.00000  Uiso   1.00
C297   C     0.88684   0.51412   0.09815   0.00000  Uiso   1.00
C298   C     0.71853   0.46771   0.42371   0.00000  Uiso   1.00
C299   C     0.69908   0.45748   0.47580   0.00000  Uiso   1.00
C300   C     0.74239   0.47562   0.00813   0.00000  Uiso   1.00
Cu301  Cu    0.77377   0.49439   0.24435   0.00000  Uiso   1.00
Cu302  Cu    0.89290   0.50561   0.25565   0.00000  Uiso   1.00
H303   H     0.97945   0.56046   0.10136   0.00000  Uiso   1.00
H304   H     0.76491   0.65317   0.24224   0.00000  Uiso   1.00
H305   H     0.99874   0.46442   0.20676   0.00000  Uiso   1.00
H306   H     0.96256   0.60113   0.43640   0.00000  Uiso   1.00
H307   H     0.66696   0.59170   0.01374   0.00000  Uiso   1.00
H308   H     0.80050   0.46887   0.08333   0.00000  Uiso   1.00
H309   H     0.68643   0.45124   0.39855   0.00000  Uiso   1.00
H310   H     0.72667   0.46986   0.04861   0.00000  Uiso   1.00
H311   H     0.88494   0.57566   0.38376   0.00000  Uiso   1.00
H312   H     0.90216   0.34685   0.25676   0.00000  Uiso   1.00
N313   N     0.98241   0.51407   0.26416   0.00000  Uiso   1.00
N314   N     0.68426   0.48593   0.23584   0.00000  Uiso   1.00
O315   O     0.79464   0.57141   0.24633   0.00000  Uiso   1.00
O316   O     0.89524   0.58089   0.25587   0.00000  Uiso   1.00
O317   O     0.75848   0.49293   0.31839   0.00000  Uiso   1.00
O318   O     0.85908   0.50241   0.32793   0.00000  Uiso   1.00
O319   O     0.77142   0.41911   0.24413   0.00000  Uiso   1.00
O320   O     0.87203   0.42859   0.25367   0.00000  Uiso   1.00
O321   O     0.80758   0.49759   0.17207   0.00000  Uiso   1.00
O322   O     0.90819   0.50707   0.18161   0.00000  Uiso   1.00
C323   C     0.66863   0.54152   0.30757   0.00000  Uiso   1.00
H324   H     0.69864   0.58068   0.30426   0.00000  Uiso   1.00
O325   O     0.98190   0.52241   0.34974   0.00000  Uiso   1.00
O326   O     0.97028   0.43095   0.49226   0.00000  Uiso   1.00
C327   C     0.95938   0.40426   0.03855   0.00000  Uiso   1.00
H328   H     0.95860   0.43317   0.07149   0.00000  Uiso   1.00
H329   H     0.99559   0.38110   0.03788   0.00000  Uiso   1.00
C330   C     0.89546   0.36598   0.04559   0.00000  Uiso   1.00
H331   H     0.85904   0.38762   0.04297   0.00000  Uiso   1.00
H332   H     0.89621   0.33505   0.01449   0.00000  Uiso   1.00
C333   C     0.87833   0.33978   0.09748   0.00000  Uiso   1.00
H334   H     0.91476   0.65221   0.10167   0.00000  Uiso   1.00
H335   H     0.83298   0.64398   0.10051   0.00000  Uiso   1.00
H336   H     0.87370   0.36991   0.12908   0.00000  Uiso   1.00
C337   C     0.18187   0.93339   0.25142   0.00000  Uiso   1.00
C338   C     0.13754   0.83695   0.48851   0.00000  Uiso   1.00
C339   C     0.15299   0.85257   0.43694   0.00000  Uiso   1.00
C340   C     0.18438   0.85076   0.01873   0.00000  Uiso   1.00
C341   C     0.24254   0.88510   0.49914   0.00000  Uiso   1.00
C342   C     0.25292   0.90624   0.45092   0.00000  Uiso   1.00
C343   C     0.20860   0.89056   0.42038   0.00000  Uiso   1.00
C344   C     0.17560   0.83069   0.06757   0.00000  Uiso   1.00
C345   C     0.27786   0.88034   0.07805   0.00000  Uiso   1.00
C346   C     0.11196   0.83041   0.40352   0.00000  Uiso   1.00
C347   C     0.19033   0.98947   0.25206   0.00000  Uiso   1.00
C348   C     0.13318   0.83216   0.34726   0.00000  Uiso   1.00
C349   C     0.14333   0.67720   0.24713   0.00000  Uiso   1.00
C350   C     0.15158   0.73328   0.24827   0.00000  Uiso   1.00
C351   C     0.20038   0.83741   0.15302   0.00000  Uiso   1.00
C352   C     0.28918   0.89876   0.02851   0.00000  Uiso   1.00
C353   C     0.22017   0.84746   0.09815   0.00000  Uiso   1.00
C354   C     0.05186   0.80104   0.42371   0.00000  Uiso   1.00
C355   C     0.03242   0.79081   0.47580   0.00000  Uiso   1.00
C356   C     0.07572   0.80896   0.00813   0.00000  Uiso   1.00
Cu357  Cu    0.10710   0.82772   0.24435   0.00000  Uiso   1.00
Cu358  Cu    0.22623   0.83895   0.25565   0.00000  Uiso   1.00
H359   H     0.31279   0.89380   0.10136   0.00000  Uiso   1.00
H360   H     0.09824   0.98651   0.24224   0.00000  Uiso   1.00
H361   H     0.33207   0.79775   0.20676   0.00000  Uiso   1.00
H362   H     0.29589   0.93446   0.43640   0.00000  Uiso   1.00
H363   H     0.00029   0.92503   0.01374   0.00000  Uiso   1.00
H364   H     0.13384   0.80221   0.08333   0.00000  Uiso   1.00
H365   H     0.01976   0.78457   0.39855   0.00000  Uiso   1.00
H366   H     0.06001   0.80319   0.04861   0.00000  Uiso   1.00
H367   H     0.21828   0.90900   0.38376   0.00000  Uiso   1.00
H368   H     0.23549   0.68019   0.25676   0.00000  Uiso   1.00
N369   N     0.31574   0.84741   0.26416   0.00000  Uiso   1.00
N370   N     0.01759   0.81926   0.23584   0.00000  Uiso   1.00
O371   O     0.12797   0.90474   0.24633   0.00000  Uiso   1.00
O372   O     0.22858   0.91422   0.25587   0.00000  Uiso   1.00
O373   O     0.09181   0.82627   0.31839   0.00000  Uiso   1.00
O374   O     0.19242   0.83575   0.32793   0.00000  Uiso   1.00
O375   O     0.10476   0.75245   0.24413   0.00000  Uiso   1.00
O376   O     0.20536   0.76193   0.25367   0.00000  Uiso   1.00
O377   O     0.14092   0.83092   0.17207   0.00000  Uiso   1.00
O378   O     0.24152   0.84040   0.18161   0.00000  Uiso   1.00
C379   C     0.00197   0.87485   0.30757   0.00000  Uiso   1.00
H380   H     0.03198   0.91401   0.30426   0.00000  Uiso   1.00
O381   O     0.31523   0.85574   0.34974   0.00000  Uiso   1.00
O382   O     0.30361   0.76428   0.49226   0.00000  Uiso   1.00
C383   C     0.29272   0.73760   0.03855   0.00000  Uiso   1.00
H384   H     0.29193   0.76650   0.07149   0.00000  Uiso   1.00
H385   H     0.32892   0.71443   0.03788   0.00000  Uiso   1.00
C386   C     0.22879   0.69931   0.04559   0.00000  Uiso   1.00
H387   H     0.19237   0.72095   0.04297   0.00000  Uiso   1.00
H388   H     0.22954   0.66839   0.01449   0.00000  Uiso   1.00
C389   C     0.21166   0.67311   0.09748   0.00000  Uiso   1.00
H390   H     0.24809   0.98555   0.10167   0.00000  Uiso   1.00
H391   H     0.16632   0.97731   0.10051   0.00000  Uiso   1.00
H392   H     0.20703   0.70324   0.12908   0.00000  Uiso   1.00
C393   C     0.51521   0.93339   0.25142   0.00000  Uiso   1.00
C394   C     0.47087   0.83695   0.48851   0.00000  Uiso   1.00
C395   C     0.48633   0.85257   0.43694   0.00000  Uiso   1.00
C396   C     0.51771   0.85076   0.01873   0.00000  Uiso   1.00
C397   C     0.57587   0.88510   0.49914   0.00000  Uiso   1.00
C398   C     0.58626   0.90624   0.45092   0.00000  Uiso   1.00
C399   C     0.54194   0.89056   0.42038   0.00000  Uiso   1.00
C400   C     0.50893   0.83069   0.06757   0.00000  Uiso   1.00
C401   C     0.61119   0.88034   0.07805   0.00000  Uiso   1.00
C402   C     0.44529   0.83041   0.40352   0.00000  Uiso   1.00
C403   C     0.52366   0.98947   0.25206   0.00000  Uiso   1.00
C404   C     0.46651   0.83216   0.34726   0.00000  Uiso   1.00
C405   C     0.47666   0.67720   0.24713   0.00000  Uiso   1.00
C406   C     0.48491   0.73328   0.24827   0.00000  Uiso   1.00
C407   C     0.53371   0.83741   0.15302   0.00000  Uiso   1.00
C408   C     0.62252   0.89876   0.02851   0.00000  Uiso   1.00
C409   C     0.55351   0.84746   0.09815   0.00000  Uiso   1.00
C410   C     0.38519   0.80104   0.42371   0.00000  Uiso   1.00
C411   C     0.36575   0.79081   0.47580   0.00000  Uiso   1.00
C412   C     0.40905   0.80896   0.00813   0.00000  Uiso   1.00
Cu413  Cu    0.44043   0.82772   0.24435   0.00000  Uiso   1.00
Cu414  Cu    0.55957   0.83895   0.25565   0.00000  Uiso   1.00
H415   H     0.64612   0.89380   0.10136   0.00000  Uiso   1.00
H416   H     0.43157   0.98651   0.24224   0.00000  Uiso   1.00
H417   H     0.66541   0.79775   0.20676   0.00000  Uiso   1.00
H418   H     0.62923   0.93446   0.43640   0.00000  Uiso   1.00
H419   H     0.33363   0.92503   0.01374   0.00000  Uiso   1.00
H420   H     0.46717   0.80221   0.08333   0.00000  Uiso   1.00
H421   H     0.35310   0.78457   0.39855   0.00000  Uiso   1.00
H422   H     0.39334   0.80319   0.04861   0.00000  Uiso   1.00
H423   H     0.55161   0.90900   0.38376   0.00000  Uiso   1.00
H424   H     0.56883   0.68019   0.25676   0.00000  Uiso   1.00
N425   N     0.64908   0.84741   0.26416   0.00000  Uiso   1.00
N426   N     0.35092   0.81926   0.23584   0.00000  Uiso   1.00
O427   O     0.46131   0.90474   0.24633   0.00000  Uiso   1.00
O428   O     0.56191   0.91422   0.25587   0.00000  Uiso   1.00
O429   O     0.42515   0.82627   0.31839   0.00000  Uiso   1.00
O430   O     0.52575   0.83575   0.32793   0.00000  Uiso   1.00
O431   O     0.43809   0.75245   0.24413   0.00000  Uiso   1.00
O432   O     0.53869   0.76193   0.25367   0.00000  Uiso   1.00
O433   O     0.47425   0.83092   0.17207   0.00000  Uiso   1.00
O434   O     0.57485   0.84040   0.18161   0.00000  Uiso   1.00
C435   C     0.33530   0.87485   0.30757   0.00000  Uiso   1.00
H436   H     0.36531   0.91401   0.30426   0.00000  Uiso   1.00
O437   O     0.64856   0.85574   0.34974   0.00000  Uiso   1.00
O438   O     0.63694   0.76428   0.49226   0.00000  Uiso   1.00
C439   C     0.62605   0.73760   0.03855   0.00000  Uiso   1.00
H440   H     0.62526   0.76650   0.07149   0.00000  Uiso   1.00
H441   H     0.66225   0.71443   0.03788   0.00000  Uiso   1.00
C442   C     0.56212   0.69931   0.04559   0.00000  Uiso   1.00
H443   H     0.52571   0.72095   0.04297   0.00000  Uiso   1.00
H444   H     0.56288   0.66839   0.01449   0.00000  Uiso   1.00
C445   C     0.54499   0.67311   0.09748   0.00000  Uiso   1.00
H446   H     0.58142   0.98555   0.10167   0.00000  Uiso   1.00
H447   H     0.49965   0.97731   0.10051   0.00000  Uiso   1.00
H448   H     0.54036   0.70324   0.12908   0.00000  Uiso   1.00
C449   C     0.84854   0.93339   0.25142   0.00000  Uiso   1.00
C450   C     0.80421   0.83695   0.48851   0.00000  Uiso   1.00
C451   C     0.81966   0.85257   0.43694   0.00000  Uiso   1.00
C452   C     0.85105   0.85076   0.01873   0.00000  Uiso   1.00
C453   C     0.90920   0.88510   0.49914   0.00000  Uiso   1.00
C454   C     0.91959   0.90624   0.45092   0.00000  Uiso   1.00
C455   C     0.87527   0.89056   0.42038   0.00000  Uiso   1.00
C456   C     0.84226   0.83069   0.06757   0.00000  Uiso   1.00
C457   C     0.94453   0.88034   0.07805   0.00000  Uiso   1.00
C458   C     0.77862   0.83041   0.40352   0.00000  Uiso   1.00
C459   C     0.85699   0.98947   0.25206   0.00000  Uiso   1.00
C460   C     0.79984   0.83216   0.34726   0.00000  Uiso   1.00
C461   C     0.80999   0.67720   0.24713   0.00000  Uiso   1.00
C462   C     0.81825   0.73328   0.24827   0.00000  Uiso   1.00
C463   C     0.86704   0.83741   0.15302   0.00000  Uiso   1.00
C464   C     0.95585   0.89876   0.02851   0.00000  Uiso   1.00
C465   C     0.88684   0.84746   0.09815   0.00000  Uiso   1.00
C466   C     0.71853   0.80104   0.42371   0.00000  Uiso   1.00
C467   C     0.69908   0.79081   0.47580   0.00000  Uiso   1.00
C468   C     0.74239   0.80896   0.00813   0.00000  Uiso   1.00
Cu469  Cu    0.77377   0.82772   0.24435   0.00000  Uiso   1.00
Cu470  Cu    0.89290   0.83895   0.25565   0.00000  Uiso   1.00
H471   H     0.97945   0.89380   0.10136   0.00000  Uiso   1.00
H472   H     0.76491   0.98651   0.24224   0.00000  Uiso   1.00
H473   H     0.99874   0.79775   0.20676   0.00000  Uiso   1.00
H474   H     0.96256   0.93446   0.43640   0.00000  Uiso   1.00
H475   H     0.66696   0.92503   0.01374   0.00000  Uiso   1.00
H476   H     0.80050   0.80221   0.08333   0.00000  Uiso   1.00
H477   H     0.68643   0.78457   0.39855   0.00000  Uiso   1.00
H478   H     0.72667   0.80319   0.04861   0.00000  Uiso   1.00
H479   H     0.88494   0.90900   0.38376   0.00000  Uiso   1.00
H480   H     0.90216   0.68019   0.25676   0.00000  Uiso   1.00
N481   N     0.98241   0.84741   0.26416   0.00000  Uiso   1.00
N482   N     0.68426   0.81926   0.23584   0.00000  Uiso   1.00
O483   O     0.79464   0.90474   0.24633   0.00000  Uiso   1.00
O484   O     0.89524   0.91422   0.25587   0.00000  Uiso   1.00
O485   O     0.75848   0.82627   0.31839   0.00000  Uiso   1.00
O486   O     0.85908   0.83575   0.32793   0.00000  Uiso   1.00
O487   O     0.77142   0.75245   0.24413   0.00000  Uiso   1.00
O488   O     0.87203   0.76193   0.25367   0.00000  Uiso   1.00
O489   O     0.80758   0.83092   0.17207   0.00000  Uiso   1.00
O490   O     0.90819   0.84040   0.18161   0.00000  Uiso   1.00
C491   C     0.66863   0.87485   0.30757   0.00000  Uiso   1.00
H492   H     0.69864   0.91401   0.30426   0.00000  Uiso   1.00
O493   O     0.98190   0.85574   0.34974   0.00000  Uiso   1.00
O494   O     0.97028   0.76428   0.49226   0.00000  Uiso   1.00
C495   C     0.95938   0.73760   0.03855   0.00000  Uiso   1.00
H496   H     0.95860   0.76650   0.07149   0.00000  Uiso   1.00
H497   H     0.99559   0.71443   0.03788   0.00000  Uiso   1.00
C498   C     0.89546   0.69931   0.04559   0.00000  Uiso   1.00
H499   H     0.85904   0.72095   0.04297   0.00000  Uiso   1.00
H500   H     0.89621   0.66839   0.01449   0.00000  Uiso   1.00
C501   C     0.87833   0.67311   0.09748   0.00000  Uiso   1.00
H502   H     0.91476   0.98555   0.10167   0.00000  Uiso   1.00
H503   H     0.83298   0.97731   0.10051   0.00000  Uiso   1.00
H504   H     0.87370   0.70324   0.12908   0.00000  Uiso   1.00
C505   C     0.18187   0.26672   0.75142   0.00000  Uiso   1.00
C506   C     0.13754   0.17029   0.98851   0.00000  Uiso   1.00
C507   C     0.15299   0.18590   0.93694   0.00000  Uiso   1.00
C508   C     0.18438   0.18409   0.51873   0.00000  Uiso   1.00
C509   C     0.24254   0.21843   0.99914   0.00000  Uiso   1.00
C510   C     0.25292   0.23957   0.95092   0.00000  Uiso   1.00
C511   C     0.20860   0.22389   0.92038   0.00000  Uiso   1.00
C512   C     0.17560   0.16402   0.56757   0.00000  Uiso   1.00
C513   C     0.27786   0.21368   0.57805   0.00000  Uiso   1.00
C514   C     0.11196   0.16374   0.90352   0.00000  Uiso   1.00
C515   C     0.19033   0.32280   0.75206   0.00000  Uiso   1.00
C516   C     0.13318   0.16550   0.84726   0.00000  Uiso   1.00
C517   C     0.14333   0.01053   0.74713   0.00000  Uiso   1.00
C518   C     0.15158   0.06662   0.74827   0.00000  Uiso   1.00
C519   C     0.20038   0.17074   0.65302   0.00000  Uiso   1.00
C520   C     0.28918   0.23209   0.52851   0.00000  Uiso   1.00
C521   C     0.22017   0.18079   0.59815   0.00000  Uiso   1.00
C522   C     0.05186   0.13438   0.92371   0.00000  Uiso   1.00
C523   C     0.03242   0.12414   0.97580   0.00000  Uiso   1.00
C524   C     0.07572   0.14229   0.50813   0.00000  Uiso   1.00
Cu525  Cu    0.10710   0.16105   0.74435   0.00000  Uiso   1.00
Cu526  Cu    0.22623   0.17228   0.75565   0.00000  Uiso   1.00
H527   H     0.31279   0.22713   0.60136   0.00000  Uiso   1.00
H528   H     0.09824   0.31984   0.74224   0.00000  Uiso   1.00
H529   H     0.33207   0.13109   0.70676   0.00000  Uiso   1.00
H530   H     0.29589   0.26780   0.93640   0.00000  Uiso   1.00
H531   H     0.00029   0.25836   0.51374   0.00000  Uiso   1.00
H532   H     0.13384   0.13554   0.58333   0.00000  Uiso   1.00
H533   H     0.01976   0.11790   0.89855   0.00000  Uiso   1.00
H534   H     0.06001   0.13652   0.54861   0.00000  Uiso   1.00
H535   H     0.21828   0.24233   0.88376   0.00000  Uiso   1.00
H536   H     0.23549   0.01352   0.75676   0.00000  Uiso   1.00
N537   N     0.31574   0.18074   0.76416   0.00000  Uiso   1.00
N538   N     0.01759   0.15259   0.73584   0.00000  Uiso   1.00
O539   O     0.12797   0.23807   0.74633   0.00000  Uiso   1.00
O540   O     0.22858   0.24755   0.75587   0.00000  Uiso   1.00
O541   O     0.09181   0.15960   0.81839   0.00000  Uiso   1.00
O542   O     0.19242   0.16908   0.82793   0.00000  Uiso   1.00
O543   O     0.10476   0.08578   0.74413   0.00000  Uiso   1.00
O544   O     0.20536   0.09526   0.75367   0.00000  Uiso   1.00
O545   O     0.14092   0.16425   0.67207   0.00000  Uiso   1.00
O546   O     0.24152   0.17373   0.68161   0.00000  Uiso   1.00
C547   C     0.00197   0.20818   0.80757   0.00000  Uiso   1.00
H548   H     0.03198   0.24734   0.80426   0.00000  Uiso   1.00
O549   O     0.31523   0.18908   0.84974   0.00000  Uiso   1.00
O550   O     0.30361   0.09761   0.99226   0.00000  Uiso   1.00
C551   C     0.29272   0.07093   0.53855   0.00000  Uiso   1.00
H552   H     0.29193   0.09984   0.57149   0.00000  Uiso   1.00
H553   H     0.32892   0.04777   0.53788   0.00000  Uiso   1.00
C554   C     0.22879   0.03265   0.54559   0.00000  Uiso   1.00
H555   H     0.19237   0.05429   0.54297   0.00000  Uiso   1.00
H556   H     0.22954   0.00172   0.51449   0.00000  Uiso   1.00
C557   C     0.21166   0.00644   0.59748   0.00000  Uiso   1.00
H558   H     0.24809   0.31888   0.60167   0.00000  Uiso   1.00
H559   H     0.16632   0.31064   0.60051   0.00000  Uiso   1.00
H560   H     0.20703   0.03658   0.62908   0.00000  Uiso   1.00
C561   C     0.51521   0.26672   0.75142   0.00000  Uiso   1.00
C562   C     0.47087   0.17029   0.98851   0.00000  Uiso   1.00
C563   C     0.48633   0.18590   0.93694   0.00000  Uiso   1.00
C564   C     0.51771   0.18409   0.51873   0.00000  Uiso   1.00
C565   C     0.57587   0.21843   0.99914   0.00000  Uiso   1.00
C566   C     0.58626   0.23957   0.95092   0.00000  Uiso   1.00
C567   C     0.54194   0.22389   0.92038   0.00000  Uiso   1.00
C568   C     0.50893   0.16402   0.56757   0.00000  Uiso   1.00
C569   C     0.61119   0.21368   0.57805   0.00000  Uiso   1.00
C570   C     0.44529   0.16374   0.90352   0.00000  Uiso   1.00
C571   C     0.52366   0.32280   0.75206   0.00000  Uiso   1.00
C572   C     0.46651   0.16550   0.84726   0.00000  Uiso   1.00
C573   C     0.47666   0.01053   0.74713   0.00000  Uiso   1.00
C574   C     0.48491   0.06662   0.74827   0.00000  Uiso   1.00
C575   C     0.53371   0.17074   0.65302   0.00000  Uiso   1.00
C576   C     0.62252   0.23209   0.52851   0.00000  Uiso   1.00
C577   C     0.55351   0.18079   0.59815   0.00000  Uiso   1.00
C578   C     0.38519   0.13438   0.92371   0.00000  Uiso   1.00
C579   C     0.36575   0.12414   0.97580   0.00000  Uiso   1.00
C580   C     0.40905   0.14229   0.50813   0.00000  Uiso   1.00
Cu581  Cu    0.44043   0.16105   0.74435   0.00000  Uiso   1.00
Cu582  Cu    0.55957   0.17228   0.75565   0.00000  Uiso   1.00
H583   H     0.64612   0.22713   0.60136   0.00000  Uiso   1.00
H584   H     0.43157   0.31984   0.74224   0.00000  Uiso   1.00
H585   H     0.66541   0.13109   0.70676   0.00000  Uiso   1.00
H586   H     0.62923   0.26780   0.93640   0.00000  Uiso   1.00
H587   H     0.33363   0.25836   0.51374   0.00000  Uiso   1.00
H588   H     0.46717   0.13554   0.58333   0.00000  Uiso   1.00
H589   H     0.35310   0.11790   0.89855   0.00000  Uiso   1.00
H590   H     0.39334   0.13652   0.54861   0.00000  Uiso   1.00
H591   H     0.55161   0.24233   0.88376   0.00000  Uiso   1.00
H592   H     0.56883   0.01352   0.75676   0.00000  Uiso   1.00
N593   N     0.64908   0.18074   0.76416   0.00000  Uiso   1.00
N594   N     0.35092   0.15259   0.73584   0.00000  Uiso   1.00
O595   O     0.46131   0.23807   0.74633   0.00000  Uiso   1.00
O596   O     0.56191   0.24755   0.75587   0.00000  Uiso   1.00
O597   O     0.42515   0.15960   0.81839   0.00000  Uiso   1.00
O598   O     0.52575   0.16908   0.82793   0.00000  Uiso   1.00
O599   O     0.43809   0.08578   0.74413   0.00000  Uiso   1.00
O600   O     0.53869   0.09526   0.75367   0.00000  Uiso   1.00
O601   O     0.47425   0.16425   0.67207   0.00000  Uiso   1.00
O602   O     0.57485   0.17373   0.68161   0.00000  Uiso   1.00
C603   C     0.33530   0.20818   0.80757   0.00000  Uiso   1.00
H604   H     0.36531   0.24734   0.80426   0.00000  Uiso   1.00
O605   O     0.64856   0.18908   0.84974   0.00000  Uiso   1.00
O606   O     0.63694   0.09761   0.99226   0.00000  Uiso   1.00
C607   C     0.62605   0.07093   0.53855   0.00000  Uiso   1.00
H608   H     0.62526   0.09984   0.57149   0.00000  Uiso   1.00
H609   H     0.66225   0.04777   0.53788   0.00000  Uiso   1.00
C610   C     0.56212   0.03265   0.54559   0.00000  Uiso   1.00
H611   H     0.52571   0.05429   0.54297   0.00000  Uiso   1.00
H612   H     0.56288   0.00172   0.51449   0.00000  Uiso   1.00
C613   C     0.54499   0.00644   0.59748   0.00000  Uiso   1.00
H614   H     0.58142   0.31888   0.60167   0.00000  Uiso   1.00
H615   H     0.49965   0.31064   0.60051   0.00000  Uiso   1.00
H616   H     0.54036   0.03658   0.62908   0.00000  Uiso   1.00
C617   C     0.84854   0.26672   0.75142   0.00000  Uiso   1.00
C618   C     0.80421   0.17029   0.98851   0.00000  Uiso   1.00
C619   C     0.81966   0.18590   0.93694   0.00000  Uiso   1.00
C620   C     0.85105   0.18409   0.51873   0.00000  Uiso   1.00
C621   C     0.90920   0.21843   0.99914   0.00000  Uiso   1.00
C622   C     0.91959   0.23957   0.95092   0.00000  Uiso   1.00
C623   C     0.87527   0.22389   0.92038   0.00000  Uiso   1.00
C624   C     0.84226   0.16402   0.56757   0.00000  Uiso   1.00
C625   C     0.94453   0.21368   0.57805   0.00000  Uiso   1.00
C626   C     0.77862   0.16374   0.90352   0.00000  Uiso   1.00
C627   C     0.85699   0.32280   0.75206   0.00000  Uiso   1.00
C628   C     0.79984   0.16550   0.84726   0.00000  Uiso   1.00
C629   C     0.80999   0.01053   0.74713   0.00000  Uiso   1.00
C630   C     0.81825   0.06662   0.74827   0.00000  Uiso   1.00
C631   C     0.86704   0.17074   0.65302   0.00000  Uiso   1.00
C632   C     0.95585   0.23209   0.52851   0.00000  Uiso   1.00
C633   C     0.88684   0.18079   0.59815   0.00000  Uiso   1.00
C634   C     0.71853   0.13438   0.92371   0.00000  Uiso   1.00
C635   C     0.69908   0.12414   0.97580   0.00000  Uiso   1.00
C636   C     0.74239   0.14229   0.50813   0.00000  Uiso   1.00
Cu637  Cu    0.77377   0.16105   0.74435   0.00000  Uiso   1.00
Cu638  Cu    0.89290   0.17228   0.75565   0.00000  Uiso   1.00
H639   H     0.97945   0.22713   0.60136   0.00000  Uiso   1.00
H640   H     0.76491   0.31984   0.74224   0.00000  Uiso   1.00
H641   H     0.99874   0.13109   0.70676   0.00000  Uiso   1.00
H642   H     0.96256   0.26780   0.93640   0.00000  Uiso   1.00
H643   H     0.66696   0.25836   0.51374   0.00000  Uiso   1.00
H644   H     0.80050   0.13554   0.58333   0.00000  Uiso   1.00
H645   H     0.68643   0.11790   0.89855   0.00000  Uiso   1.00
H646   H     0.72667   0.13652   0.54861   0.00000  Uiso   1.00
H647   H     0.88494   0.24233   0.88376   0.00000  Uiso   1.00
H648   H     0.90216   0.01352   0.75676   0.00000  Uiso   1.00
N649   N     0.98241   0.18074   0.76416   0.00000  Uiso   1.00
N650   N     0.68426   0.15259   0.73584   0.00000  Uiso   1.00
O651   O     0.79464   0.23807   0.74633   0.00000  Uiso   1.00
O652   O     0.89524   0.24755   0.75587   0.00000  Uiso   1.00
O653   O     0.75848   0.15960   0.81839   0.00000  Uiso   1.00
O654   O     0.85908   0.16908   0.82793   0.00000  Uiso   1.00
O655   O     0.77142   0.08578   0.74413   0.00000  Uiso   1.00
O656   O     0.87203   0.09526   0.75367   0.00000  Uiso   1.00
O657   O     0.80758   0.16425   0.67207   0.00000  Uiso   1.00
O658   O     0.90819   0.17373   0.68161   0.00000  Uiso   1.00
C659   C     0.66863   0.20818   0.80757   0.00000  Uiso   1.00
H660   H     0.69864   0.24734   0.80426   0.00000  Uiso   1.00
O661   O     0.98190   0.18908   0.84974   0.00000  Uiso   1.00
O662   O     0.97028   0.09761   0.99226   0.00000  Uiso   1.00
C663   C     0.95938   0.07093   0.53855   0.00000  Uiso   1.00
H664   H     0.95860   0.09984   0.57149   0.00000  Uiso   1.00
H665   H     0.99559   0.04777   0.53788   0.00000  Uiso   1.00
C666   C     0.89546   0.03265   0.54559   0.00000  Uiso   1.00
H667   H     0.85904   0.05429   0.54297   0.00000  Uiso   1.00
H668   H     0.89621   0.00172   0.51449   0.00000  Uiso   1.00
C669   C     0.87833   0.00644   0.59748   0.00000  Uiso   1.00
H670   H     0.91476   0.31888   0.60167   0.00000  Uiso   1.00
H671   H     0.83298   0.31064   0.60051   0.00000  Uiso   1.00
H672   H     0.87370   0.03658   0.62908   0.00000  Uiso   1.00
C673   C     0.18187   0.60005   0.75142   0.00000  Uiso   1.00
C674   C     0.13754   0.50362   0.98851   0.00000  Uiso   1.00
C675   C     0.15299   0.51924   0.93694   0.00000  Uiso   1.00
C676   C     0.18438   0.51742   0.51873   0.00000  Uiso   1.00
C677   C     0.24254   0.55177   0.99914   0.00000  Uiso   1.00
C678   C     0.25292   0.57291   0.95092   0.00000  Uiso   1.00
C679   C     0.20860   0.55722   0.92038   0.00000  Uiso   1.00
C680   C     0.17560   0.49735   0.56757   0.00000  Uiso   1.00
C681   C     0.27786   0.54701   0.57805   0.00000  Uiso   1.00
C682   C     0.11196   0.49708   0.90352   0.00000  Uiso   1.00
C683   C     0.19033   0.65614   0.75206   0.00000  Uiso   1.00
C684   C     0.13318   0.49883   0.84726   0.00000  Uiso   1.00
C685   C     0.14333   0.34387   0.74713   0.00000  Uiso   1.00
C686   C     0.15158   0.39995   0.74827   0.00000  Uiso   1.00
C687   C     0.20038   0.50408   0.65302   0.00000  Uiso   1.00
C688   C     0.28918   0.56543   0.52851   0.00000  Uiso   1.00
C689   C     0.22017   0.51412   0.59815   0.00000  Uiso   1.00
C690   C     0.05186   0.46771   0.92371   0.00000  Uiso   1.00
C691   C     0.03242   0.45748   0.97580   0.00000  Uiso   1.00
C692   C     0.07572   0.47562   0.50813   0.00000  Uiso   1.00
Cu693  Cu    0.10710   0.49439   0.74435   0.00000  Uiso   1.00
Cu694  Cu    0.22623   0.50561   0.75565   0.00000  Uiso   1.00
H695   H     0.31279   0.56046   0.60136   0.00000  Uiso   1.00
H696   H     0.09824   0.65317   0.74224   0.00000  Uiso   1.00
H697   H     0.33207   0.46442   0.70676   0.00000  Uiso   1.00
H698   H     0.29589   0.60113   0.93640   0.00000  Uiso   1.00
H699   H     0.00029   0.59170   0.51374   0.00000  Uiso   1.00
H700   H     0.13384   0.46887   0.58333   0.00000  Uiso   1.00
H701   H     0.01976   0.45124   0.89855   0.00000  Uiso   1.00
H702   H     0.06001   0.46986   0.54861   0.00000  Uiso   1.00
H703   H     0.21828   0.57566   0.88376   0.00000  Uiso   1.00
H704   H     0.23549   0.34685   0.75676   0.00000  Uiso   1.00
N705   N     0.31574   0.51407   0.76416   0.00000  Uiso   1.00
N706   N     0.01759   0.48593   0.73584   0.00000  Uiso   1.00
O707   O     0.12797   0.57141   0.74633   0.00000  Uiso   1.00
O708   O     0.22858   0.58089   0.75587   0.00000  Uiso   1.00
O709   O     0.09181   0.49293   0.81839   0.00000  Uiso   1.00
O710   O     0.19242   0.50241   0.82793   0.00000  Uiso   1.00
O711   O     0.10476   0.41911   0.74413   0.00000  Uiso   1.00
O712   O     0.20536   0.42859   0.75367   0.00000  Uiso   1.00
O713   O     0.14092   0.49759   0.67207   0.00000  Uiso   1.00
O714   O     0.24152   0.50707   0.68161   0.00000  Uiso   1.00
C715   C     0.00197   0.54152   0.80757   0.00000  Uiso   1.00
H716   H     0.03198   0.58068   0.80426   0.00000  Uiso   1.00
O717   O     0.31523   0.52241   0.84974   0.00000  Uiso   1.00
O718   O     0.30361   0.43095   0.99226   0.00000  Uiso   1.00
C719   C     0.29272   0.40426   0.53855   0.00000  Uiso   1.00
H720   H     0.29193   0.43317   0.57149   0.00000  Uiso   1.00
H721   H     0.32892   0.38110   0.53788   0.00000  Uiso   1.00
C722   C     0.22879   0.36598   0.54559   0.00000  Uiso   1.00
H723   H     0.19237   0.38762   0.54297   0.00000  Uiso   1.00
H724   H     0.22954   0.33505   0.51449   0.00000  Uiso   1.00
C725   C     0.21166   0.33978   0.59748   0.00000  Uiso   1.00
H726   H     0.24809   0.65221   0.60167   0.00000  Uiso   1.00
H727   H     0.16632   0.64398   0.60051   0.00000  Uiso   1.00
H728   H     0.20703   0.36991   0.62908   0.00000  Uiso   1.00
C729   C     0.51521   0.60005   0.75142   0.00000  Uiso   1.00
C730   C     0.47087   0.50362   0.98851   0.00000  Uiso   1.00
C731   C     0.48633   0.51924   0.93694   0.00000  Uiso   1.00
C732   C     0.51771   0.51742   0.51873   0.00000  Uiso   1.00
C733   C     0.57587   0.55177   0.99914   0.00000  Uiso   1.00
C734   C     0.58626   0.57291   0.95092   0.00000  Uiso   1.00
C735   C     0.54194   0.55722   0.92038   0.00000  Uiso   1.00
C736   C     0.50893   0.49735   0.56757   0.00000  Uiso   1.00
C737   C     0.61119   0.54701   0.57805   0.00000  Uiso   1.00
C738   C     0.44529   0.49708   0.90352   0.00000  Uiso   1.00
C739   C     0.52366   0.65614   0.75206   0.00000  Uiso   1.00
C740   C     0.46651   0.49883   0.84726   0.00000  Uiso   1.00
C741   C     0.47666   0.34387   0.74713   0.00000  Uiso   1.00
C742   C     0.48491   0.39995   0.74827   0.00000  Uiso   1.00
C743   C     0.53371   0.50408   0.65302   0.00000  Uiso   1.00
C744   C     0.62252   0.56543   0.52851   0.00000  Uiso   1.00
C745   C     0.55351   0.51412   0.59815   0.00000  Uiso   1.00
C746   C     0.38519   0.46771   0.92371   0.00000  Uiso   1.00
C747   C     0.36575   0.45748   0.97580   0.00000  Uiso   1.00
C748   C     0.40905   0.47562   0.50813   0.00000  Uiso   1.00
Cu749  Cu    0.44043   0.49439   0.74435   0.00000  Uiso   1.00
Cu750  Cu    0.55957   0.50561   0.75565   0.00000  Uiso   1.00
H751   H     0.64612   0.56046   0.60136   0.00000  Uiso   1.00
H752   H     0.43157   0.65317   0.74224   0.00000  Uiso   1.00
H753   H     0.66541   0.46442   0.70676   0.00000  Uiso   1.00
H754   H     0.62923   0.60113   0.93640   0.00000  Uiso   1.00
H755   H     0.33363   0.59170   0.51374   0.00000  Uiso   1.00
H756   H     0.46717   0.46887   0.58333   0.00000  Uiso   1.00
H757   H     0.35310   0.45124   0.89855   0.00000  Uiso   1.00
H758   H     0.39334   0.46986   0.54861   0.00000  Uiso   1.00
H759   H     0.55161   0.57566   0.88376   0.00000  Uiso   1.00
H760   H     0.56883   0.34685   0.75676   0.00000  Uiso   1.00
N761   N     0.64908   0.51407   0.76416   0.00000  Uiso   1.00
N762   N     0.35092   0.48593   0.73584   0.00000  Uiso   1.00
O763   O     0.46131   0.57141   0.74633   0.00000  Uiso   1.00
O764   O     0.56191   0.58089   0.75587   0.00000  Uiso   1.00
O765   O     0.42515   0.49293   0.81839   0.00000  Uiso   1.00
O766   O     0.52575   0.50241   0.82793   0.00000  Uiso   1.00
O767   O     0.43809   0.41911   0.74413   0.00000  Uiso   1.00
O768   O     0.53869   0.42859   0.75367   0.00000  Uiso   1.00
O769   O     0.47425   0.49759   0.67207   0.00000  Uiso   1.00
O770   O     0.57485   0.50707   0.68161   0.00000  Uiso   1.00
C771   C     0.33530   0.54152   0.80757   0.00000  Uiso   1.00
H772   H     0.36531   0.58068   0.80426   0.00000  Uiso   1.00
O773   O     0.64856   0.52241   0.84974   0.00000  Uiso   1.00
O774   O     0.63694   0.43095   0.99226   0.00000  Uiso   1.00
C775   C     0.62605   0.40426   0.53855   0.00000  Uiso   1.00
H776   H     0.62526   0.43317   0.57149   0.00000  Uiso   1.00
H777   H     0.66225   0.38110   0.53788   0.00000  Uiso   1.00
C778   C     0.56212   0.36598   0.54559   0.00000  Uiso   1.00
H779   H     0.52571   0.38762   0.54297   0.00000  Uiso   1.00
H780   H     0.56288   0.33505   0.51449   0.00000  Uiso   1.00
C781   C     0.54499   0.33978   0.59748   0.00000  Uiso   1.00
H782   H     0.58142   0.65221   0.60167   0.00000  Uiso   1.00
H783   H     0.49965   0.64398   0.60051   0.00000  Uiso   1.00
H784   H     0.54036   0.36991   0.62908   0.00000  Uiso   1.00
C785   C     0.84854   0.60005   0.75142   0.00000  Uiso   1.00
C786   C     0.80421   0.50362   0.98851   0.00000  Uiso   1.00
C787   C     0.81966   0.51924   0.93694   0.00000  Uiso   1.00
C788   C     0.85105   0.51742   0.51873   0.00000  Uiso   1.00
C789   C     0.90920   0.55177   0.99914   0.00000  Uiso   1.00
C790   C     0.91959   0.57291   0.95092   0.00000  Uiso   1.00
C791   C     0.87527   0.55722   0.92038   0.00000  Uiso   1.00
C792   C     0.84226   0.49735   0.56757   0.00000  Uiso   1.00
C793   C     0.94453   0.54701   0.57805   0.00000  Uiso   1.00
C794   C     0.77862   0.49708   0.90352   0.00000  Uiso   1.00
C795   C     0.85699   0.65614   0.75206   0.00000  Uiso   1.00
C796   C     0.79984   0.49883   0.84726   0.00000  Uiso   1.00
C797   C     0.80999   0.34387   0.74713   0.00000  Uiso   1.00
C798   C     0.81825   0.39995   0.74827   0.00000  Uiso   1.00
C799   C     0.86704   0.50408   0.65302   0.00000  Uiso   1.00
C800   C     0.95585   0.56543   0.52851   0.00000  Uiso   1.00
C801   C     0.88684   0.51412   0.59815   0.00000  Uiso   1.00
C802   C     0.71853   0.46771   0.92371   0.00000  Uiso   1.00
C803   C     0.69908   0.45748   0.97580   0.00000  Uiso   1.00
C804   C     0.74239   0.47562   0.50813   0.00000  Uiso   1.00
Cu805  Cu    0.77377   0.49439   0.74435   0.00000  Uiso   1.00
Cu806  Cu    0.89290   0.50561   0.75565   0.00000  Uiso   1.00
H807   H     0.97945   0.56046   0.60136   0.00000  Uiso   1.00
H808   H     0.76491   0.65317   0.74224   0.00000  Uiso   1.00
H809   H     0.99874   0.46442   0.70676   0.00000  Uiso   1.00
H810   H     0.96256   0.60113   0.93640   0.00000  Uiso   1.00
H811   H     0.66696   0.59170   0.51374   0.00000  Uiso   1.00
H812   H     0.80050   0.46887   0.58333   0.00000  Uiso   1.00
H813   H     0.68643   0.45124   0.89855   0.00000  Uiso   1.00
H814   H     0.72667   0.46986   0.54861   0.00000  Uiso   1.00
H815   H     0.88494   0.57566   0.88376   0.00000  Uiso   1.00
H816   H     0.90216   0.34685   0.75676   0.00000  Uiso   1.00
N817   N     0.98241   0.51407   0.76416   0.00000  Uiso   1.00
N818   N     0.68426   0.48593   0.73584   0.00000  Uiso   1.00
O819   O     0.79464   0.57141   0.74633   0.00000  Uiso   1.00
O820   O     0.89524   0.58089   0.75587   0.00000  Uiso   1.00
O821   O     0.75848   0.49293   0.81839   0.00000  Uiso   1.00
O822   O     0.85908   0.50241   0.82793   0.00000  Uiso   1.00
O823   O     0.77142   0.41911   0.74413   0.00000  Uiso   1.00
O824   O     0.87203   0.42859   0.75367   0.00000  Uiso   1.00
O825   O     0.80758   0.49759   0.67207   0.00000  Uiso   1.00
O826   O     0.90819   0.50707   0.68161   0.00000  Uiso   1.00
C827   C     0.66863   0.54152   0.80757   0.00000  Uiso   1.00
H828   H     0.69864   0.58068   0.80426   0.00000  Uiso   1.00
O829   O     0.98190   0.52241   0.84974   0.00000  Uiso   1.00
O830   O     0.97028   0.43095   0.99226   0.00000  Uiso   1.00
C831   C     0.95938   0.40426   0.53855   0.00000  Uiso   1.00
H832   H     0.95860   0.43317   0.57149   0.00000  Uiso   1.00
H833   H     0.99559   0.38110   0.53788   0.00000  Uiso   1.00
C834   C     0.89546   0.36598   0.54559   0.00000  Uiso   1.00
H835   H     0.85904   0.38762   0.54297   0.00000  Uiso   1.00
H836   H     0.89621   0.33505   0.51449   0.00000  Uiso   1.00
C837   C     0.87833   0.33978   0.59748   0.00000  Uiso   1.00
H838   H     0.91476   0.65221   0.60167   0.00000  Uiso   1.00
H839   H     0.83298   0.64398   0.60051   0.00000  Uiso   1.00
H840   H     0.87370   0.36991   0.62908   0.00000  Uiso   1.00
C841   C     0.18187   0.93339   0.75142   0.00000  Uiso   1.00
C842   C     0.13754   0.83695   0.98851   0.00000  Uiso   1.00
C843   C     0.15299   0.85257   0.93694   0.00000  Uiso   1.00
C844   C     0.18438   0.85076   0.51873   0.00000  Uiso   1.00
C845   C     0.24254   0.88510   0.99914   0.00000  Uiso   1.00
C846   C     0.25292   0.90624   0.95092   0.00000  Uiso   1.00
C847   C     0.20860   0.89056   0.92038   0.00000  Uiso   1.00
C848   C     0.17560   0.83069   0.56757   0.00000  Uiso   1.00
C849   C     0.27786   0.88034   0.57805   0.00000  Uiso   1.00
C850   C     0.11196   0.83041   0.90352   0.00000  Uiso   1.00
C851   C     0.19033   0.98947   0.75206   0.00000  Uiso   1.00
C852   C     0.13318   0.83216   0.84726   0.00000  Uiso   1.00
C853   C     0.14333   0.67720   0.74713   0.00000  Uiso   1.00
C854   C     0.15158   0.73328   0.74827   0.00000  Uiso   1.00
C855   C     0.20038   0.83741   0.65302   0.00000  Uiso   1.00
C856   C     0.28918   0.89876   0.52851   0.00000  Uiso   1.00
C857   C     0.22017   0.84746   0.59815   0.00000  Uiso   1.00
C858   C     0.05186   0.80104   0.92371   0.00000  Uiso   1.00
C859   C     0.03242   0.79081   0.97580   0.00000  Uiso   1.00
C860   C     0.07572   0.80896   0.50813   0.00000  Uiso   1.00
Cu861  Cu    0.10710   0.82772   0.74435   0.00000  Uiso   1.00
Cu862  Cu    0.22623   0.83895   0.75565   0.00000  Uiso   1.00
H863   H     0.31279   0.89380   0.60136   0.00000  Uiso   1.00
H864   H     0.09824   0.98651   0.74224   0.00000  Uiso   1.00
H865   H     0.33207   0.79775   0.70676   0.00000  Uiso   1.00
H866   H     0.29589   0.93446   0.93640   0.00000  Uiso   1.00
H867   H     0.00029   0.92503   0.51374   0.00000  Uiso   1.00
H868   H     0.13384   0.80221   0.58333   0.00000  Uiso   1.00
H869   H     0.01976   0.78457   0.89855   0.00000  Uiso   1.00
H870   H     0.06001   0.80319   0.54861   0.00000  Uiso   1.00
H871   H     0.21828   0.90900   0.88376   0.00000  Uiso   1.00
H872   H     0.23549   0.68019   0.75676   0.00000  Uiso   1.00
N873   N     0.31574   0.84741   0.76416   0.00000  Uiso   1.00
N874   N     0.01759   0.81926   0.73584   0.00000  Uiso   1.00
O875   O     0.12797   0.90474   0.74633   0.00000  Uiso   1.00
O876   O     0.22858   0.91422   0.75587   0.00000  Uiso   1.00
O877   O     0.09181   0.82627   0.81839   0.00000  Uiso   1.00
O878   O     0.19242   0.83575   0.82793   0.00000  Uiso   1.00
O879   O     0.10476   0.75245   0.74413   0.00000  Uiso   1.00
O880   O     0.20536   0.76193   0.75367   0.00000  Uiso   1.00
O881   O     0.14092   0.83092   0.67207   0.00000  Uiso   1.00
O882   O     0.24152   0.84040   0.68161   0.00000  Uiso   1.00
C883   C     0.00197   0.87485   0.80757   0.00000  Uiso   1.00
H884   H     0.03198   0.91401   0.80426   0.00000  Uiso   1.00
O885   O     0.31523   0.85574   0.84974   0.00000  Uiso   1.00
O886   O     0.30361   0.76428   0.99226   0.00000  Uiso   1.00
C887   C     0.29272   0.73760   0.53855   0.00000  Uiso   1.00
H888   H     0.29193   0.76650   0.57149   0.00000  Uiso   1.00
H889   H     0.32892   0.71443   0.53788   0.00000  Uiso   1.00
C890   C     0.22879   0.69931   0.54559   0.00000  Uiso   1.00
H891   H     0.19237   0.72095   0.54297   0.00000  Uiso   1.00
H892   H     0.22954   0.66839   0.51449   0.00000  Uiso   1.00
C893   C     0.21166   0.67311   0.59748   0.00000  Uiso   1.00
H894   H     0.24809   0.98555   0.60167   0.00000  Uiso   1.00
H895   H     0.16632   0.97731   0.60051   0.00000  Uiso   1.00
H896   H     0.20703   0.70324   0.62908   0.00000  Uiso   1.00
C897   C     0.51521   0.93339   0.75142   0.00000  Uiso   1.00
C898   C     0.47087   0.83695   0.98851   0.00000  Uiso   1.00
C899   C     0.48633   0.85257   0.93694   0.00000  Uiso   1.00
C900   C     0.51771   0.85076   0.51873   0.00000  Uiso   1.00
C901   C     0.57587   0.88510   0.99914   0.00000  Uiso   1.00
C902   C     0.58626   0.90624   0.95092   0.00000  Uiso   1.00
C903   C     0.54194   0.89056   0.92038   0.00000  Uiso   1.00
C904   C     0.50893   0.83069   0.56757   0.00000  Uiso   1.00
C905   C     0.61119   0.88034   0.57805   0.00000  Uiso   1.00
C906   C     0.44529   0.83041   0.90352   0.00000  Uiso   1.00
C907   C     0.52366   0.98947   0.75206   0.00000  Uiso   1.00
C908   C     0.46651   0.83216   0.84726   0.00000  Uiso   1.00
C909   C     0.47666   0.67720   0.74713   0.00000  Uiso   1.00
C910   C     0.48491   0.73328   0.74827   0.00000  Uiso   1.00
C911   C     0.53371   0.83741   0.65302   0.00000  Uiso   1.00
C912   C     0.62252   0.89876   0.52851   0.00000  Uiso   1.00
C913   C     0.55351   0.84746   0.59815   0.00000  Uiso   1.00
C914   C     0.38519   0.80104   0.92371   0.00000  Uiso   1.00
C915   C     0.36575   0.79081   0.97580   0.00000  Uiso   1.00
C916   C     0.40905   0.80896   0.50813   0.00000  Uiso   1.00
Cu917  Cu    0.44043   0.82772   0.74435   0.00000  Uiso   1.00
Cu918  Cu    0.55957   0.83895   0.75565   0.00000  Uiso   1.00
H919   H     0.64612   0.89380   0.60136   0.00000  Uiso   1.00
H920   H     0.43157   0.98651   0.74224   0.00000  Uiso   1.00
H921   H     0.66541   0.79775   0.70676   0.00000  Uiso   1.00
H922   H     0.62923   0.93446   0.93640   0.00000  Uiso   1.00
H923   H     0.33363   0.92503   0.51374   0.00000  Uiso   1.00
H924   H     0.46717   0.80221   0.58333   0.00000  Uiso   1.00
H925   H     0.35310   0.78457   0.89855   0.00000  Uiso   1.00
H926   H     0.39334   0.80319   0.54861   0.00000  Uiso   1.00
H927   H     0.55161   0.90900   0.88376   0.00000  Uiso   1.00
H928   H     0.56883   0.68019   0.75676   0.00000  Uiso   1.00
N929   N     0.64908   0.84741   0.76416   0.00000  Uiso   1.00
N930   N     0.35092   0.81926   0.73584   0.00000  Uiso   1.00
O931   O     0.46131   0.90474   0.74633   0.00000  Uiso   1.00
O932   O     0.56191   0.91422   0.75587   0.00000  Uiso   1.00
O933   O     0.42515   0.82627   0.81839   0.00000  Uiso   1.00
O934   O     0.52575   0.83575   0.82793   0.00000  Uiso   1.00
O935   O     0.43809   0.75245   0.74413   0.00000  Uiso   1.00
O936   O     0.53869   0.76193   0.75367   0.00000  Uiso   1.00
O937   O     0.47425   0.83092   0.67207   0.00000  Uiso   1.00
O938   O     0.57485   0.84040   0.68161   0.00000  Uiso   1.00
C939   C     0.33530   0.87485   0.80757   0.00000  Uiso   1.00
H940   H     0.36531   0.91401   0.80426   0.00000  Uiso   1.00
O941   O     0.64856   0.85574   0.84974   0.00000  Uiso   1.00
O942   O     0.63694   0.76428   0.99226   0.00000  Uiso   1.00
C943   C     0.62605   0.73760   0.53855   0.00000  Uiso   1.00
H944   H     0.62526   0.76650   0.57149   0.00000  Uiso   1.00
H945   H     0.66225   0.71443   0.53788   0.00000  Uiso   1.00
C946   C     0.56212   0.69931   0.54559   0.00000  Uiso   1.00
H947   H     0.52571   0.72095   0.54297   0.00000  Uiso   1.00
H948   H     0.56288   0.66839   0.51449   0.00000  Uiso   1.00
C949   C     0.54499   0.67311   0.59748   0.00000  Uiso   1.00
H950   H     0.58142   0.98555   0.60167   0.00000  Uiso   1.00
H951   H     0.49965   0.97731   0.60051   0.00000  Uiso   1.00
H952   H     0.54036   0.70324   0.62908   0.00000  Uiso   1.00
C953   C     0.84854   0.93339   0.75142   0.00000  Uiso   1.00
C954   C     0.80421   0.83695   0.98851   0.00000  Uiso   1.00
C955   C     0.81966   0.85257   0.93694   0.00000  Uiso   1.00
C956   C     0.85105   0.85076   0.51873   0.00000  Uiso   1.00
C957   C     0.90920   0.88510   0.99914   0.00000  Uiso   1.00
C958   C     0.91959   0.90624   0.95092   0.00000  Uiso   1.00
C959   C     0.87527   0.89056   0.92038   0.00000  Uiso   1.00
C960   C     0.84226   0.83069   0.56757   0.00000  Uiso   1.00
C961   C     0.94453   0.88034   0.57805   0.00000  Uiso   1.00
C962   C     0.77862   0.83041   0.90352   0.00000  Uiso   1.00
C963   C     0.85699   0.98947   0.75206   0.00000  Uiso   1.00
C964   C     0.79984   0.83216   0.84726   0.00000  Uiso   1.00
C965   C     0.80999   0.67720   0.74713   0.00000  Uiso   1.00
C966   C     0.81825   0.73328   0.74827   0.00000  Uiso   1.00
C967   C     0.86704   0.83741   0.65302   0.00000  Uiso   1.00
C968   C     0.95585   0.89876   0.52851   0.00000  Uiso   1.00
C969   C     0.88684   0.84746   0.59815   0.00000  Uiso   1.00
C970   C     0.71853   0.80104   0.92371   0.00000  Uiso   1.00
C971   C     0.69908   0.79081   0.97580   0.00000  Uiso   1.00
C972   C     0.74239   0.80896   0.50813   0.00000  Uiso   1.00
Cu973  Cu    0.77377   0.82772   0.74435   0.00000  Uiso   1.00
Cu974  Cu    0.89290   0.83895   0.75565   0.00000  Uiso   1.00
H975   H     0.97945   0.89380   0.60136   0.00000  Uiso   1.00
H976   H     0.76491   0.98651   0.74224   0.00000  Uiso   1.00
H977   H     0.99874   0.79775   0.70676   0.00000  Uiso   1.00
H978   H     0.96256   0.93446   0.93640   0.00000  Uiso   1.00
H979   H     0.66696   0.92503   0.51374   0.00000  Uiso   1.00
H980   H     0.80050   0.80221   0.58333   0.00000  Uiso   1.00
H981   H     0.68643   0.78457   0.89855   0.00000  Uiso   1.00
H982   H     0.72667   0.80319   0.54861   0.00000  Uiso   1.00
H983   H     0.88494   0.90900   0.88376   0.00000  Uiso   1.00
H984   H     0.90216   0.68019   0.75676   0.00000  Uiso   1.00
N985   N     0.98241   0.84741   0.76416   0.00000  Uiso   1.00
N986   N     0.68426   0.81926   0.73584   0.00000  Uiso   1.00
O987   O     0.79464   0.90474   0.74633   0.00000  Uiso   1.00
O988   O     0.89524   0.91422   0.75587   0.00000  Uiso   1.00
O989   O     0.75848   0.82627   0.81839   0.00000  Uiso   1.00
O990   O     0.85908   0.83575   0.82793   0.00000  Uiso   1.00
O991   O     0.77142   0.75245   0.74413   0.00000  Uiso   1.00
O992   O     0.87203   0.76193   0.75367   0.00000  Uiso   1.00
O993   O     0.80758   0.83092   0.67207   0.00000  Uiso   1.00
O994   O     0.90819   0.84040   0.68161   0.00000  Uiso   1.00
C995   C     0.66863   0.87485   0.80757   0.00000  Uiso   1.00
H996   H     0.69864   0.91401   0.80426   0.00000  Uiso   1.00
O997   O     0.98190   0.85574   0.84974   0.00000  Uiso   1.00
O998   O     0.97028   0.76428   0.99226   0.00000  Uiso   1.00
C999   C     0.95938   0.73760   0.53855   0.00000  Uiso   1.00
H1000  H     0.95860   0.76650   0.57149   0.00000  Uiso   1.00
H1001  H     0.99559   0.71443   0.53788   0.00000  Uiso   1.00
C1002  C     0.89546   0.69931   0.54559   0.00000  Uiso   1.00
H1003  H     0.85904   0.72095   0.54297   0.00000  Uiso   1.00
H1004  H     0.89621   0.66839   0.51449   0.00000  Uiso   1.00
C1005  C     0.87833   0.67311   0.59748   0.00000  Uiso   1.00
H1006  H     0.91476   0.98555   0.60167   0.00000  Uiso   1.00
H1007  H     0.83298   0.97731   0.60051   0.00000  Uiso   1.00
H1008  H     0.87370   0.70324   0.62908   0.00000  Uiso   1.00
loop_
_geom_bond_atom_site_label_1
_geom_bond_atom_site_label_2
_geom_bond_distance
_geom_bond_site_symmetry_2
_ccdc_geom_bond_type
C1     O36     1.291   .     A
C1     O35     1.294   .     A
C1     C11     1.428   .     S
C2     C3      1.414   .     A
C2     C508    1.425   .     S
C2     C524    1.417   .     S
C3     C10     1.416   .     A
C3     C7      1.411   .     A
C4     C8      1.401   .     A
C4     C506    1.425   1_554 S
C4     C509    1.419   1_554 S
C5     C6      1.393   .     A
C5     C508    1.419   .     S
C5     C520    1.405   .     S
C6     C7      1.389   .     A
C6     H26     1.084   .     S
C7     H31     1.081   .     S
C8     C17     1.397   .     A
C8     H28     1.078   .     S
C9     C17     1.399   .     A
C9     C16     1.394   .     A
C9     H23     1.083   .     S
C10    C12     1.476   .     S
C10    C18     1.403   .     A
C11    C181    1.331   .     S
C11    H200    1.088   .     S
C12    O38     1.303   .     A
C12    O37     1.305   .     A
C13    C14     1.428   .     S
C13    C347    1.331   1_545 S
C13    H360    1.087   1_545 S
C14    O40     1.294   .     A
C14    O39     1.291   .     A
C15    O42     1.305   .     A
C15    O41     1.298   .     A
C15    C17     1.463   .     S
C16    C509    1.405   1_554 S
C16    H83     1.084   .     S
C18    C19     1.393   .     A
C18    H29     1.083   .     S
C19    C524    1.413   .     S
C19    O158    1.397   1_455 S
C20    H30     1.074   .     S
C20    C506    1.417   1_554 S
C20    C523    1.413   1_554 S
Cu21   O35     1.950   .     S
Cu21   O39     1.948   .     S
Cu21   O41     1.917   .     S
Cu21   O37     1.935   .     S
Cu21   N34     2.029   .     S
Cu21   Cu22    2.701   .     S
Cu22   O42     1.935   .     S
Cu22   O40     1.950   .     S
Cu22   N33     2.029   .     S
Cu22   O36     1.948   .     S
Cu22   O38     1.917   .     S
H24    C181    1.087   .     S
H25    N90     1.029   .     S
H27    C128    1.084   1_455 S
H32    C347    1.088   1_545 S
N33    N90     1.287   .     S
N33    C99     1.411   .     S
N34    N145    1.287   1_455 S
N34    H137    1.029   1_455 S
C43    H44     1.082   .     S
C43    N145    1.411   1_455 S
C43    O157    1.219   1_455 S
O45    C99     1.219   .     S
O46    C75     1.397   .     S
O46    C551    1.413   .     S
C47    H49     1.115   .     S
C47    C50     1.529   .     S
C47    H48     1.112   .     S
C47    O550    1.413   1_554 S
C50    H52     1.111   .     S
C50    C53     1.527   .     S
C50    H51     1.111   .     S
C53    H56     1.111   .     S
C53    H390    1.110   1_545 S
C53    H391    1.111   1_545 S
H54    C221    1.110   .     S
H55    C221    1.111   .     S
C57    O92     1.291   .     A
C57    O91     1.294   .     A
C57    C67     1.428   .     S
C58    C59     1.414   .     A
C58    C564    1.425   .     S
C58    C580    1.417   .     S
C59    C66     1.416   .     A
C59    C63     1.411   .     A
C60    C64     1.401   .     A
C60    C562    1.425   1_554 S
C60    C565    1.419   1_554 S
C61    C62     1.393   .     A
C61    C564    1.419   .     S
C61    C576    1.405   .     S
C62    C63     1.389   .     A
C62    H82     1.084   .     S
C63    H87     1.081   .     S
C64    C73     1.397   .     A
C64    H84     1.078   .     S
C65    C73     1.399   .     A
C65    C72     1.394   .     A
C65    H79     1.083   .     S
C66    C68     1.476   .     S
C66    C74     1.403   .     A
C67    C237    1.331   .     S
C67    H256    1.088   .     S
C68    O94     1.303   .     A
C68    O93     1.305   .     A
C69    C70     1.428   .     S
C69    C403    1.331   1_545 S
C69    H416    1.087   1_545 S
C70    O96     1.294   .     A
C70    O95     1.291   .     A
C71    O98     1.305   .     A
C71    O97     1.298   .     A
C71    C73     1.463   .     S
C72    C565    1.405   1_554 S
C72    H139    1.084   .     S
C74    C75     1.393   .     A
C74    H85     1.083   .     S
C75    C580    1.413   .     S
C76    H86     1.074   .     S
C76    C562    1.417   1_554 S
C76    C579    1.413   1_554 S
Cu77   O91     1.950   .     S
Cu77   O95     1.948   .     S
Cu77   O97     1.917   .     S
Cu77   O93     1.935   .     S
Cu77   N90     2.029   .     S
Cu77   Cu78    2.701   .     S
Cu78   O98     1.935   .     S
Cu78   O96     1.950   .     S
Cu78   N89     2.029   .     S
Cu78   O92     1.948   .     S
Cu78   O94     1.917   .     S
H80    C237    1.087   .     S
H81    N146    1.029   .     S
H88    C403    1.088   1_545 S
N89    N146    1.287   .     S
N89    C155    1.411   .     S
C99    H100    1.082   .     S
O101   C155    1.219   .     S
O102   C131    1.397   .     S
O102   C607    1.413   .     S
C103   H105    1.115   .     S
C103   C106    1.529   .     S
C103   H104    1.112   .     S
C103   O606    1.413   1_554 S
C106   H108    1.111   .     S
C106   C109    1.527   .     S
C106   H107    1.111   .     S
C109   H112    1.111   .     S
C109   H446    1.110   1_545 S
C109   H447    1.111   1_545 S
H110   C277    1.110   .     S
H111   C277    1.111   .     S
C113   O148    1.291   .     A
C113   O147    1.294   .     A
C113   C123    1.428   .     S
C114   C115    1.414   .     A
C114   C620    1.425   .     S
C114   C636    1.417   .     S
C115   C122    1.416   .     A
C115   C119    1.411   .     A
C116   C120    1.401   .     A
C116   C618    1.425   1_554 S
C116   C621    1.419   1_554 S
C117   C118    1.393   .     A
C117   C620    1.419   .     S
C117   C632    1.405   .     S
C118   C119    1.389   .     A
C118   H138    1.084   .     S
C119   H143    1.081   .     S
C120   C129    1.397   .     A
C120   H140    1.078   .     S
C121   C129    1.399   .     A
C121   C128    1.394   .     A
C121   H135    1.083   .     S
C122   C124    1.476   .     S
C122   C130    1.403   .     A
C123   C293    1.331   .     S
C123   H312    1.088   .     S
C124   O150    1.303   .     A
C124   O149    1.305   .     A
C125   C126    1.428   .     S
C125   C459    1.331   1_545 S
C125   H472    1.087   1_545 S
C126   O152    1.294   .     A
C126   O151    1.291   .     A
C127   O154    1.305   .     A
C127   O153    1.298   .     A
C127   C129    1.463   .     S
C128   C621    1.405   1_554 S
C128   H27     1.084   1_655 S
C130   C131    1.393   .     A
C130   H141    1.083   .     S
C131   C636    1.413   .     S
C132   H142    1.074   .     S
C132   C618    1.417   1_554 S
C132   C635    1.413   1_554 S
Cu133  O147    1.950   .     S
Cu133  O151    1.948   .     S
Cu133  O153    1.917   .     S
Cu133  O149    1.935   .     S
Cu133  N146    2.029   .     S
Cu133  Cu134   2.701   .     S
Cu134  O154    1.935   .     S
Cu134  O152    1.950   .     S
Cu134  N145    2.029   .     S
Cu134  O148    1.948   .     S
Cu134  O150    1.917   .     S
H136   C293    1.087   .     S
H137   N34     1.029   1_655 S
H144   C459    1.088   1_545 S
N145   N34     1.287   1_655 S
N145   C43     1.411   1_655 S
C155   H156    1.082   .     S
O157   C43     1.219   1_655 S
O158   C19     1.397   1_655 S
O158   C663    1.413   .     S
C159   H161    1.115   .     S
C159   C162    1.529   .     S
C159   H160    1.112   .     S
C159   O662    1.413   1_554 S
C162   H164    1.111   .     S
C162   C165    1.527   .     S
C162   H163    1.111   .     S
C165   H168    1.111   .     S
C165   H502    1.110   1_545 S
C165   H503    1.111   1_545 S
H166   C333    1.110   .     S
H167   C333    1.111   .     S
C169   O204    1.291   .     A
C169   O203    1.294   .     A
C169   C179    1.428   .     S
C170   C171    1.414   .     A
C170   C676    1.425   .     S
C170   C692    1.417   .     S
C171   C178    1.416   .     A
C171   C175    1.411   .     A
C172   C176    1.401   .     A
C172   C674    1.425   1_554 S
C172   C677    1.419   1_554 S
C173   C174    1.393   .     A
C173   C676    1.419   .     S
C173   C688    1.405   .     S
C174   C175    1.389   .     A
C174   H194    1.084   .     S
C175   H199    1.081   .     S
C176   C185    1.397   .     A
C176   H196    1.078   .     S
C177   C185    1.399   .     A
C177   C184    1.394   .     A
C177   H191    1.083   .     S
C178   C180    1.476   .     S
C178   C186    1.403   .     A
C179   C349    1.331   .     S
C179   H368    1.088   .     S
C180   O206    1.303   .     A
C180   O205    1.305   .     A
C181   C182    1.428   .     S
C182   O208    1.294   .     A
C182   O207    1.291   .     A
C183   O210    1.305   .     A
C183   O209    1.298   .     A
C183   C185    1.463   .     S
C184   C677    1.405   1_554 S
C184   H251    1.084   .     S
C186   C187    1.393   .     A
C186   H197    1.083   .     S
C187   C692    1.413   .     S
C187   O326    1.397   1_455 S
C188   H198    1.074   .     S
C188   C674    1.417   1_554 S
C188   C691    1.413   1_554 S
Cu189  O203    1.950   .     S
Cu189  O207    1.948   .     S
Cu189  O209    1.917   .     S
Cu189  O205    1.935   .     S
Cu189  N202    2.029   .     S
Cu189  Cu190   2.701   .     S
Cu190  O210    1.935   .     S
Cu190  O208    1.950   .     S
Cu190  N201    2.029   .     S
Cu190  O204    1.948   .     S
Cu190  O206    1.917   .     S
H192   C349    1.087   .     S
H193   N258    1.029   .     S
H195   C296    1.084   1_455 S
N201   N258    1.287   .     S
N201   C267    1.411   .     S
N202   N313    1.287   1_455 S
N202   H305    1.029   1_455 S
C211   H212    1.082   .     S
C211   N313    1.411   1_455 S
C211   O325    1.219   1_455 S
O213   C267    1.219   .     S
O214   C243    1.397   .     S
O214   C719    1.413   .     S
C215   H217    1.115   .     S
C215   C218    1.529   .     S
C215   H216    1.112   .     S
C215   O718    1.413   1_554 S
C218   H220    1.111   .     S
C218   C221    1.527   .     S
C218   H219    1.111   .     S
C221   H224    1.111   .     S
H222   C389    1.110   .     S
H223   C389    1.111   .     S
C225   O260    1.291   .     A
C225   O259    1.294   .     A
C225   C235    1.428   .     S
C226   C227    1.414   .     A
C226   C732    1.425   .     S
C226   C748    1.417   .     S
C227   C234    1.416   .     A
C227   C231    1.411   .     A
C228   C232    1.401   .     A
C228   C730    1.425   1_554 S
C228   C733    1.419   1_554 S
C229   C230    1.393   .     A
C229   C732    1.419   .     S
C229   C744    1.405   .     S
C230   C231    1.389   .     A
C230   H250    1.084   .     S
C231   H255    1.081   .     S
C232   C241    1.397   .     A
C232   H252    1.078   .     S
C233   C241    1.399   .     A
C233   C240    1.394   .     A
C233   H247    1.083   .     S
C234   C236    1.476   .     S
C234   C242    1.403   .     A
C235   C405    1.331   .     S
C235   H424    1.088   .     S
C236   O262    1.303   .     A
C236   O261    1.305   .     A
C237   C238    1.428   .     S
C238   O264    1.294   .     A
C238   O263    1.291   .     A
C239   O266    1.305   .     A
C239   O265    1.298   .     A
C239   C241    1.463   .     S
C240   C733    1.405   1_554 S
C240   H307    1.084   .     S
C242   C243    1.393   .     A
C242   H253    1.083   .     S
C243   C748    1.413   .     S
C244   H254    1.074   .     S
C244   C730    1.417   1_554 S
C244   C747    1.413   1_554 S
Cu245  O259    1.950   .     S
Cu245  O263    1.948   .     S
Cu245  O265    1.917   .     S
Cu245  O261    1.935   .     S
Cu245  N258    2.029   .     S
Cu245  Cu246   2.701   .     S
Cu246  O266    1.935   .     S
Cu246  O264    1.950   .     S
Cu246  N257    2.029   .     S
Cu246  O260    1.948   .     S
Cu246  O262    1.917   .     S
H248   C405    1.087   .     S
H249   N314    1.029   .     S
N257   N314    1.287   .     S
N257   C323    1.411   .     S
C267   H268    1.082   .     S
O269   C323    1.219   .     S
O270   C299    1.397   .     S
O270   C775    1.413   .     S
C271   H273    1.115   .     S
C271   C274    1.529   .     S
C271   H272    1.112   .     S
C271   O774    1.413   1_554 S
C274   H276    1.111   .     S
C274   C277    1.527   .     S
C274   H275    1.111   .     S
C277   H280    1.111   .     S
H278   C445    1.110   .     S
H279   C445    1.111   .     S
C281   O316    1.291   .     A
C281   O315    1.294   .     A
C281   C291    1.428   .     S
C282   C283    1.414   .     A
C282   C788    1.425   .     S
C282   C804    1.417   .     S
C283   C290    1.416   .     A
C283   C287    1.411   .     A
C284   C288    1.401   .     A
C284   C786    1.425   1_554 S
C284   C789    1.419   1_554 S
C285   C286    1.393   .     A
C285   C788    1.419   .     S
C285   C800    1.405   .     S
C286   C287    1.389   .     A
C286   H306    1.084   .     S
C287   H311    1.081   .     S
C288   C297    1.397   .     A
C288   H308    1.078   .     S
C289   C297    1.399   .     A
C289   C296    1.394   .     A
C289   H303    1.083   .     S
C290   C292    1.476   .     S
C290   C298    1.403   .     A
C291   C461    1.331   .     S
C291   H480    1.088   .     S
C292   O318    1.303   .     A
C292   O317    1.305   .     A
C293   C294    1.428   .     S
C294   O320    1.294   .     A
C294   O319    1.291   .     A
C295   O322    1.305   .     A
C295   O321    1.298   .     A
C295   C297    1.463   .     S
C296   C789    1.405   1_554 S
C296   H195    1.084   1_655 S
C298   C299    1.393   .     A
C298   H309    1.083   .     S
C299   C804    1.413   .     S
C300   H310    1.074   .     S
C300   C786    1.417   1_554 S
C300   C803    1.413   1_554 S
Cu301  O315    1.950   .     S
Cu301  O319    1.948   .     S
Cu301  O321    1.917   .     S
Cu301  O317    1.935   .     S
Cu301  N314    2.029   .     S
Cu301  Cu302   2.701   .     S
Cu302  O322    1.935   .     S
Cu302  O320    1.950   .     S
Cu302  N313    2.029   .     S
Cu302  O316    1.948   .     S
Cu302  O318    1.917   .     S
H304   C461    1.087   .     S
H305   N202    1.029   1_655 S
N313   N202    1.287   1_655 S
N313   C211    1.411   1_655 S
C323   H324    1.082   .     S
O325   C211    1.219   1_655 S
O326   C187    1.397   1_655 S
O326   C831    1.413   .     S
C327   H329    1.115   .     S
C327   C330    1.529   .     S
C327   H328    1.112   .     S
C327   O830    1.413   1_554 S
C330   H332    1.111   .     S
C330   C333    1.527   .     S
C330   H331    1.111   .     S
C333   H336    1.111   .     S
H334   C501    1.110   .     S
H335   C501    1.111   .     S
C337   O372    1.291   .     A
C337   O371    1.294   .     A
C337   C347    1.428   .     S
C338   C339    1.414   .     A
C338   C844    1.425   .     S
C338   C860    1.417   .     S
C339   C346    1.416   .     A
C339   C343    1.411   .     A
C340   C344    1.401   .     A
C340   C842    1.425   1_554 S
C340   C845    1.419   1_554 S
C341   C342    1.393   .     A
C341   C844    1.419   .     S
C341   C856    1.405   .     S
C342   C343    1.389   .     A
C342   H362    1.084   .     S
C343   H367    1.081   .     S
C344   C353    1.397   .     A
C344   H364    1.078   .     S
C345   C353    1.399   .     A
C345   C352    1.394   .     A
C345   H359    1.083   .     S
C346   C348    1.476   .     S
C346   C354    1.403   .     A
C347   C13     1.331   1_565 S
C347   H32     1.088   1_565 S
C348   O374    1.303   .     A
C348   O373    1.305   .     A
C349   C350    1.428   .     S
C350   O376    1.294   .     A
C350   O375    1.291   .     A
C351   O378    1.305   .     A
C351   O377    1.298   .     A
C351   C353    1.463   .     S
C352   C845    1.405   1_554 S
C352   H419    1.084   .     S
C354   C355    1.393   .     A
C354   H365    1.083   .     S
C355   C860    1.413   .     S
C355   O494    1.397   1_455 S
C356   H366    1.074   .     S
C356   C842    1.417   1_554 S
C356   C859    1.413   1_554 S
Cu357  O371    1.950   .     S
Cu357  O375    1.948   .     S
Cu357  O377    1.917   .     S
Cu357  O373    1.935   .     S
Cu357  N370    2.029   .     S
Cu357  Cu358   2.701   .     S
Cu358  O378    1.935   .     S
Cu358  O376    1.950   .     S
Cu358  N369    2.029   .     S
Cu358  O372    1.948   .     S
Cu358  O374    1.917   .     S
H360   C13     1.087   1_565 S
H361   N426    1.029   .     S
H363   C464    1.084   1_455 S
N369   N426    1.287   .     S
N369   C435    1.411   .     S
N370   N481    1.287   1_455 S
N370   H473    1.029   1_455 S
C379   H380    1.082   .     S
C379   N481    1.411   1_455 S
C379   O493    1.219   1_455 S
O381   C435    1.219   .     S
O382   C411    1.397   .     S
O382   C887    1.413   .     S
C383   H385    1.115   .     S
C383   C386    1.529   .     S
C383   H384    1.112   .     S
C383   O886    1.413   1_554 S
C386   H388    1.111   .     S
C386   C389    1.527   .     S
C386   H387    1.111   .     S
C389   H392    1.111   .     S
H390   C53     1.110   1_565 S
H391   C53     1.111   1_565 S
C393   O428    1.291   .     A
C393   O427    1.294   .     A
C393   C403    1.428   .     S
C394   C395    1.414   .     A
C394   C900    1.425   .     S
C394   C916    1.417   .     S
C395   C402    1.416   .     A
C395   C399    1.411   .     A
C396   C400    1.401   .     A
C396   C898    1.425   1_554 S
C396   C901    1.419   1_554 S
C397   C398    1.393   .     A
C397   C900    1.419   .     S
C397   C912    1.405   .     S
C398   C399    1.389   .     A
C398   H418    1.084   .     S
C399   H423    1.081   .     S
C400   C409    1.397   .     A
C400   H420    1.078   .     S
C401   C409    1.399   .     A
C401   C408    1.394   .     A
C401   H415    1.083   .     S
C402   C404    1.476   .     S
C402   C410    1.403   .     A
C403   C69     1.331   1_565 S
C403   H88     1.088   1_565 S
C404   O430    1.303   .     A
C404   O429    1.305   .     A
C405   C406    1.428   .     S
C406   O432    1.294   .     A
C406   O431    1.291   .     A
C407   O434    1.305   .     A
C407   O433    1.298   .     A
C407   C409    1.463   .     S
C408   C901    1.405   1_554 S
C408   H475    1.084   .     S
C410   C411    1.393   .     A
C410   H421    1.083   .     S
C411   C916    1.413   .     S
C412   H422    1.074   .     S
C412   C898    1.417   1_554 S
C412   C915    1.413   1_554 S
Cu413  O427    1.950   .     S
Cu413  O431    1.948   .     S
Cu413  O433    1.917   .     S
Cu413  O429    1.935   .     S
Cu413  N426    2.029   .     S
Cu413  Cu414   2.701   .     S
Cu414  O434    1.935   .     S
Cu414  O432    1.950   .     S
Cu414  N425    2.029   .     S
Cu414  O428    1.948   .     S
Cu414  O430    1.917   .     S
H416   C69     1.087   1_565 S
H417   N482    1.029   .     S
N425   N482    1.287   .     S
N425   C491    1.411   .     S
C435   H436    1.082   .     S
O437   C491    1.219   .     S
O438   C467    1.397   .     S
O438   C943    1.413   .     S
C439   H441    1.115   .     S
C439   C442    1.529   .     S
C439   H440    1.112   .     S
C439   O942    1.413   1_554 S
C442   H444    1.111   .     S
C442   C445    1.527   .     S
C442   H443    1.111   .     S
C445   H448    1.111   .     S
H446   C109    1.110   1_565 S
H447   C109    1.111   1_565 S
C449   O484    1.291   .     A
C449   O483    1.294   .     A
C449   C459    1.428   .     S
C450   C451    1.414   .     A
C450   C956    1.425   .     S
C450   C972    1.417   .     S
C451   C458    1.416   .     A
C451   C455    1.411   .     A
C452   C456    1.401   .     A
C452   C954    1.425   1_554 S
C452   C957    1.419   1_554 S
C453   C454    1.393   .     A
C453   C956    1.419   .     S
C453   C968    1.405   .     S
C454   C455    1.389   .     A
C454   H474    1.084   .     S
C455   H479    1.081   .     S
C456   C465    1.397   .     A
C456   H476    1.078   .     S
C457   C465    1.399   .     A
C457   C464    1.394   .     A
C457   H471    1.083   .     S
C458   C460    1.476   .     S
C458   C466    1.403   .     A
C459   C125    1.331   1_565 S
C459   H144    1.088   1_565 S
C460   O486    1.303   .     A
C460   O485    1.305   .     A
C461   C462    1.428   .     S
C462   O488    1.294   .     A
C462   O487    1.291   .     A
C463   O490    1.305   .     A
C463   O489    1.298   .     A
C463   C465    1.463   .     S
C464   C957    1.405   1_554 S
C464   H363    1.084   1_655 S
C466   C467    1.393   .     A
C466   H477    1.083   .     S
C467   C972    1.413   .     S
C468   H478    1.074   .     S
C468   C954    1.417   1_554 S
C468   C971    1.413   1_554 S
Cu469  O483    1.950   .     S
Cu469  O487    1.948   .     S
Cu469  O489    1.917   .     S
Cu469  O485    1.935   .     S
Cu469  N482    2.029   .     S
Cu469  Cu470   2.701   .     S
Cu470  O490    1.935   .     S
Cu470  O488    1.950   .     S
Cu470  N481    2.029   .     S
Cu470  O484    1.948   .     S
Cu470  O486    1.917   .     S
H472   C125    1.087   1_565 S
H473   N370    1.029   1_655 S
N481   N370    1.287   1_655 S
N481   C379    1.411   1_655 S
C491   H492    1.082   .     S
O493   C379    1.219   1_655 S
O494   C355    1.397   1_655 S
O494   C999    1.413   .     S
C495   H497    1.115   .     S
C495   C498    1.529   .     S
C495   H496    1.112   .     S
C495   O998    1.413   1_554 S
C498   H500    1.111   .     S
C498   C501    1.527   .     S
C498   H499    1.111   .     S
C501   H504    1.111   .     S
H502   C165    1.110   1_565 S
H503   C165    1.111   1_565 S
C505   O540    1.291   .     A
C505   O539    1.294   .     A
C505   C515    1.428   .     S
C506   C507    1.414   .     A
C506   C4      1.425   1_556 S
C506   C20     1.417   1_556 S
C507   C514    1.416   .     A
C507   C511    1.411   .     A
C508   C512    1.401   .     A
C509   C510    1.393   .     A
C509   C4      1.419   1_556 S
C509   C16     1.405   1_556 S
C510   C511    1.389   .     A
C510   H530    1.084   .     S
C511   H535    1.081   .     S
C512   C521    1.397   .     A
C512   H532    1.078   .     S
C513   C521    1.399   .     A
C513   C520    1.394   .     A
C513   H527    1.083   .     S
C514   C516    1.476   .     S
C514   C522    1.403   .     A
C515   C685    1.331   .     S
C515   H704    1.088   .     S
C516   O542    1.303   .     A
C516   O541    1.305   .     A
C517   C518    1.428   .     S
C517   C851    1.331   1_545 S
C517   H864    1.087   1_545 S
C518   O544    1.294   .     A
C518   O543    1.291   .     A
C519   O546    1.305   .     A
C519   O545    1.298   .     A
C519   C521    1.463   .     S
C520   H587    1.084   .     S
C522   C523    1.393   .     A
C522   H533    1.083   .     S
C523   C20     1.413   1_556 S
C523   O662    1.397   1_455 S
C524   H534    1.074   .     S
Cu525  O539    1.950   .     S
Cu525  O543    1.948   .     S
Cu525  O545    1.917   .     S
Cu525  O541    1.935   .     S
Cu525  N538    2.029   .     S
Cu525  Cu526   2.701   .     S
Cu526  O546    1.935   .     S
Cu526  O544    1.950   .     S
Cu526  N537    2.029   .     S
Cu526  O540    1.948   .     S
Cu526  O542    1.917   .     S
H528   C685    1.087   .     S
H529   N594    1.029   .     S
H531   C632    1.084   1_455 S
H536   C851    1.088   1_545 S
N537   N594    1.287   .     S
N537   C603    1.411   .     S
N538   N649    1.287   1_455 S
N538   H641    1.029   1_455 S
C547   H548    1.082   .     S
C547   N649    1.411   1_455 S
C547   O661    1.219   1_455 S
O549   C603    1.219   .     S
O550   C579    1.397   .     S
O550   C47     1.413   1_556 S
C551   H553    1.115   .     S
C551   C554    1.529   .     S
C551   H552    1.112   .     S
C554   H556    1.111   .     S
C554   C557    1.527   .     S
C554   H555    1.111   .     S
C557   H560    1.111   .     S
C557   H894    1.110   1_545 S
C557   H895    1.111   1_545 S
H558   C725    1.110   .     S
H559   C725    1.111   .     S
C561   O596    1.291   .     A
C561   O595    1.294   .     A
C561   C571    1.428   .     S
C562   C563    1.414   .     A
C562   C60     1.425   1_556 S
C562   C76     1.417   1_556 S
C563   C570    1.416   .     A
C563   C567    1.411   .     A
C564   C568    1.401   .     A
C565   C566    1.393   .     A
C565   C60     1.419   1_556 S
C565   C72     1.405   1_556 S
C566   C567    1.389   .     A
C566   H586    1.084   .     S
C567   H591    1.081   .     S
C568   C577    1.397   .     A
C568   H588    1.078   .     S
C569   C577    1.399   .     A
C569   C576    1.394   .     A
C569   H583    1.083   .     S
C570   C572    1.476   .     S
C570   C578    1.403   .     A
C571   C741    1.331   .     S
C571   H760    1.088   .     S
C572   O598    1.303   .     A
C572   O597    1.305   .     A
C573   C574    1.428   .     S
C573   C907    1.331   1_545 S
C573   H920    1.087   1_545 S
C574   O600    1.294   .     A
C574   O599    1.291   .     A
C575   O602    1.305   .     A
C575   O601    1.298   .     A
C575   C577    1.463   .     S
C576   H643    1.084   .     S
C578   C579    1.393   .     A
C578   H589    1.083   .     S
C579   C76     1.413   1_556 S
C580   H590    1.074   .     S
Cu581  O595    1.950   .     S
Cu581  O599    1.948   .     S
Cu581  O601    1.917   .     S
Cu581  O597    1.935   .     S
Cu581  N594    2.029   .     S
Cu581  Cu582   2.701   .     S
Cu582  O602    1.935   .     S
Cu582  O600    1.950   .     S
Cu582  N593    2.029   .     S
Cu582  O596    1.948   .     S
Cu582  O598    1.917   .     S
H584   C741    1.087   .     S
H585   N650    1.029   .     S
H592   C907    1.088   1_545 S
N593   N650    1.287   .     S
N593   C659    1.411   .     S
C603   H604    1.082   .     S
O605   C659    1.219   .     S
O606   C635    1.397   .     S
O606   C103    1.413   1_556 S
C607   H609    1.115   .     S
C607   C610    1.529   .     S
C607   H608    1.112   .     S
C610   H612    1.111   .     S
C610   C613    1.527   .     S
C610   H611    1.111   .     S
C613   H616    1.111   .     S
C613   H950    1.110   1_545 S
C613   H951    1.111   1_545 S
H614   C781    1.110   .     S
H615   C781    1.111   .     S
C617   O652    1.291   .     A
C617   O651    1.294   .     A
C617   C627    1.428   .     S
C618   C619    1.414   .     A
C618   C116    1.425   1_556 S
C618   C132    1.417   1_556 S
C619   C626    1.416   .     A
C619   C623    1.411   .     A
C620   C624    1.401   .     A
C621   C622    1.393   .     A
C621   C116    1.419   1_556 S
C621   C128    1.405   1_556 S
C622   C623    1.389   .     A
C622   H642    1.084   .     S
C623   H647    1.081   .     S
C624   C633    1.397   .     A
C624   H644    1.078   .     S
C625   C633    1.399   .     A
C625   C632    1.394   .     A
C625   H639    1.083   .     S
C626   C628    1.476   .     S
C626   C634    1.403   .     A
C627   C797    1.331   .     S
C627   H816    1.088   .     S
C628   O654    1.303   .     A
C628   O653    1.305   .     A
C629   C630    1.428   .     S
C629   C963    1.331   1_545 S
C629   H976    1.087   1_545 S
C630   O656    1.294   .     A
C630   O655    1.291   .     A
C631   O658    1.305   .     A
C631   O657    1.298   .     A
C631   C633    1.463   .     S
C632   H531    1.084   1_655 S
C634   C635    1.393   .     A
C634   H645    1.083   .     S
C635   C132    1.413   1_556 S
C636   H646    1.074   .     S
Cu637  O651    1.950   .     S
Cu637  O655    1.948   .     S
Cu637  O657    1.917   .     S
Cu637  O653    1.935   .     S
Cu637  N650    2.029   .     S
Cu637  Cu638   2.701   .     S
Cu638  O658    1.935   .     S
Cu638  O656    1.950   .     S
Cu638  N649    2.029   .     S
Cu638  O652    1.948   .     S
Cu638  O654    1.917   .     S
H640   C797    1.087   .     S
H641   N538    1.029   1_655 S
H648   C963    1.088   1_545 S
N649   N538    1.287   1_655 S
N649   C547    1.411   1_655 S
C659   H660    1.082   .     S
O661   C547    1.219   1_655 S
O662   C523    1.397   1_655 S
O662   C159    1.413   1_556 S
C663   H665    1.115   .     S
C663   C666    1.529   .     S
C663   H664    1.112   .     S
C666   H668    1.111   .     S
C666   C669    1.527   .     S
C666   H667    1.111   .     S
C669   H672    1.111   .     S
C669   H1006   1.110   1_545 S
C669   H1007   1.111   1_545 S
H670   C837    1.110   .     S
H671   C837    1.111   .     S
C673   O708    1.291   .     A
C673   O707    1.294   .     A
C673   C683    1.428   .     S
C674   C675    1.414   .     A
C674   C172    1.425   1_556 S
C674   C188    1.417   1_556 S
C675   C682    1.416   .     A
C675   C679    1.411   .     A
C676   C680    1.401   .     A
C677   C678    1.393   .     A
C677   C172    1.419   1_556 S
C677   C184    1.405   1_556 S
C678   C679    1.389   .     A
C678   H698    1.084   .     S
C679   H703    1.081   .     S
C680   C689    1.397   .     A
C680   H700    1.078   .     S
C681   C689    1.399   .     A
C681   C688    1.394   .     A
C681   H695    1.083   .     S
C682   C684    1.476   .     S
C682   C690    1.403   .     A
C683   C853    1.331   .     S
C683   H872    1.088   .     S
C684   O710    1.303   .     A
C684   O709    1.305   .     A
C685   C686    1.428   .     S
C686   O712    1.294   .     A
C686   O711    1.291   .     A
C687   O714    1.305   .     A
C687   O713    1.298   .     A
C687   C689    1.463   .     S
C688   H755    1.084   .     S
C690   C691    1.393   .     A
C690   H701    1.083   .     S
C691   C188    1.413   1_556 S
C691   O830    1.397   1_455 S
C692   H702    1.074   .     S
Cu693  O707    1.950   .     S
Cu693  O711    1.948   .     S
Cu693  O713    1.917   .     S
Cu693  O709    1.935   .     S
Cu693  N706    2.029   .     S
Cu693  Cu694   2.701   .     S
Cu694  O714    1.935   .     S
Cu694  O712    1.950   .     S
Cu694  N705    2.029   .     S
Cu694  O708    1.948   .     S
Cu694  O710    1.917   .     S
H696   C853    1.087   .     S
H697   N762    1.029   .     S
H699   C800    1.084   1_455 S
N705   N762    1.287   .     S
N705   C771    1.411   .     S
N706   N817    1.287   1_455 S
N706   H809    1.029   1_455 S
C715   H716    1.082   .     S
C715   N817    1.411   1_455 S
C715   O829    1.219   1_455 S
O717   C771    1.219   .     S
O718   C747    1.397   .     S
O718   C215    1.413   1_556 S
C719   H721    1.115   .     S
C719   C722    1.529   .     S
C719   H720    1.112   .     S
C722   H724    1.111   .     S
C722   C725    1.527   .     S
C722   H723    1.111   .     S
C725   H728    1.111   .     S
H726   C893    1.110   .     S
H727   C893    1.111   .     S
C729   O764    1.291   .     A
C729   O763    1.294   .     A
C729   C739    1.428   .     S
C730   C731    1.414   .     A
C730   C228    1.425   1_556 S
C730   C244    1.417   1_556 S
C731   C738    1.416   .     A
C731   C735    1.411   .     A
C732   C736    1.401   .     A
C733   C734    1.393   .     A
C733   C228    1.419   1_556 S
C733   C240    1.405   1_556 S
C734   C735    1.389   .     A
C734   H754    1.084   .     S
C735   H759    1.081   .     S
C736   C745    1.397   .     A
C736   H756    1.078   .     S
C737   C745    1.399   .     A
C737   C744    1.394   .     A
C737   H751    1.083   .     S
C738   C740    1.476   .     S
C738   C746    1.403   .     A
C739   C909    1.331   .     S
C739   H928    1.088   .     S
C740   O766    1.303   .     A
C740   O765    1.305   .     A
C741   C742    1.428   .     S
C742   O768    1.294   .     A
C742   O767    1.291   .     A
C743   O770    1.305   .     A
C743   O769    1.298   .     A
C743   C745    1.463   .     S
C744   H811    1.084   .     S
C746   C747    1.393   .     A
C746   H757    1.083   .     S
C747   C244    1.413   1_556 S
C748   H758    1.074   .     S
Cu749  O763    1.950   .     S
Cu749  O767    1.948   .     S
Cu749  O769    1.917   .     S
Cu749  O765    1.935   .     S
Cu749  N762    2.029   .     S
Cu749  Cu750   2.701   .     S
Cu750  O770    1.935   .     S
Cu750  O768    1.950   .     S
Cu750  N761    2.029   .     S
Cu750  O764    1.948   .     S
Cu750  O766    1.917   .     S
H752   C909    1.087   .     S
H753   N818    1.029   .     S
N761   N818    1.287   .     S
N761   C827    1.411   .     S
C771   H772    1.082   .     S
O773   C827    1.219   .     S
O774   C803    1.397   .     S
O774   C271    1.413   1_556 S
C775   H777    1.115   .     S
C775   C778    1.529   .     S
C775   H776    1.112   .     S
C778   H780    1.111   .     S
C778   C781    1.527   .     S
C778   H779    1.111   .     S
C781   H784    1.111   .     S
H782   C949    1.110   .     S
H783   C949    1.111   .     S
C785   O820    1.291   .     A
C785   O819    1.294   .     A
C785   C795    1.428   .     S
C786   C787    1.414   .     A
C786   C284    1.425   1_556 S
C786   C300    1.417   1_556 S
C787   C794    1.416   .     A
C787   C791    1.411   .     A
C788   C792    1.401   .     A
C789   C790    1.393   .     A
C789   C284    1.419   1_556 S
C789   C296    1.405   1_556 S
C790   C791    1.389   .     A
C790   H810    1.084   .     S
C791   H815    1.081   .     S
C792   C801    1.397   .     A
C792   H812    1.078   .     S
C793   C801    1.399   .     A
C793   C800    1.394   .     A
C793   H807    1.083   .     S
C794   C796    1.476   .     S
C794   C802    1.403   .     A
C795   C965    1.331   .     S
C795   H984    1.088   .     S
C796   O822    1.303   .     A
C796   O821    1.305   .     A
C797   C798    1.428   .     S
C798   O824    1.294   .     A
C798   O823    1.291   .     A
C799   O826    1.305   .     A
C799   O825    1.298   .     A
C799   C801    1.463   .     S
C800   H699    1.084   1_655 S
C802   C803    1.393   .     A
C802   H813    1.083   .     S
C803   C300    1.413   1_556 S
C804   H814    1.074   .     S
Cu805  O819    1.950   .     S
Cu805  O823    1.948   .     S
Cu805  O825    1.917   .     S
Cu805  O821    1.935   .     S
Cu805  N818    2.029   .     S
Cu805  Cu806   2.701   .     S
Cu806  O826    1.935   .     S
Cu806  O824    1.950   .     S
Cu806  N817    2.029   .     S
Cu806  O820    1.948   .     S
Cu806  O822    1.917   .     S
H808   C965    1.087   .     S
H809   N706    1.029   1_655 S
N817   N706    1.287   1_655 S
N817   C715    1.411   1_655 S
C827   H828    1.082   .     S
O829   C715    1.219   1_655 S
O830   C691    1.397   1_655 S
O830   C327    1.413   1_556 S
C831   H833    1.115   .     S
C831   C834    1.529   .     S
C831   H832    1.112   .     S
C834   H836    1.111   .     S
C834   C837    1.527   .     S
C834   H835    1.111   .     S
C837   H840    1.111   .     S
H838   C1005   1.110   .     S
H839   C1005   1.111   .     S
C841   O876    1.291   .     A
C841   O875    1.294   .     A
C841   C851    1.428   .     S
C842   C843    1.414   .     A
C842   C340    1.425   1_556 S
C842   C356    1.417   1_556 S
C843   C850    1.416   .     A
C843   C847    1.411   .     A
C844   C848    1.401   .     A
C845   C846    1.393   .     A
C845   C340    1.419   1_556 S
C845   C352    1.405   1_556 S
C846   C847    1.389   .     A
C846   H866    1.084   .     S
C847   H871    1.081   .     S
C848   C857    1.397   .     A
C848   H868    1.078   .     S
C849   C857    1.399   .     A
C849   C856    1.394   .     A
C849   H863    1.083   .     S
C850   C852    1.476   .     S
C850   C858    1.403   .     A
C851   C517    1.331   1_565 S
C851   H536    1.088   1_565 S
C852   O878    1.303   .     A
C852   O877    1.305   .     A
C853   C854    1.428   .     S
C854   O880    1.294   .     A
C854   O879    1.291   .     A
C855   O882    1.305   .     A
C855   O881    1.298   .     A
C855   C857    1.463   .     S
C856   H923    1.084   .     S
C858   C859    1.393   .     A
C858   H869    1.083   .     S
C859   C356    1.413   1_556 S
C859   O998    1.397   1_455 S
C860   H870    1.074   .     S
Cu861  O875    1.950   .     S
Cu861  O879    1.948   .     S
Cu861  O881    1.917   .     S
Cu861  O877    1.935   .     S
Cu861  N874    2.029   .     S
Cu861  Cu862   2.701   .     S
Cu862  O882    1.935   .     S
Cu862  O880    1.950   .     S
Cu862  N873    2.029   .     S
Cu862  O876    1.948   .     S
Cu862  O878    1.917   .     S
H864   C517    1.087   1_565 S
H865   N930    1.029   .     S
H867   C968    1.084   1_455 S
N873   N930    1.287   .     S
N873   C939    1.411   .     S
N874   N985    1.287   1_455 S
N874   H977    1.029   1_455 S
C883   H884    1.082   .     S
C883   N985    1.411   1_455 S
C883   O997    1.219   1_455 S
O885   C939    1.219   .     S
O886   C915    1.397   .     S
O886   C383    1.413   1_556 S
C887   H889    1.115   .     S
C887   C890    1.529   .     S
C887   H888    1.112   .     S
C890   H892    1.111   .     S
C890   C893    1.527   .     S
C890   H891    1.111   .     S
C893   H896    1.111   .     S
H894   C557    1.110   1_565 S
H895   C557    1.111   1_565 S
C897   O932    1.291   .     A
C897   O931    1.294   .     A
C897   C907    1.428   .     S
C898   C899    1.414   .     A
C898   C396    1.425   1_556 S
C898   C412    1.417   1_556 S
C899   C906    1.416   .     A
C899   C903    1.411   .     A
C900   C904    1.401   .     A
C901   C902    1.393   .     A
C901   C396    1.419   1_556 S
C901   C408    1.405   1_556 S
C902   C903    1.389   .     A
C902   H922    1.084   .     S
C903   H927    1.081   .     S
C904   C913    1.397   .     A
C904   H924    1.078   .     S
C905   C913    1.399   .     A
C905   C912    1.394   .     A
C905   H919    1.083   .     S
C906   C908    1.476   .     S
C906   C914    1.403   .     A
C907   C573    1.331   1_565 S
C907   H592    1.088   1_565 S
C908   O934    1.303   .     A
C908   O933    1.305   .     A
C909   C910    1.428   .     S
C910   O936    1.294   .     A
C910   O935    1.291   .     A
C911   O938    1.305   .     A
C911   O937    1.298   .     A
C911   C913    1.463   .     S
C912   H979    1.084   .     S
C914   C915    1.393   .     A
C914   H925    1.083   .     S
C915   C412    1.413   1_556 S
C916   H926    1.074   .     S
Cu917  O931    1.950   .     S
Cu917  O935    1.948   .     S
Cu917  O937    1.917   .     S
Cu917  O933    1.935   .     S
Cu917  N930    2.029   .     S
Cu917  Cu918   2.701   .     S
Cu918  O938    1.935   .     S
Cu918  O936    1.950   .     S
Cu918  N929    2.029   .     S
Cu918  O932    1.948   .     S
Cu918  O934    1.917   .     S
H920   C573    1.087   1_565 S
H921   N986    1.029   .     S
N929   N986    1.287   .     S
N929   C995    1.411   .     S
C939   H940    1.082   .     S
O941   C995    1.219   .     S
O942   C971    1.397   .     S
O942   C439    1.413   1_556 S
C943   H945    1.115   .     S
C943   C946    1.529   .     S
C943   H944    1.112   .     S
C946   H948    1.111   .     S
C946   C949    1.527   .     S
C946   H947    1.111   .     S
C949   H952    1.111   .     S
H950   C613    1.110   1_565 S
H951   C613    1.111   1_565 S
C953   O988    1.291   .     A
C953   O987    1.294   .     A
C953   C963    1.428   .     S
C954   C955    1.414   .     A
C954   C452    1.425   1_556 S
C954   C468    1.417   1_556 S
C955   C962    1.416   .     A
C955   C959    1.411   .     A
C956   C960    1.401   .     A
C957   C958    1.393   .     A
C957   C452    1.419   1_556 S
C957   C464    1.405   1_556 S
C958   C959    1.389   .     A
C958   H978    1.084   .     S
C959   H983    1.081   .     S
C960   C969    1.397   .     A
C960   H980    1.078   .     S
C961   C969    1.399   .     A
C961   C968    1.394   .     A
C961   H975    1.083   .     S
C962   C964    1.476   .     S
C962   C970    1.403   .     A
C963   C629    1.331   1_565 S
C963   H648    1.088   1_565 S
C964   O990    1.303   .     A
C964   O989    1.305   .     A
C965   C966    1.428   .     S
C966   O992    1.294   .     A
C966   O991    1.291   .     A
C967   O994    1.305   .     A
C967   O993    1.298   .     A
C967   C969    1.463   .     S
C968   H867    1.084   1_655 S
C970   C971    1.393   .     A
C970   H981    1.083   .     S
C971   C468    1.413   1_556 S
C972   H982    1.074   .     S
Cu973  O987    1.950   .     S
Cu973  O991    1.948   .     S
Cu973  O993    1.917   .     S
Cu973  O989    1.935   .     S
Cu973  N986    2.029   .     S
Cu973  Cu974   2.701   .     S
Cu974  O994    1.935   .     S
Cu974  O992    1.950   .     S
Cu974  N985    2.029   .     S
Cu974  O988    1.948   .     S
Cu974  O990    1.917   .     S
H976   C629    1.087   1_565 S
H977   N874    1.029   1_655 S
N985   N874    1.287   1_655 S
N985   C883    1.411   1_655 S
C995   H996    1.082   .     S
O997   C883    1.219   1_655 S
O998   C859    1.397   1_655 S
O998   C495    1.413   1_556 S
C999   H1001   1.115   .     S
C999   C1002   1.529   .     S
C999   H1000   1.112   .     S
C1002  H1004   1.111   .     S
C1002  C1005   1.527   .     S
C1002  H1003   1.111   .     S
C1005  H1008   1.111   .     S
H1006  C669    1.110   1_565 S
H1007  C669    1.111   1_565 S
