data_str_m3_o2_o5_pcu_sym.55
_audit_creation_date              2020-01-03
_audit_creation_method            'Materials Studio'
_symmetry_space_group_name_H-M    'P1'
_symmetry_Int_Tables_number       1
_symmetry_cell_setting            triclinic
loop_
_symmetry_equiv_pos_as_xyz
  x,y,z
_cell_length_a                    30.0411
_cell_length_b                    28.7312
_cell_length_c                    26.9401
_cell_angle_alpha                 89.6071
_cell_angle_beta                  95.2292
_cell_angle_gamma                 92.2046
loop_
_atom_site_label
_atom_site_type_symbol
_atom_site_fract_x
_atom_site_fract_y
_atom_site_fract_z
_atom_site_U_iso_or_equiv
_atom_site_adp_type
_atom_site_occupancy
C1     C     0.16413   0.24918   0.16977   0.00000  Uiso   1.00
C2     C     0.20942   0.44481   0.15670   0.00000  Uiso   1.00
C3     C     0.24968   0.25009   0.07291   0.00000  Uiso   1.00
C4     C     0.25032   0.24992   0.26042   0.00000  Uiso   1.00
C5     C     0.24784   0.02652   0.17049   0.00000  Uiso   1.00
C6     C     0.24839   0.47304   0.17081   0.00000  Uiso   1.00
C7     C     0.24987   0.25014   0.02175   0.00000  Uiso   1.00
C8     C     0.25010   0.24987   0.31158   0.00000  Uiso   1.00
C9     C     0.05141   0.29403   0.17682   0.00000  Uiso   1.00
C10    C     0.45093   0.22107   0.13574   0.00000  Uiso   1.00
C11    C     0.45131   0.29052   0.18742   0.00000  Uiso   1.00
C12    C     0.33543   0.25084   0.16273   0.00000  Uiso   1.00
C13    C     0.04428   0.20936   0.18242   0.00000  Uiso   1.00
C14    C     0.09699   0.29075   0.18727   0.00000  Uiso   1.00
C15    C     0.40444   0.21656   0.13649   0.00000  Uiso   1.00
C16    C     0.40717   0.29452   0.16965   0.00000  Uiso   1.00
C17    C     0.08990   0.20679   0.17603   0.00000  Uiso   1.00
C18    C     0.11666   0.24830   0.17805   0.00000  Uiso   1.00
C19    C     0.38279   0.25327   0.15688   0.00000  Uiso   1.00
C20    C     0.02402   0.25293   0.17656   0.00000  Uiso   1.00
C21    C     0.47508   0.25450   0.16757   0.00000  Uiso   1.00
C22    C     0.20132   0.12493   0.08662   0.00000  Uiso   1.00
C23    C     0.22514   0.10071   0.13040   0.00000  Uiso   1.00
C24    C     0.31708   0.37739   0.22936   0.00000  Uiso   1.00
C25    C     0.30405   0.12873   0.24437   0.00000  Uiso   1.00
C26    C     0.17811   0.37403   0.11080   0.00000  Uiso   1.00
C27    C     0.02939   0.34652   0.11713   0.00000  Uiso   1.00
C28    C     0.01217   0.39521   0.10812   0.00000  Uiso   1.00
C29    C     0.48760   0.22122   0.06542   0.00000  Uiso   1.00
C30    C     0.49737   0.19043   0.02264   0.00000  Uiso   1.00
C31    C     0.47681   0.30407   0.26806   0.00000  Uiso   1.00
C32    C     0.49570   0.34125   0.30477   0.00000  Uiso   1.00
C33    C     0.00928   0.16232   0.23630   0.00000  Uiso   1.00
C34    C     0.28490   0.39951   0.19088   0.00000  Uiso   1.00
C35    C     0.48667   0.11450   0.24177   0.00000  Uiso   1.00
C36    C     0.13398   0.32386   0.25591   0.00000  Uiso   1.00
C37    C     0.16047   0.36669   0.27651   0.00000  Uiso   1.00
C38    C     0.38318   0.13946   0.12971   0.00000  Uiso   1.00
C39    C     0.35043   0.10560   0.10080   0.00000  Uiso   1.00
C40    C     0.39006   0.33757   0.09982   0.00000  Uiso   1.00
C41    C     0.37664   0.38462   0.07858   0.00000  Uiso   1.00
C42    C     0.09326   0.14109   0.12866   0.00000  Uiso   1.00
C43    C     0.09911   0.08901   0.13503   0.00000  Uiso   1.00
C44    C     0.21517   0.01199   0.05805   0.00000  Uiso   1.00
C45    C     0.27417   0.10321   0.20455   0.00000  Uiso   1.00
C46    C     0.18007   0.49326   0.01804   0.00000  Uiso   1.00
C47    C     0.35966   0.46476   0.16517   0.00000  Uiso   1.00
C48    C     0.40199   0.49394   0.18037   0.00000  Uiso   1.00
C49    C     0.27245   0.01451   0.28233   0.00000  Uiso   1.00
C50    C     0.30361   0.49324   0.32347   0.00000  Uiso   1.00
C51    C     0.15507   0.47762   0.19822   0.00000  Uiso   1.00
C52    C     0.10500   0.46939   0.20043   0.00000  Uiso   1.00
C53    C     0.21378   0.39720   0.14592   0.00000  Uiso   1.00
C54    C     0.22336   0.05123   0.13177   0.00000  Uiso   1.00
C55    C     0.28797   0.44870   0.18448   0.00000  Uiso   1.00
C56    C     0.27221   0.05405   0.20814   0.00000  Uiso   1.00
H57    H     0.18694   0.15718   0.09846   0.00000  Uiso   1.00
H58    H     0.14635   0.36985   0.12848   0.00000  Uiso   1.00
H59    H     0.17203   0.39616   0.07713   0.00000  Uiso   1.00
H60    H     0.18822   0.34036   0.09719   0.00000  Uiso   1.00
H61    H     0.00452   0.32131   0.09829   0.00000  Uiso   1.00
H62    H     0.06183   0.34443   0.10034   0.00000  Uiso   1.00
H63    H     0.03747   0.42155   0.12379   0.00000  Uiso   1.00
H64    H     0.00545   0.40160   0.06749   0.00000  Uiso   1.00
H65    H     0.48074   0.39886   0.12622   0.00000  Uiso   1.00
H66    H     0.01934   0.24000   0.07893   0.00000  Uiso   1.00
H67    H     0.46274   0.24693   0.05057   0.00000  Uiso   1.00
H68    H     0.22520   0.13278   0.05834   0.00000  Uiso   1.00
H69    H     0.46566   0.17455   0.00482   0.00000  Uiso   1.00
H70    H     0.01406   0.21202   0.32834   0.00000  Uiso   1.00
H71    H     0.01996   0.16244   0.03603   0.00000  Uiso   1.00
H72    H     0.00104   0.27571   0.26900   0.00000  Uiso   1.00
H73    H     0.44447   0.29007   0.28043   0.00000  Uiso   1.00
H74    H     0.47149   0.36930   0.30664   0.00000  Uiso   1.00
H75    H     0.00212   0.32544   0.00893   0.00000  Uiso   1.00
H76    H     0.02766   0.35644   0.29301   0.00000  Uiso   1.00
H77    H     0.48583   0.18903   0.24632   0.00000  Uiso   1.00
H78    H     0.04040   0.16415   0.26226   0.00000  Uiso   1.00
H79    H     0.17305   0.10355   0.06833   0.00000  Uiso   1.00
H80    H     0.00890   0.08702   0.23092   0.00000  Uiso   1.00
H81    H     0.47948   0.10861   0.28105   0.00000  Uiso   1.00
H82    H     0.45472   0.11204   0.21755   0.00000  Uiso   1.00
H83    H     0.15541   0.29328   0.26285   0.00000  Uiso   1.00
H84    H     0.10372   0.31895   0.27674   0.00000  Uiso   1.00
H85    H     0.13857   0.39697   0.27516   0.00000  Uiso   1.00
H86    H     0.17311   0.36044   0.31594   0.00000  Uiso   1.00
H87    H     0.18941   0.37441   0.25450   0.00000  Uiso   1.00
H88    H     0.37455   0.14027   0.16905   0.00000  Uiso   1.00
H89    H     0.41751   0.12650   0.12881   0.00000  Uiso   1.00
H90    H     0.34052   0.35561   0.21225   0.00000  Uiso   1.00
H91    H     0.36028   0.10127   0.06240   0.00000  Uiso   1.00
H92    H     0.35007   0.07115   0.11958   0.00000  Uiso   1.00
H93    H     0.31618   0.11910   0.09856   0.00000  Uiso   1.00
H94    H     0.36451   0.31141   0.08378   0.00000  Uiso   1.00
H95    H     0.42305   0.32978   0.08661   0.00000  Uiso   1.00
H96    H     0.40163   0.41213   0.09217   0.00000  Uiso   1.00
H97    H     0.37529   0.38366   0.03726   0.00000  Uiso   1.00
H98    H     0.34291   0.39270   0.08914   0.00000  Uiso   1.00
H99    H     0.11245   0.15453   0.09804   0.00000  Uiso   1.00
H100   H     0.05739   0.14603   0.11666   0.00000  Uiso   1.00
H101   H     0.29854   0.35698   0.25621   0.00000  Uiso   1.00
H102   H     0.07624   0.07488   0.16207   0.00000  Uiso   1.00
H103   H     0.09120   0.07110   0.09872   0.00000  Uiso   1.00
H104   H     0.13398   0.08212   0.14939   0.00000  Uiso   1.00
H105   H     0.23721   0.48327   0.07057   0.00000  Uiso   1.00
H106   H     0.23537   0.04065   0.04217   0.00000  Uiso   1.00
H107   H     0.16237   0.02255   0.33231   0.00000  Uiso   1.00
H108   H     0.19600   0.47288   0.32355   0.00000  Uiso   1.00
H109   H     0.15526   0.46996   0.03501   0.00000  Uiso   1.00
H110   H     0.34704   0.47453   0.12646   0.00000  Uiso   1.00
H111   H     0.36879   0.42774   0.16699   0.00000  Uiso   1.00
H112   H     0.33767   0.40384   0.25190   0.00000  Uiso   1.00
H113   H     0.41670   0.48264   0.21763   0.00000  Uiso   1.00
H114   H     0.42683   0.48946   0.15283   0.00000  Uiso   1.00
H115   H     0.39433   0.03133   0.18222   0.00000  Uiso   1.00
H116   H     0.24954   0.48630   0.26611   0.00000  Uiso   1.00
H117   H     0.25254   0.04169   0.29795   0.00000  Uiso   1.00
H118   H     0.31985   0.02106   0.01472   0.00000  Uiso   1.00
H119   H     0.28481   0.46821   0.01254   0.00000  Uiso   1.00
H120   H     0.32994   0.47381   0.30706   0.00000  Uiso   1.00
H121   H     0.16312   0.01550   0.20244   0.00000  Uiso   1.00
H122   H     0.17240   0.45917   0.23054   0.00000  Uiso   1.00
H123   H     0.31158   0.16512   0.23575   0.00000  Uiso   1.00
H124   H     0.09625   0.43154   0.19758   0.00000  Uiso   1.00
H125   H     0.09499   0.48254   0.23630   0.00000  Uiso   1.00
H126   H     0.08641   0.48787   0.16922   0.00000  Uiso   1.00
H127   H     0.28860   0.12672   0.28027   0.00000  Uiso   1.00
H128   H     0.33721   0.11263   0.24935   0.00000  Uiso   1.00
N129   N     0.25000   0.12624   0.16667   0.00000  Uiso   1.00
N130   N     0.25000   0.37377   0.16667   0.00000  Uiso   1.00
O131   O     0.18453   0.28974   0.16667   0.00000  Uiso   1.00
O132   O     0.47160   0.19317   0.10377   0.00000  Uiso   1.00
O133   O     0.47061   0.32398   0.22002   0.00000  Uiso   1.00
O134   O     0.01912   0.16835   0.18659   0.00000  Uiso   1.00
O135   O     0.12181   0.32995   0.20435   0.00000  Uiso   1.00
O136   O     0.37969   0.18377   0.10712   0.00000  Uiso   1.00
O137   O     0.39243   0.33756   0.15284   0.00000  Uiso   1.00
O138   O     0.10888   0.16376   0.17381   0.00000  Uiso   1.00
O139   O     0.19314   0.02808   0.09796   0.00000  Uiso   1.00
O140   O     0.32766   0.47310   0.19867   0.00000  Uiso   1.00
O141   O     0.29879   0.03433   0.24668   0.00000  Uiso   1.00
O142   O     0.31547   0.21026   0.16666   0.00000  Uiso   1.00
O143   O     0.16692   0.46237   0.15151   0.00000  Uiso   1.00
O144   O     0.31547   0.28974   0.16666   0.00000  Uiso   1.00
O145   O     0.18453   0.21026   0.16667   0.00000  Uiso   1.00
O146   O     0.25000   0.28973   0.09511   0.00000  Uiso   1.00
O147   O     0.25000   0.21027   0.23822   0.00000  Uiso   1.00
O148   O     0.25000   0.28973   0.23822   0.00000  Uiso   1.00
O149   O     0.25000   0.21027   0.09511   0.00000  Uiso   1.00
O150   O     0.03468   0.33785   0.16887   0.00000  Uiso   1.00
Zn151  Zn    0.25000   0.30307   0.16667   0.00000  Uiso   1.00
Zn152  Zn    0.25000   0.19693   0.16667   0.00000  Uiso   1.00
C153   C     0.66413   0.24918   0.16977   0.00000  Uiso   1.00
C154   C     0.70942   0.44481   0.15670   0.00000  Uiso   1.00
C155   C     0.74968   0.25009   0.07291   0.00000  Uiso   1.00
C156   C     0.75032   0.24992   0.26042   0.00000  Uiso   1.00
C157   C     0.74784   0.02652   0.17049   0.00000  Uiso   1.00
C158   C     0.74839   0.47304   0.17081   0.00000  Uiso   1.00
C159   C     0.74987   0.25014   0.02175   0.00000  Uiso   1.00
C160   C     0.75010   0.24987   0.31158   0.00000  Uiso   1.00
C161   C     0.55141   0.29403   0.17682   0.00000  Uiso   1.00
C162   C     0.95093   0.22107   0.13574   0.00000  Uiso   1.00
C163   C     0.95131   0.29052   0.18742   0.00000  Uiso   1.00
C164   C     0.83543   0.25084   0.16273   0.00000  Uiso   1.00
C165   C     0.54428   0.20936   0.18242   0.00000  Uiso   1.00
C166   C     0.59699   0.29075   0.18727   0.00000  Uiso   1.00
C167   C     0.90444   0.21656   0.13649   0.00000  Uiso   1.00
C168   C     0.90717   0.29452   0.16965   0.00000  Uiso   1.00
C169   C     0.58990   0.20679   0.17603   0.00000  Uiso   1.00
C170   C     0.61666   0.24830   0.17805   0.00000  Uiso   1.00
C171   C     0.88279   0.25327   0.15688   0.00000  Uiso   1.00
C172   C     0.52402   0.25293   0.17656   0.00000  Uiso   1.00
C173   C     0.97508   0.25450   0.16757   0.00000  Uiso   1.00
C174   C     0.70132   0.12493   0.08662   0.00000  Uiso   1.00
C175   C     0.72514   0.10071   0.13040   0.00000  Uiso   1.00
C176   C     0.81708   0.37739   0.22936   0.00000  Uiso   1.00
C177   C     0.80405   0.12873   0.24437   0.00000  Uiso   1.00
C178   C     0.67811   0.37403   0.11080   0.00000  Uiso   1.00
C179   C     0.52939   0.34652   0.11713   0.00000  Uiso   1.00
C180   C     0.51217   0.39521   0.10812   0.00000  Uiso   1.00
C181   C     0.98760   0.22122   0.06542   0.00000  Uiso   1.00
C182   C     0.99737   0.19043   0.02264   0.00000  Uiso   1.00
C183   C     0.97681   0.30407   0.26806   0.00000  Uiso   1.00
C184   C     0.99570   0.34125   0.30477   0.00000  Uiso   1.00
C185   C     0.50928   0.16232   0.23630   0.00000  Uiso   1.00
C186   C     0.78490   0.39951   0.19088   0.00000  Uiso   1.00
C187   C     0.98667   0.11450   0.24177   0.00000  Uiso   1.00
C188   C     0.63398   0.32386   0.25591   0.00000  Uiso   1.00
C189   C     0.66047   0.36669   0.27651   0.00000  Uiso   1.00
C190   C     0.88318   0.13946   0.12971   0.00000  Uiso   1.00
C191   C     0.85043   0.10560   0.10080   0.00000  Uiso   1.00
C192   C     0.89006   0.33757   0.09982   0.00000  Uiso   1.00
C193   C     0.87664   0.38462   0.07858   0.00000  Uiso   1.00
C194   C     0.59326   0.14109   0.12866   0.00000  Uiso   1.00
C195   C     0.59911   0.08901   0.13503   0.00000  Uiso   1.00
C196   C     0.71517   0.01199   0.05805   0.00000  Uiso   1.00
C197   C     0.77417   0.10321   0.20455   0.00000  Uiso   1.00
C198   C     0.68007   0.49326   0.01804   0.00000  Uiso   1.00
C199   C     0.85966   0.46476   0.16517   0.00000  Uiso   1.00
C200   C     0.90199   0.49394   0.18037   0.00000  Uiso   1.00
C201   C     0.77245   0.01451   0.28233   0.00000  Uiso   1.00
C202   C     0.80361   0.49324   0.32347   0.00000  Uiso   1.00
C203   C     0.65507   0.47762   0.19822   0.00000  Uiso   1.00
C204   C     0.60500   0.46939   0.20043   0.00000  Uiso   1.00
C205   C     0.71378   0.39720   0.14592   0.00000  Uiso   1.00
C206   C     0.72336   0.05123   0.13177   0.00000  Uiso   1.00
C207   C     0.78797   0.44870   0.18448   0.00000  Uiso   1.00
C208   C     0.77221   0.05405   0.20814   0.00000  Uiso   1.00
H209   H     0.68694   0.15718   0.09846   0.00000  Uiso   1.00
H210   H     0.64635   0.36985   0.12848   0.00000  Uiso   1.00
H211   H     0.67203   0.39616   0.07713   0.00000  Uiso   1.00
H212   H     0.68822   0.34036   0.09719   0.00000  Uiso   1.00
H213   H     0.50452   0.32131   0.09829   0.00000  Uiso   1.00
H214   H     0.56183   0.34443   0.10034   0.00000  Uiso   1.00
H215   H     0.53747   0.42155   0.12379   0.00000  Uiso   1.00
H216   H     0.50545   0.40160   0.06749   0.00000  Uiso   1.00
H217   H     0.98074   0.39886   0.12622   0.00000  Uiso   1.00
H218   H     0.51934   0.24000   0.07893   0.00000  Uiso   1.00
H219   H     0.96274   0.24693   0.05057   0.00000  Uiso   1.00
H220   H     0.72520   0.13278   0.05834   0.00000  Uiso   1.00
H221   H     0.96566   0.17455   0.00482   0.00000  Uiso   1.00
H222   H     0.51406   0.21202   0.32834   0.00000  Uiso   1.00
H223   H     0.51996   0.16244   0.03603   0.00000  Uiso   1.00
H224   H     0.50104   0.27571   0.26900   0.00000  Uiso   1.00
H225   H     0.94447   0.29007   0.28043   0.00000  Uiso   1.00
H226   H     0.97149   0.36930   0.30664   0.00000  Uiso   1.00
H227   H     0.50212   0.32544   0.00893   0.00000  Uiso   1.00
H228   H     0.52766   0.35644   0.29301   0.00000  Uiso   1.00
H229   H     0.98583   0.18903   0.24632   0.00000  Uiso   1.00
H230   H     0.54040   0.16415   0.26226   0.00000  Uiso   1.00
H231   H     0.67305   0.10355   0.06833   0.00000  Uiso   1.00
H232   H     0.50890   0.08702   0.23092   0.00000  Uiso   1.00
H233   H     0.97948   0.10861   0.28105   0.00000  Uiso   1.00
H234   H     0.95472   0.11204   0.21755   0.00000  Uiso   1.00
H235   H     0.65541   0.29328   0.26285   0.00000  Uiso   1.00
H236   H     0.60372   0.31895   0.27674   0.00000  Uiso   1.00
H237   H     0.63857   0.39697   0.27516   0.00000  Uiso   1.00
H238   H     0.67311   0.36044   0.31594   0.00000  Uiso   1.00
H239   H     0.68941   0.37441   0.25450   0.00000  Uiso   1.00
H240   H     0.87455   0.14027   0.16905   0.00000  Uiso   1.00
H241   H     0.91751   0.12650   0.12881   0.00000  Uiso   1.00
H242   H     0.84052   0.35561   0.21225   0.00000  Uiso   1.00
H243   H     0.86028   0.10127   0.06240   0.00000  Uiso   1.00
H244   H     0.85007   0.07115   0.11958   0.00000  Uiso   1.00
H245   H     0.81618   0.11910   0.09856   0.00000  Uiso   1.00
H246   H     0.86451   0.31141   0.08378   0.00000  Uiso   1.00
H247   H     0.92305   0.32978   0.08661   0.00000  Uiso   1.00
H248   H     0.90163   0.41213   0.09217   0.00000  Uiso   1.00
H249   H     0.87529   0.38366   0.03726   0.00000  Uiso   1.00
H250   H     0.84291   0.39270   0.08914   0.00000  Uiso   1.00
H251   H     0.61245   0.15453   0.09804   0.00000  Uiso   1.00
H252   H     0.55739   0.14603   0.11666   0.00000  Uiso   1.00
H253   H     0.79854   0.35698   0.25621   0.00000  Uiso   1.00
H254   H     0.57624   0.07488   0.16207   0.00000  Uiso   1.00
H255   H     0.59120   0.07110   0.09872   0.00000  Uiso   1.00
H256   H     0.63398   0.08212   0.14939   0.00000  Uiso   1.00
H257   H     0.73721   0.48327   0.07057   0.00000  Uiso   1.00
H258   H     0.73537   0.04065   0.04217   0.00000  Uiso   1.00
H259   H     0.66237   0.02255   0.33231   0.00000  Uiso   1.00
H260   H     0.69600   0.47288   0.32355   0.00000  Uiso   1.00
H261   H     0.65526   0.46996   0.03501   0.00000  Uiso   1.00
H262   H     0.84704   0.47453   0.12646   0.00000  Uiso   1.00
H263   H     0.86879   0.42774   0.16699   0.00000  Uiso   1.00
H264   H     0.83767   0.40384   0.25190   0.00000  Uiso   1.00
H265   H     0.91670   0.48264   0.21763   0.00000  Uiso   1.00
H266   H     0.92683   0.48946   0.15283   0.00000  Uiso   1.00
H267   H     0.89433   0.03133   0.18222   0.00000  Uiso   1.00
H268   H     0.74954   0.48630   0.26611   0.00000  Uiso   1.00
H269   H     0.75254   0.04169   0.29795   0.00000  Uiso   1.00
H270   H     0.81985   0.02106   0.01472   0.00000  Uiso   1.00
H271   H     0.78481   0.46821   0.01254   0.00000  Uiso   1.00
H272   H     0.82994   0.47381   0.30706   0.00000  Uiso   1.00
H273   H     0.66312   0.01550   0.20244   0.00000  Uiso   1.00
H274   H     0.67240   0.45917   0.23054   0.00000  Uiso   1.00
H275   H     0.81158   0.16512   0.23575   0.00000  Uiso   1.00
H276   H     0.59625   0.43154   0.19758   0.00000  Uiso   1.00
H277   H     0.59499   0.48254   0.23630   0.00000  Uiso   1.00
H278   H     0.58641   0.48787   0.16922   0.00000  Uiso   1.00
H279   H     0.78860   0.12672   0.28027   0.00000  Uiso   1.00
H280   H     0.83721   0.11263   0.24935   0.00000  Uiso   1.00
N281   N     0.75000   0.12624   0.16667   0.00000  Uiso   1.00
N282   N     0.75000   0.37377   0.16667   0.00000  Uiso   1.00
O283   O     0.68453   0.28974   0.16667   0.00000  Uiso   1.00
O284   O     0.97160   0.19317   0.10377   0.00000  Uiso   1.00
O285   O     0.97061   0.32398   0.22002   0.00000  Uiso   1.00
O286   O     0.51912   0.16835   0.18659   0.00000  Uiso   1.00
O287   O     0.62181   0.32995   0.20435   0.00000  Uiso   1.00
O288   O     0.87969   0.18377   0.10712   0.00000  Uiso   1.00
O289   O     0.89243   0.33756   0.15284   0.00000  Uiso   1.00
O290   O     0.60888   0.16376   0.17381   0.00000  Uiso   1.00
O291   O     0.69314   0.02808   0.09796   0.00000  Uiso   1.00
O292   O     0.82766   0.47310   0.19867   0.00000  Uiso   1.00
O293   O     0.79879   0.03433   0.24668   0.00000  Uiso   1.00
O294   O     0.81547   0.21026   0.16666   0.00000  Uiso   1.00
O295   O     0.66692   0.46237   0.15151   0.00000  Uiso   1.00
O296   O     0.81547   0.28974   0.16666   0.00000  Uiso   1.00
O297   O     0.68453   0.21026   0.16667   0.00000  Uiso   1.00
O298   O     0.75000   0.28973   0.09511   0.00000  Uiso   1.00
O299   O     0.75000   0.21027   0.23822   0.00000  Uiso   1.00
O300   O     0.75000   0.28973   0.23822   0.00000  Uiso   1.00
O301   O     0.75000   0.21027   0.09511   0.00000  Uiso   1.00
O302   O     0.53468   0.33785   0.16887   0.00000  Uiso   1.00
Zn303  Zn    0.75000   0.30307   0.16667   0.00000  Uiso   1.00
Zn304  Zn    0.75000   0.19693   0.16667   0.00000  Uiso   1.00
C305   C     0.16413   0.74918   0.16977   0.00000  Uiso   1.00
C306   C     0.20942   0.94481   0.15670   0.00000  Uiso   1.00
C307   C     0.24968   0.75009   0.07291   0.00000  Uiso   1.00
C308   C     0.25032   0.74992   0.26042   0.00000  Uiso   1.00
C309   C     0.24784   0.52652   0.17049   0.00000  Uiso   1.00
C310   C     0.24839   0.97304   0.17081   0.00000  Uiso   1.00
C311   C     0.24987   0.75014   0.02175   0.00000  Uiso   1.00
C312   C     0.25010   0.74987   0.31158   0.00000  Uiso   1.00
C313   C     0.05141   0.79403   0.17682   0.00000  Uiso   1.00
C314   C     0.45093   0.72107   0.13574   0.00000  Uiso   1.00
C315   C     0.45131   0.79052   0.18742   0.00000  Uiso   1.00
C316   C     0.33543   0.75084   0.16273   0.00000  Uiso   1.00
C317   C     0.04428   0.70936   0.18242   0.00000  Uiso   1.00
C318   C     0.09699   0.79075   0.18727   0.00000  Uiso   1.00
C319   C     0.40444   0.71656   0.13649   0.00000  Uiso   1.00
C320   C     0.40717   0.79452   0.16965   0.00000  Uiso   1.00
C321   C     0.08990   0.70679   0.17603   0.00000  Uiso   1.00
C322   C     0.11666   0.74830   0.17805   0.00000  Uiso   1.00
C323   C     0.38279   0.75327   0.15688   0.00000  Uiso   1.00
C324   C     0.02402   0.75293   0.17656   0.00000  Uiso   1.00
C325   C     0.47508   0.75450   0.16757   0.00000  Uiso   1.00
C326   C     0.20132   0.62493   0.08662   0.00000  Uiso   1.00
C327   C     0.22514   0.60071   0.13040   0.00000  Uiso   1.00
C328   C     0.31708   0.87739   0.22936   0.00000  Uiso   1.00
C329   C     0.30405   0.62873   0.24437   0.00000  Uiso   1.00
C330   C     0.17811   0.87403   0.11080   0.00000  Uiso   1.00
C331   C     0.02939   0.84652   0.11713   0.00000  Uiso   1.00
C332   C     0.01217   0.89521   0.10812   0.00000  Uiso   1.00
C333   C     0.48760   0.72122   0.06542   0.00000  Uiso   1.00
C334   C     0.49737   0.69043   0.02264   0.00000  Uiso   1.00
C335   C     0.47681   0.80407   0.26806   0.00000  Uiso   1.00
C336   C     0.49570   0.84125   0.30477   0.00000  Uiso   1.00
C337   C     0.00928   0.66232   0.23630   0.00000  Uiso   1.00
C338   C     0.28490   0.89951   0.19088   0.00000  Uiso   1.00
C339   C     0.48667   0.61450   0.24177   0.00000  Uiso   1.00
C340   C     0.13398   0.82386   0.25591   0.00000  Uiso   1.00
C341   C     0.16047   0.86669   0.27651   0.00000  Uiso   1.00
C342   C     0.38318   0.63946   0.12971   0.00000  Uiso   1.00
C343   C     0.35043   0.60560   0.10080   0.00000  Uiso   1.00
C344   C     0.39006   0.83757   0.09982   0.00000  Uiso   1.00
C345   C     0.37664   0.88462   0.07858   0.00000  Uiso   1.00
C346   C     0.09326   0.64109   0.12866   0.00000  Uiso   1.00
C347   C     0.09911   0.58901   0.13503   0.00000  Uiso   1.00
C348   C     0.21517   0.51199   0.05805   0.00000  Uiso   1.00
C349   C     0.27417   0.60321   0.20455   0.00000  Uiso   1.00
C350   C     0.18007   0.99326   0.01804   0.00000  Uiso   1.00
C351   C     0.35966   0.96476   0.16517   0.00000  Uiso   1.00
C352   C     0.40199   0.99394   0.18037   0.00000  Uiso   1.00
C353   C     0.27245   0.51451   0.28233   0.00000  Uiso   1.00
C354   C     0.30361   0.99324   0.32347   0.00000  Uiso   1.00
C355   C     0.15507   0.97762   0.19822   0.00000  Uiso   1.00
C356   C     0.10500   0.96939   0.20043   0.00000  Uiso   1.00
C357   C     0.21378   0.89720   0.14592   0.00000  Uiso   1.00
C358   C     0.22336   0.55123   0.13177   0.00000  Uiso   1.00
C359   C     0.28797   0.94870   0.18448   0.00000  Uiso   1.00
C360   C     0.27221   0.55405   0.20814   0.00000  Uiso   1.00
H361   H     0.18694   0.65718   0.09846   0.00000  Uiso   1.00
H362   H     0.14635   0.86985   0.12848   0.00000  Uiso   1.00
H363   H     0.17203   0.89616   0.07713   0.00000  Uiso   1.00
H364   H     0.18822   0.84036   0.09719   0.00000  Uiso   1.00
H365   H     0.00452   0.82131   0.09829   0.00000  Uiso   1.00
H366   H     0.06183   0.84443   0.10034   0.00000  Uiso   1.00
H367   H     0.03747   0.92155   0.12379   0.00000  Uiso   1.00
H368   H     0.00545   0.90160   0.06749   0.00000  Uiso   1.00
H369   H     0.48074   0.89886   0.12622   0.00000  Uiso   1.00
H370   H     0.01934   0.74000   0.07893   0.00000  Uiso   1.00
H371   H     0.46274   0.74693   0.05057   0.00000  Uiso   1.00
H372   H     0.22520   0.63278   0.05834   0.00000  Uiso   1.00
H373   H     0.46566   0.67455   0.00482   0.00000  Uiso   1.00
H374   H     0.01406   0.71202   0.32834   0.00000  Uiso   1.00
H375   H     0.01996   0.66244   0.03603   0.00000  Uiso   1.00
H376   H     0.00104   0.77571   0.26900   0.00000  Uiso   1.00
H377   H     0.44447   0.79007   0.28043   0.00000  Uiso   1.00
H378   H     0.47149   0.86930   0.30664   0.00000  Uiso   1.00
H379   H     0.00212   0.82544   0.00893   0.00000  Uiso   1.00
H380   H     0.02766   0.85644   0.29301   0.00000  Uiso   1.00
H381   H     0.48583   0.68903   0.24632   0.00000  Uiso   1.00
H382   H     0.04040   0.66415   0.26226   0.00000  Uiso   1.00
H383   H     0.17305   0.60355   0.06833   0.00000  Uiso   1.00
H384   H     0.00890   0.58702   0.23092   0.00000  Uiso   1.00
H385   H     0.47948   0.60861   0.28105   0.00000  Uiso   1.00
H386   H     0.45472   0.61204   0.21755   0.00000  Uiso   1.00
H387   H     0.15541   0.79328   0.26285   0.00000  Uiso   1.00
H388   H     0.10372   0.81895   0.27674   0.00000  Uiso   1.00
H389   H     0.13857   0.89697   0.27516   0.00000  Uiso   1.00
H390   H     0.17311   0.86044   0.31594   0.00000  Uiso   1.00
H391   H     0.18941   0.87441   0.25450   0.00000  Uiso   1.00
H392   H     0.37455   0.64027   0.16905   0.00000  Uiso   1.00
H393   H     0.41751   0.62650   0.12881   0.00000  Uiso   1.00
H394   H     0.34052   0.85561   0.21225   0.00000  Uiso   1.00
H395   H     0.36028   0.60127   0.06240   0.00000  Uiso   1.00
H396   H     0.35007   0.57115   0.11958   0.00000  Uiso   1.00
H397   H     0.31618   0.61910   0.09856   0.00000  Uiso   1.00
H398   H     0.36451   0.81141   0.08378   0.00000  Uiso   1.00
H399   H     0.42305   0.82978   0.08661   0.00000  Uiso   1.00
H400   H     0.40163   0.91213   0.09217   0.00000  Uiso   1.00
H401   H     0.37529   0.88366   0.03726   0.00000  Uiso   1.00
H402   H     0.34291   0.89270   0.08914   0.00000  Uiso   1.00
H403   H     0.11245   0.65453   0.09804   0.00000  Uiso   1.00
H404   H     0.05739   0.64603   0.11666   0.00000  Uiso   1.00
H405   H     0.29854   0.85698   0.25621   0.00000  Uiso   1.00
H406   H     0.07624   0.57488   0.16207   0.00000  Uiso   1.00
H407   H     0.09120   0.57110   0.09872   0.00000  Uiso   1.00
H408   H     0.13398   0.58212   0.14939   0.00000  Uiso   1.00
H409   H     0.23721   0.98327   0.07057   0.00000  Uiso   1.00
H410   H     0.23537   0.54065   0.04217   0.00000  Uiso   1.00
H411   H     0.16237   0.52255   0.33231   0.00000  Uiso   1.00
H412   H     0.19600   0.97288   0.32355   0.00000  Uiso   1.00
H413   H     0.15526   0.96996   0.03501   0.00000  Uiso   1.00
H414   H     0.34704   0.97453   0.12646   0.00000  Uiso   1.00
H415   H     0.36879   0.92774   0.16699   0.00000  Uiso   1.00
H416   H     0.33767   0.90384   0.25190   0.00000  Uiso   1.00
H417   H     0.41670   0.98264   0.21763   0.00000  Uiso   1.00
H418   H     0.42683   0.98946   0.15283   0.00000  Uiso   1.00
H419   H     0.39433   0.53133   0.18222   0.00000  Uiso   1.00
H420   H     0.24954   0.98630   0.26611   0.00000  Uiso   1.00
H421   H     0.25254   0.54169   0.29795   0.00000  Uiso   1.00
H422   H     0.31985   0.52106   0.01472   0.00000  Uiso   1.00
H423   H     0.28481   0.96821   0.01254   0.00000  Uiso   1.00
H424   H     0.32994   0.97381   0.30706   0.00000  Uiso   1.00
H425   H     0.16312   0.51550   0.20244   0.00000  Uiso   1.00
H426   H     0.17240   0.95917   0.23054   0.00000  Uiso   1.00
H427   H     0.31158   0.66512   0.23575   0.00000  Uiso   1.00
H428   H     0.09625   0.93154   0.19758   0.00000  Uiso   1.00
H429   H     0.09499   0.98254   0.23630   0.00000  Uiso   1.00
H430   H     0.08641   0.98787   0.16922   0.00000  Uiso   1.00
H431   H     0.28860   0.62672   0.28027   0.00000  Uiso   1.00
H432   H     0.33721   0.61263   0.24935   0.00000  Uiso   1.00
N433   N     0.25000   0.62624   0.16667   0.00000  Uiso   1.00
N434   N     0.25000   0.87377   0.16667   0.00000  Uiso   1.00
O435   O     0.18453   0.78974   0.16667   0.00000  Uiso   1.00
O436   O     0.47160   0.69317   0.10377   0.00000  Uiso   1.00
O437   O     0.47061   0.82398   0.22002   0.00000  Uiso   1.00
O438   O     0.01912   0.66835   0.18659   0.00000  Uiso   1.00
O439   O     0.12181   0.82995   0.20435   0.00000  Uiso   1.00
O440   O     0.37969   0.68377   0.10712   0.00000  Uiso   1.00
O441   O     0.39243   0.83756   0.15284   0.00000  Uiso   1.00
O442   O     0.10888   0.66376   0.17381   0.00000  Uiso   1.00
O443   O     0.19314   0.52808   0.09796   0.00000  Uiso   1.00
O444   O     0.32766   0.97310   0.19867   0.00000  Uiso   1.00
O445   O     0.29879   0.53433   0.24668   0.00000  Uiso   1.00
O446   O     0.31547   0.71026   0.16666   0.00000  Uiso   1.00
O447   O     0.16692   0.96237   0.15151   0.00000  Uiso   1.00
O448   O     0.31547   0.78974   0.16666   0.00000  Uiso   1.00
O449   O     0.18453   0.71026   0.16667   0.00000  Uiso   1.00
O450   O     0.25000   0.78973   0.09511   0.00000  Uiso   1.00
O451   O     0.25000   0.71027   0.23822   0.00000  Uiso   1.00
O452   O     0.25000   0.78973   0.23822   0.00000  Uiso   1.00
O453   O     0.25000   0.71027   0.09511   0.00000  Uiso   1.00
O454   O     0.03468   0.83785   0.16887   0.00000  Uiso   1.00
Zn455  Zn    0.25000   0.80307   0.16667   0.00000  Uiso   1.00
Zn456  Zn    0.25000   0.69693   0.16667   0.00000  Uiso   1.00
C457   C     0.66413   0.74918   0.16977   0.00000  Uiso   1.00
C458   C     0.70942   0.94481   0.15670   0.00000  Uiso   1.00
C459   C     0.74968   0.75009   0.07291   0.00000  Uiso   1.00
C460   C     0.75032   0.74992   0.26042   0.00000  Uiso   1.00
C461   C     0.74784   0.52652   0.17049   0.00000  Uiso   1.00
C462   C     0.74839   0.97304   0.17081   0.00000  Uiso   1.00
C463   C     0.74987   0.75014   0.02175   0.00000  Uiso   1.00
C464   C     0.75010   0.74987   0.31158   0.00000  Uiso   1.00
C465   C     0.55141   0.79403   0.17682   0.00000  Uiso   1.00
C466   C     0.95093   0.72107   0.13574   0.00000  Uiso   1.00
C467   C     0.95131   0.79052   0.18742   0.00000  Uiso   1.00
C468   C     0.83543   0.75084   0.16273   0.00000  Uiso   1.00
C469   C     0.54428   0.70936   0.18242   0.00000  Uiso   1.00
C470   C     0.59699   0.79075   0.18727   0.00000  Uiso   1.00
C471   C     0.90444   0.71656   0.13649   0.00000  Uiso   1.00
C472   C     0.90717   0.79452   0.16965   0.00000  Uiso   1.00
C473   C     0.58990   0.70679   0.17603   0.00000  Uiso   1.00
C474   C     0.61666   0.74830   0.17805   0.00000  Uiso   1.00
C475   C     0.88279   0.75327   0.15688   0.00000  Uiso   1.00
C476   C     0.52402   0.75293   0.17656   0.00000  Uiso   1.00
C477   C     0.97508   0.75450   0.16757   0.00000  Uiso   1.00
C478   C     0.70132   0.62493   0.08662   0.00000  Uiso   1.00
C479   C     0.72514   0.60071   0.13040   0.00000  Uiso   1.00
C480   C     0.81708   0.87739   0.22936   0.00000  Uiso   1.00
C481   C     0.80405   0.62873   0.24437   0.00000  Uiso   1.00
C482   C     0.67811   0.87403   0.11080   0.00000  Uiso   1.00
C483   C     0.52939   0.84652   0.11713   0.00000  Uiso   1.00
C484   C     0.51217   0.89521   0.10812   0.00000  Uiso   1.00
C485   C     0.98760   0.72122   0.06542   0.00000  Uiso   1.00
C486   C     0.99737   0.69043   0.02264   0.00000  Uiso   1.00
C487   C     0.97681   0.80407   0.26806   0.00000  Uiso   1.00
C488   C     0.99570   0.84125   0.30477   0.00000  Uiso   1.00
C489   C     0.50928   0.66232   0.23630   0.00000  Uiso   1.00
C490   C     0.78490   0.89951   0.19088   0.00000  Uiso   1.00
C491   C     0.98667   0.61450   0.24177   0.00000  Uiso   1.00
C492   C     0.63398   0.82386   0.25591   0.00000  Uiso   1.00
C493   C     0.66047   0.86669   0.27651   0.00000  Uiso   1.00
C494   C     0.88318   0.63946   0.12971   0.00000  Uiso   1.00
C495   C     0.85043   0.60560   0.10080   0.00000  Uiso   1.00
C496   C     0.89006   0.83757   0.09982   0.00000  Uiso   1.00
C497   C     0.87664   0.88462   0.07858   0.00000  Uiso   1.00
C498   C     0.59326   0.64109   0.12866   0.00000  Uiso   1.00
C499   C     0.59911   0.58901   0.13503   0.00000  Uiso   1.00
C500   C     0.71517   0.51199   0.05805   0.00000  Uiso   1.00
C501   C     0.77417   0.60321   0.20455   0.00000  Uiso   1.00
C502   C     0.68007   0.99326   0.01804   0.00000  Uiso   1.00
C503   C     0.85966   0.96476   0.16517   0.00000  Uiso   1.00
C504   C     0.90199   0.99394   0.18037   0.00000  Uiso   1.00
C505   C     0.77245   0.51451   0.28233   0.00000  Uiso   1.00
C506   C     0.80361   0.99324   0.32347   0.00000  Uiso   1.00
C507   C     0.65507   0.97762   0.19822   0.00000  Uiso   1.00
C508   C     0.60500   0.96939   0.20043   0.00000  Uiso   1.00
C509   C     0.71378   0.89720   0.14592   0.00000  Uiso   1.00
C510   C     0.72336   0.55123   0.13177   0.00000  Uiso   1.00
C511   C     0.78797   0.94870   0.18448   0.00000  Uiso   1.00
C512   C     0.77221   0.55405   0.20814   0.00000  Uiso   1.00
H513   H     0.68694   0.65718   0.09846   0.00000  Uiso   1.00
H514   H     0.64635   0.86985   0.12848   0.00000  Uiso   1.00
H515   H     0.67203   0.89616   0.07713   0.00000  Uiso   1.00
H516   H     0.68822   0.84036   0.09719   0.00000  Uiso   1.00
H517   H     0.50452   0.82131   0.09829   0.00000  Uiso   1.00
H518   H     0.56183   0.84443   0.10034   0.00000  Uiso   1.00
H519   H     0.53747   0.92155   0.12379   0.00000  Uiso   1.00
H520   H     0.50545   0.90160   0.06749   0.00000  Uiso   1.00
H521   H     0.98074   0.89886   0.12622   0.00000  Uiso   1.00
H522   H     0.51934   0.74000   0.07893   0.00000  Uiso   1.00
H523   H     0.96274   0.74693   0.05057   0.00000  Uiso   1.00
H524   H     0.72520   0.63278   0.05834   0.00000  Uiso   1.00
H525   H     0.96566   0.67455   0.00482   0.00000  Uiso   1.00
H526   H     0.51406   0.71202   0.32834   0.00000  Uiso   1.00
H527   H     0.51996   0.66244   0.03603   0.00000  Uiso   1.00
H528   H     0.50104   0.77571   0.26900   0.00000  Uiso   1.00
H529   H     0.94447   0.79007   0.28043   0.00000  Uiso   1.00
H530   H     0.97149   0.86930   0.30664   0.00000  Uiso   1.00
H531   H     0.50212   0.82544   0.00893   0.00000  Uiso   1.00
H532   H     0.52766   0.85644   0.29301   0.00000  Uiso   1.00
H533   H     0.98583   0.68903   0.24632   0.00000  Uiso   1.00
H534   H     0.54040   0.66415   0.26226   0.00000  Uiso   1.00
H535   H     0.67305   0.60355   0.06833   0.00000  Uiso   1.00
H536   H     0.50890   0.58702   0.23092   0.00000  Uiso   1.00
H537   H     0.97948   0.60861   0.28105   0.00000  Uiso   1.00
H538   H     0.95472   0.61204   0.21755   0.00000  Uiso   1.00
H539   H     0.65541   0.79328   0.26285   0.00000  Uiso   1.00
H540   H     0.60372   0.81895   0.27674   0.00000  Uiso   1.00
H541   H     0.63857   0.89697   0.27516   0.00000  Uiso   1.00
H542   H     0.67311   0.86044   0.31594   0.00000  Uiso   1.00
H543   H     0.68941   0.87441   0.25450   0.00000  Uiso   1.00
H544   H     0.87455   0.64027   0.16905   0.00000  Uiso   1.00
H545   H     0.91751   0.62650   0.12881   0.00000  Uiso   1.00
H546   H     0.84052   0.85561   0.21225   0.00000  Uiso   1.00
H547   H     0.86028   0.60127   0.06240   0.00000  Uiso   1.00
H548   H     0.85007   0.57115   0.11958   0.00000  Uiso   1.00
H549   H     0.81618   0.61910   0.09856   0.00000  Uiso   1.00
H550   H     0.86451   0.81141   0.08378   0.00000  Uiso   1.00
H551   H     0.92305   0.82978   0.08661   0.00000  Uiso   1.00
H552   H     0.90163   0.91213   0.09217   0.00000  Uiso   1.00
H553   H     0.87529   0.88366   0.03726   0.00000  Uiso   1.00
H554   H     0.84291   0.89270   0.08914   0.00000  Uiso   1.00
H555   H     0.61245   0.65453   0.09804   0.00000  Uiso   1.00
H556   H     0.55739   0.64603   0.11666   0.00000  Uiso   1.00
H557   H     0.79854   0.85698   0.25621   0.00000  Uiso   1.00
H558   H     0.57624   0.57488   0.16207   0.00000  Uiso   1.00
H559   H     0.59120   0.57110   0.09872   0.00000  Uiso   1.00
H560   H     0.63398   0.58212   0.14939   0.00000  Uiso   1.00
H561   H     0.73721   0.98327   0.07057   0.00000  Uiso   1.00
H562   H     0.73537   0.54065   0.04217   0.00000  Uiso   1.00
H563   H     0.66237   0.52255   0.33231   0.00000  Uiso   1.00
H564   H     0.69600   0.97288   0.32355   0.00000  Uiso   1.00
H565   H     0.65526   0.96996   0.03501   0.00000  Uiso   1.00
H566   H     0.84704   0.97453   0.12646   0.00000  Uiso   1.00
H567   H     0.86879   0.92774   0.16699   0.00000  Uiso   1.00
H568   H     0.83767   0.90384   0.25190   0.00000  Uiso   1.00
H569   H     0.91670   0.98264   0.21763   0.00000  Uiso   1.00
H570   H     0.92683   0.98946   0.15283   0.00000  Uiso   1.00
H571   H     0.89433   0.53133   0.18222   0.00000  Uiso   1.00
H572   H     0.74954   0.98630   0.26611   0.00000  Uiso   1.00
H573   H     0.75254   0.54169   0.29795   0.00000  Uiso   1.00
H574   H     0.81985   0.52106   0.01472   0.00000  Uiso   1.00
H575   H     0.78481   0.96821   0.01254   0.00000  Uiso   1.00
H576   H     0.82994   0.97381   0.30706   0.00000  Uiso   1.00
H577   H     0.66312   0.51550   0.20244   0.00000  Uiso   1.00
H578   H     0.67240   0.95917   0.23054   0.00000  Uiso   1.00
H579   H     0.81158   0.66512   0.23575   0.00000  Uiso   1.00
H580   H     0.59625   0.93154   0.19758   0.00000  Uiso   1.00
H581   H     0.59499   0.98254   0.23630   0.00000  Uiso   1.00
H582   H     0.58641   0.98787   0.16922   0.00000  Uiso   1.00
H583   H     0.78860   0.62672   0.28027   0.00000  Uiso   1.00
H584   H     0.83721   0.61263   0.24935   0.00000  Uiso   1.00
N585   N     0.75000   0.62624   0.16667   0.00000  Uiso   1.00
N586   N     0.75000   0.87377   0.16667   0.00000  Uiso   1.00
O587   O     0.68453   0.78974   0.16667   0.00000  Uiso   1.00
O588   O     0.97160   0.69317   0.10377   0.00000  Uiso   1.00
O589   O     0.97061   0.82398   0.22002   0.00000  Uiso   1.00
O590   O     0.51912   0.66835   0.18659   0.00000  Uiso   1.00
O591   O     0.62181   0.82995   0.20435   0.00000  Uiso   1.00
O592   O     0.87969   0.68377   0.10712   0.00000  Uiso   1.00
O593   O     0.89243   0.83756   0.15284   0.00000  Uiso   1.00
O594   O     0.60888   0.66376   0.17381   0.00000  Uiso   1.00
O595   O     0.69314   0.52808   0.09796   0.00000  Uiso   1.00
O596   O     0.82766   0.97310   0.19867   0.00000  Uiso   1.00
O597   O     0.79879   0.53433   0.24668   0.00000  Uiso   1.00
O598   O     0.81547   0.71026   0.16666   0.00000  Uiso   1.00
O599   O     0.66692   0.96237   0.15151   0.00000  Uiso   1.00
O600   O     0.81547   0.78974   0.16666   0.00000  Uiso   1.00
O601   O     0.68453   0.71026   0.16667   0.00000  Uiso   1.00
O602   O     0.75000   0.78973   0.09511   0.00000  Uiso   1.00
O603   O     0.75000   0.71027   0.23822   0.00000  Uiso   1.00
O604   O     0.75000   0.78973   0.23822   0.00000  Uiso   1.00
O605   O     0.75000   0.71027   0.09511   0.00000  Uiso   1.00
O606   O     0.53468   0.83785   0.16887   0.00000  Uiso   1.00
Zn607  Zn    0.75000   0.80307   0.16667   0.00000  Uiso   1.00
Zn608  Zn    0.75000   0.69693   0.16667   0.00000  Uiso   1.00
C609   C     0.16413   0.24918   0.50310   0.00000  Uiso   1.00
C610   C     0.20942   0.44481   0.49004   0.00000  Uiso   1.00
C611   C     0.24968   0.25009   0.40624   0.00000  Uiso   1.00
C612   C     0.25032   0.24992   0.59375   0.00000  Uiso   1.00
C613   C     0.24784   0.02652   0.50382   0.00000  Uiso   1.00
C614   C     0.24839   0.47304   0.50415   0.00000  Uiso   1.00
C615   C     0.24987   0.25014   0.35508   0.00000  Uiso   1.00
C616   C     0.25010   0.24987   0.64491   0.00000  Uiso   1.00
C617   C     0.05141   0.29403   0.51016   0.00000  Uiso   1.00
C618   C     0.45093   0.22107   0.46908   0.00000  Uiso   1.00
C619   C     0.45131   0.29052   0.52075   0.00000  Uiso   1.00
C620   C     0.33543   0.25084   0.49606   0.00000  Uiso   1.00
C621   C     0.04428   0.20936   0.51576   0.00000  Uiso   1.00
C622   C     0.09699   0.29075   0.52061   0.00000  Uiso   1.00
C623   C     0.40444   0.21656   0.46982   0.00000  Uiso   1.00
C624   C     0.40717   0.29452   0.50299   0.00000  Uiso   1.00
C625   C     0.08990   0.20679   0.50937   0.00000  Uiso   1.00
C626   C     0.11666   0.24830   0.51139   0.00000  Uiso   1.00
C627   C     0.38279   0.25327   0.49021   0.00000  Uiso   1.00
C628   C     0.02402   0.25293   0.50989   0.00000  Uiso   1.00
C629   C     0.47508   0.25450   0.50090   0.00000  Uiso   1.00
C630   C     0.20132   0.12493   0.41995   0.00000  Uiso   1.00
C631   C     0.22514   0.10071   0.46373   0.00000  Uiso   1.00
C632   C     0.31708   0.37739   0.56269   0.00000  Uiso   1.00
C633   C     0.30405   0.12873   0.57770   0.00000  Uiso   1.00
C634   C     0.17811   0.37403   0.44414   0.00000  Uiso   1.00
C635   C     0.02939   0.34652   0.45046   0.00000  Uiso   1.00
C636   C     0.01217   0.39521   0.44145   0.00000  Uiso   1.00
C637   C     0.48760   0.22122   0.39875   0.00000  Uiso   1.00
C638   C     0.49737   0.19043   0.35597   0.00000  Uiso   1.00
C639   C     0.47681   0.30407   0.60139   0.00000  Uiso   1.00
C640   C     0.49570   0.34125   0.63810   0.00000  Uiso   1.00
C641   C     0.00928   0.16232   0.56963   0.00000  Uiso   1.00
C642   C     0.28490   0.39951   0.52422   0.00000  Uiso   1.00
C643   C     0.48667   0.11450   0.57510   0.00000  Uiso   1.00
C644   C     0.13398   0.32386   0.58924   0.00000  Uiso   1.00
C645   C     0.16047   0.36669   0.60985   0.00000  Uiso   1.00
C646   C     0.38318   0.13946   0.46305   0.00000  Uiso   1.00
C647   C     0.35043   0.10560   0.43413   0.00000  Uiso   1.00
C648   C     0.39006   0.33757   0.43315   0.00000  Uiso   1.00
C649   C     0.37664   0.38462   0.41192   0.00000  Uiso   1.00
C650   C     0.09326   0.14109   0.46199   0.00000  Uiso   1.00
C651   C     0.09911   0.08901   0.46836   0.00000  Uiso   1.00
C652   C     0.21517   0.01199   0.39139   0.00000  Uiso   1.00
C653   C     0.27417   0.10321   0.53789   0.00000  Uiso   1.00
C654   C     0.18007   0.49326   0.35137   0.00000  Uiso   1.00
C655   C     0.35966   0.46476   0.49850   0.00000  Uiso   1.00
C656   C     0.40199   0.49394   0.51370   0.00000  Uiso   1.00
C657   C     0.27245   0.01451   0.61566   0.00000  Uiso   1.00
C658   C     0.30361   0.49324   0.65681   0.00000  Uiso   1.00
C659   C     0.15507   0.47762   0.53156   0.00000  Uiso   1.00
C660   C     0.10500   0.46939   0.53376   0.00000  Uiso   1.00
C661   C     0.21378   0.39720   0.47925   0.00000  Uiso   1.00
C662   C     0.22336   0.05123   0.46510   0.00000  Uiso   1.00
C663   C     0.28797   0.44870   0.51781   0.00000  Uiso   1.00
C664   C     0.27221   0.05405   0.54147   0.00000  Uiso   1.00
H665   H     0.18694   0.15718   0.43179   0.00000  Uiso   1.00
H666   H     0.14635   0.36985   0.46181   0.00000  Uiso   1.00
H667   H     0.17203   0.39616   0.41047   0.00000  Uiso   1.00
H668   H     0.18822   0.34036   0.43052   0.00000  Uiso   1.00
H669   H     0.00452   0.32131   0.43162   0.00000  Uiso   1.00
H670   H     0.06183   0.34443   0.43368   0.00000  Uiso   1.00
H671   H     0.03747   0.42155   0.45712   0.00000  Uiso   1.00
H672   H     0.00545   0.40160   0.40083   0.00000  Uiso   1.00
H673   H     0.48074   0.39886   0.45956   0.00000  Uiso   1.00
H674   H     0.01934   0.24000   0.41227   0.00000  Uiso   1.00
H675   H     0.46274   0.24693   0.38390   0.00000  Uiso   1.00
H676   H     0.22520   0.13278   0.39167   0.00000  Uiso   1.00
H677   H     0.46566   0.17455   0.33815   0.00000  Uiso   1.00
H678   H     0.01406   0.21202   0.66167   0.00000  Uiso   1.00
H679   H     0.01996   0.16244   0.36937   0.00000  Uiso   1.00
H680   H     0.00104   0.27571   0.60233   0.00000  Uiso   1.00
H681   H     0.44447   0.29007   0.61376   0.00000  Uiso   1.00
H682   H     0.47149   0.36930   0.63997   0.00000  Uiso   1.00
H683   H     0.00212   0.32544   0.34227   0.00000  Uiso   1.00
H684   H     0.02766   0.35644   0.62635   0.00000  Uiso   1.00
H685   H     0.48583   0.18903   0.57965   0.00000  Uiso   1.00
H686   H     0.04040   0.16415   0.59560   0.00000  Uiso   1.00
H687   H     0.17305   0.10355   0.40166   0.00000  Uiso   1.00
H688   H     0.00890   0.08702   0.56426   0.00000  Uiso   1.00
H689   H     0.47948   0.10861   0.61438   0.00000  Uiso   1.00
H690   H     0.45472   0.11204   0.55088   0.00000  Uiso   1.00
H691   H     0.15541   0.29328   0.59619   0.00000  Uiso   1.00
H692   H     0.10372   0.31895   0.61008   0.00000  Uiso   1.00
H693   H     0.13857   0.39697   0.60849   0.00000  Uiso   1.00
H694   H     0.17311   0.36044   0.64927   0.00000  Uiso   1.00
H695   H     0.18941   0.37441   0.58784   0.00000  Uiso   1.00
H696   H     0.37455   0.14027   0.50239   0.00000  Uiso   1.00
H697   H     0.41751   0.12650   0.46214   0.00000  Uiso   1.00
H698   H     0.34052   0.35561   0.54559   0.00000  Uiso   1.00
H699   H     0.36028   0.10127   0.39574   0.00000  Uiso   1.00
H700   H     0.35007   0.07115   0.45292   0.00000  Uiso   1.00
H701   H     0.31618   0.11910   0.43189   0.00000  Uiso   1.00
H702   H     0.36451   0.31141   0.41711   0.00000  Uiso   1.00
H703   H     0.42305   0.32978   0.41994   0.00000  Uiso   1.00
H704   H     0.40163   0.41213   0.42550   0.00000  Uiso   1.00
H705   H     0.37529   0.38366   0.37060   0.00000  Uiso   1.00
H706   H     0.34291   0.39270   0.42248   0.00000  Uiso   1.00
H707   H     0.11245   0.15453   0.43138   0.00000  Uiso   1.00
H708   H     0.05739   0.14603   0.44999   0.00000  Uiso   1.00
H709   H     0.29854   0.35698   0.58954   0.00000  Uiso   1.00
H710   H     0.07624   0.07488   0.49540   0.00000  Uiso   1.00
H711   H     0.09120   0.07110   0.43206   0.00000  Uiso   1.00
H712   H     0.13398   0.08212   0.48272   0.00000  Uiso   1.00
H713   H     0.23721   0.48327   0.40390   0.00000  Uiso   1.00
H714   H     0.23537   0.04065   0.37550   0.00000  Uiso   1.00
H715   H     0.16237   0.02255   0.66565   0.00000  Uiso   1.00
H716   H     0.19600   0.47288   0.65688   0.00000  Uiso   1.00
H717   H     0.15526   0.46996   0.36834   0.00000  Uiso   1.00
H718   H     0.34704   0.47453   0.45979   0.00000  Uiso   1.00
H719   H     0.36879   0.42774   0.50032   0.00000  Uiso   1.00
H720   H     0.33767   0.40384   0.58524   0.00000  Uiso   1.00
H721   H     0.41670   0.48264   0.55096   0.00000  Uiso   1.00
H722   H     0.42683   0.48946   0.48616   0.00000  Uiso   1.00
H723   H     0.39433   0.03133   0.51556   0.00000  Uiso   1.00
H724   H     0.24954   0.48630   0.59945   0.00000  Uiso   1.00
H725   H     0.25254   0.04169   0.63129   0.00000  Uiso   1.00
H726   H     0.31985   0.02106   0.34805   0.00000  Uiso   1.00
H727   H     0.28481   0.46821   0.34588   0.00000  Uiso   1.00
H728   H     0.32994   0.47381   0.64040   0.00000  Uiso   1.00
H729   H     0.16312   0.01550   0.53577   0.00000  Uiso   1.00
H730   H     0.17240   0.45917   0.56388   0.00000  Uiso   1.00
H731   H     0.31158   0.16512   0.56909   0.00000  Uiso   1.00
H732   H     0.09625   0.43154   0.53092   0.00000  Uiso   1.00
H733   H     0.09499   0.48254   0.56963   0.00000  Uiso   1.00
H734   H     0.08641   0.48787   0.50255   0.00000  Uiso   1.00
H735   H     0.28860   0.12672   0.61361   0.00000  Uiso   1.00
H736   H     0.33721   0.11263   0.58268   0.00000  Uiso   1.00
N737   N     0.25000   0.12624   0.50000   0.00000  Uiso   1.00
N738   N     0.25000   0.37377   0.50000   0.00000  Uiso   1.00
O739   O     0.18453   0.28974   0.50000   0.00000  Uiso   1.00
O740   O     0.47160   0.19317   0.43710   0.00000  Uiso   1.00
O741   O     0.47061   0.32398   0.55335   0.00000  Uiso   1.00
O742   O     0.01912   0.16835   0.51992   0.00000  Uiso   1.00
O743   O     0.12181   0.32995   0.53768   0.00000  Uiso   1.00
O744   O     0.37969   0.18377   0.44045   0.00000  Uiso   1.00
O745   O     0.39243   0.33756   0.48618   0.00000  Uiso   1.00
O746   O     0.10888   0.16376   0.50715   0.00000  Uiso   1.00
O747   O     0.19314   0.02808   0.43130   0.00000  Uiso   1.00
O748   O     0.32766   0.47310   0.53201   0.00000  Uiso   1.00
O749   O     0.29879   0.03433   0.58001   0.00000  Uiso   1.00
O750   O     0.31547   0.21026   0.50000   0.00000  Uiso   1.00
O751   O     0.16692   0.46237   0.48485   0.00000  Uiso   1.00
O752   O     0.31547   0.28974   0.50000   0.00000  Uiso   1.00
O753   O     0.18453   0.21026   0.50000   0.00000  Uiso   1.00
O754   O     0.25000   0.28973   0.42845   0.00000  Uiso   1.00
O755   O     0.25000   0.21027   0.57155   0.00000  Uiso   1.00
O756   O     0.25000   0.28973   0.57155   0.00000  Uiso   1.00
O757   O     0.25000   0.21027   0.42845   0.00000  Uiso   1.00
O758   O     0.03468   0.33785   0.50220   0.00000  Uiso   1.00
Zn759  Zn    0.25000   0.30307   0.50000   0.00000  Uiso   1.00
Zn760  Zn    0.25000   0.19693   0.50000   0.00000  Uiso   1.00
C761   C     0.66413   0.24918   0.50310   0.00000  Uiso   1.00
C762   C     0.70942   0.44481   0.49004   0.00000  Uiso   1.00
C763   C     0.74968   0.25009   0.40624   0.00000  Uiso   1.00
C764   C     0.75032   0.24992   0.59375   0.00000  Uiso   1.00
C765   C     0.74784   0.02652   0.50382   0.00000  Uiso   1.00
C766   C     0.74839   0.47304   0.50415   0.00000  Uiso   1.00
C767   C     0.74987   0.25014   0.35508   0.00000  Uiso   1.00
C768   C     0.75010   0.24987   0.64491   0.00000  Uiso   1.00
C769   C     0.55141   0.29403   0.51016   0.00000  Uiso   1.00
C770   C     0.95093   0.22107   0.46908   0.00000  Uiso   1.00
C771   C     0.95131   0.29052   0.52075   0.00000  Uiso   1.00
C772   C     0.83543   0.25084   0.49606   0.00000  Uiso   1.00
C773   C     0.54428   0.20936   0.51576   0.00000  Uiso   1.00
C774   C     0.59699   0.29075   0.52061   0.00000  Uiso   1.00
C775   C     0.90444   0.21656   0.46982   0.00000  Uiso   1.00
C776   C     0.90717   0.29452   0.50299   0.00000  Uiso   1.00
C777   C     0.58990   0.20679   0.50937   0.00000  Uiso   1.00
C778   C     0.61666   0.24830   0.51139   0.00000  Uiso   1.00
C779   C     0.88279   0.25327   0.49021   0.00000  Uiso   1.00
C780   C     0.52402   0.25293   0.50989   0.00000  Uiso   1.00
C781   C     0.97508   0.25450   0.50090   0.00000  Uiso   1.00
C782   C     0.70132   0.12493   0.41995   0.00000  Uiso   1.00
C783   C     0.72514   0.10071   0.46373   0.00000  Uiso   1.00
C784   C     0.81708   0.37739   0.56269   0.00000  Uiso   1.00
C785   C     0.80405   0.12873   0.57770   0.00000  Uiso   1.00
C786   C     0.67811   0.37403   0.44414   0.00000  Uiso   1.00
C787   C     0.52939   0.34652   0.45046   0.00000  Uiso   1.00
C788   C     0.51217   0.39521   0.44145   0.00000  Uiso   1.00
C789   C     0.98760   0.22122   0.39875   0.00000  Uiso   1.00
C790   C     0.99737   0.19043   0.35597   0.00000  Uiso   1.00
C791   C     0.97681   0.30407   0.60139   0.00000  Uiso   1.00
C792   C     0.99570   0.34125   0.63810   0.00000  Uiso   1.00
C793   C     0.50928   0.16232   0.56963   0.00000  Uiso   1.00
C794   C     0.78490   0.39951   0.52422   0.00000  Uiso   1.00
C795   C     0.98667   0.11450   0.57510   0.00000  Uiso   1.00
C796   C     0.63398   0.32386   0.58924   0.00000  Uiso   1.00
C797   C     0.66047   0.36669   0.60985   0.00000  Uiso   1.00
C798   C     0.88318   0.13946   0.46305   0.00000  Uiso   1.00
C799   C     0.85043   0.10560   0.43413   0.00000  Uiso   1.00
C800   C     0.89006   0.33757   0.43315   0.00000  Uiso   1.00
C801   C     0.87664   0.38462   0.41192   0.00000  Uiso   1.00
C802   C     0.59326   0.14109   0.46199   0.00000  Uiso   1.00
C803   C     0.59911   0.08901   0.46836   0.00000  Uiso   1.00
C804   C     0.71517   0.01199   0.39139   0.00000  Uiso   1.00
C805   C     0.77417   0.10321   0.53789   0.00000  Uiso   1.00
C806   C     0.68007   0.49326   0.35137   0.00000  Uiso   1.00
C807   C     0.85966   0.46476   0.49850   0.00000  Uiso   1.00
C808   C     0.90199   0.49394   0.51370   0.00000  Uiso   1.00
C809   C     0.77245   0.01451   0.61566   0.00000  Uiso   1.00
C810   C     0.80361   0.49324   0.65681   0.00000  Uiso   1.00
C811   C     0.65507   0.47762   0.53156   0.00000  Uiso   1.00
C812   C     0.60500   0.46939   0.53376   0.00000  Uiso   1.00
C813   C     0.71378   0.39720   0.47925   0.00000  Uiso   1.00
C814   C     0.72336   0.05123   0.46510   0.00000  Uiso   1.00
C815   C     0.78797   0.44870   0.51781   0.00000  Uiso   1.00
C816   C     0.77221   0.05405   0.54147   0.00000  Uiso   1.00
H817   H     0.68694   0.15718   0.43179   0.00000  Uiso   1.00
H818   H     0.64635   0.36985   0.46181   0.00000  Uiso   1.00
H819   H     0.67203   0.39616   0.41047   0.00000  Uiso   1.00
H820   H     0.68822   0.34036   0.43052   0.00000  Uiso   1.00
H821   H     0.50452   0.32131   0.43162   0.00000  Uiso   1.00
H822   H     0.56183   0.34443   0.43368   0.00000  Uiso   1.00
H823   H     0.53747   0.42155   0.45712   0.00000  Uiso   1.00
H824   H     0.50545   0.40160   0.40083   0.00000  Uiso   1.00
H825   H     0.98074   0.39886   0.45956   0.00000  Uiso   1.00
H826   H     0.51934   0.24000   0.41227   0.00000  Uiso   1.00
H827   H     0.96274   0.24693   0.38390   0.00000  Uiso   1.00
H828   H     0.72520   0.13278   0.39167   0.00000  Uiso   1.00
H829   H     0.96566   0.17455   0.33815   0.00000  Uiso   1.00
H830   H     0.51406   0.21202   0.66167   0.00000  Uiso   1.00
H831   H     0.51996   0.16244   0.36937   0.00000  Uiso   1.00
H832   H     0.50104   0.27571   0.60233   0.00000  Uiso   1.00
H833   H     0.94447   0.29007   0.61376   0.00000  Uiso   1.00
H834   H     0.97149   0.36930   0.63997   0.00000  Uiso   1.00
H835   H     0.50212   0.32544   0.34227   0.00000  Uiso   1.00
H836   H     0.52766   0.35644   0.62635   0.00000  Uiso   1.00
H837   H     0.98583   0.18903   0.57965   0.00000  Uiso   1.00
H838   H     0.54040   0.16415   0.59560   0.00000  Uiso   1.00
H839   H     0.67305   0.10355   0.40166   0.00000  Uiso   1.00
H840   H     0.50890   0.08702   0.56426   0.00000  Uiso   1.00
H841   H     0.97948   0.10861   0.61438   0.00000  Uiso   1.00
H842   H     0.95472   0.11204   0.55088   0.00000  Uiso   1.00
H843   H     0.65541   0.29328   0.59619   0.00000  Uiso   1.00
H844   H     0.60372   0.31895   0.61008   0.00000  Uiso   1.00
H845   H     0.63857   0.39697   0.60849   0.00000  Uiso   1.00
H846   H     0.67311   0.36044   0.64927   0.00000  Uiso   1.00
H847   H     0.68941   0.37441   0.58784   0.00000  Uiso   1.00
H848   H     0.87455   0.14027   0.50239   0.00000  Uiso   1.00
H849   H     0.91751   0.12650   0.46214   0.00000  Uiso   1.00
H850   H     0.84052   0.35561   0.54559   0.00000  Uiso   1.00
H851   H     0.86028   0.10127   0.39574   0.00000  Uiso   1.00
H852   H     0.85007   0.07115   0.45292   0.00000  Uiso   1.00
H853   H     0.81618   0.11910   0.43189   0.00000  Uiso   1.00
H854   H     0.86451   0.31141   0.41711   0.00000  Uiso   1.00
H855   H     0.92305   0.32978   0.41994   0.00000  Uiso   1.00
H856   H     0.90163   0.41213   0.42550   0.00000  Uiso   1.00
H857   H     0.87529   0.38366   0.37060   0.00000  Uiso   1.00
H858   H     0.84291   0.39270   0.42248   0.00000  Uiso   1.00
H859   H     0.61245   0.15453   0.43138   0.00000  Uiso   1.00
H860   H     0.55739   0.14603   0.44999   0.00000  Uiso   1.00
H861   H     0.79854   0.35698   0.58954   0.00000  Uiso   1.00
H862   H     0.57624   0.07488   0.49540   0.00000  Uiso   1.00
H863   H     0.59120   0.07110   0.43206   0.00000  Uiso   1.00
H864   H     0.63398   0.08212   0.48272   0.00000  Uiso   1.00
H865   H     0.73721   0.48327   0.40390   0.00000  Uiso   1.00
H866   H     0.73537   0.04065   0.37550   0.00000  Uiso   1.00
H867   H     0.66237   0.02255   0.66565   0.00000  Uiso   1.00
H868   H     0.69600   0.47288   0.65688   0.00000  Uiso   1.00
H869   H     0.65526   0.46996   0.36834   0.00000  Uiso   1.00
H870   H     0.84704   0.47453   0.45979   0.00000  Uiso   1.00
H871   H     0.86879   0.42774   0.50032   0.00000  Uiso   1.00
H872   H     0.83767   0.40384   0.58524   0.00000  Uiso   1.00
H873   H     0.91670   0.48264   0.55096   0.00000  Uiso   1.00
H874   H     0.92683   0.48946   0.48616   0.00000  Uiso   1.00
H875   H     0.89433   0.03133   0.51556   0.00000  Uiso   1.00
H876   H     0.74954   0.48630   0.59945   0.00000  Uiso   1.00
H877   H     0.75254   0.04169   0.63129   0.00000  Uiso   1.00
H878   H     0.81985   0.02106   0.34805   0.00000  Uiso   1.00
H879   H     0.78481   0.46821   0.34588   0.00000  Uiso   1.00
H880   H     0.82994   0.47381   0.64040   0.00000  Uiso   1.00
H881   H     0.66312   0.01550   0.53577   0.00000  Uiso   1.00
H882   H     0.67240   0.45917   0.56388   0.00000  Uiso   1.00
H883   H     0.81158   0.16512   0.56909   0.00000  Uiso   1.00
H884   H     0.59625   0.43154   0.53092   0.00000  Uiso   1.00
H885   H     0.59499   0.48254   0.56963   0.00000  Uiso   1.00
H886   H     0.58641   0.48787   0.50255   0.00000  Uiso   1.00
H887   H     0.78860   0.12672   0.61361   0.00000  Uiso   1.00
H888   H     0.83721   0.11263   0.58268   0.00000  Uiso   1.00
N889   N     0.75000   0.12624   0.50000   0.00000  Uiso   1.00
N890   N     0.75000   0.37377   0.50000   0.00000  Uiso   1.00
O891   O     0.68453   0.28974   0.50000   0.00000  Uiso   1.00
O892   O     0.97160   0.19317   0.43710   0.00000  Uiso   1.00
O893   O     0.97061   0.32398   0.55335   0.00000  Uiso   1.00
O894   O     0.51912   0.16835   0.51992   0.00000  Uiso   1.00
O895   O     0.62181   0.32995   0.53768   0.00000  Uiso   1.00
O896   O     0.87969   0.18377   0.44045   0.00000  Uiso   1.00
O897   O     0.89243   0.33756   0.48618   0.00000  Uiso   1.00
O898   O     0.60888   0.16376   0.50715   0.00000  Uiso   1.00
O899   O     0.69314   0.02808   0.43130   0.00000  Uiso   1.00
O900   O     0.82766   0.47310   0.53201   0.00000  Uiso   1.00
O901   O     0.79879   0.03433   0.58001   0.00000  Uiso   1.00
O902   O     0.81547   0.21026   0.50000   0.00000  Uiso   1.00
O903   O     0.66692   0.46237   0.48485   0.00000  Uiso   1.00
O904   O     0.81547   0.28974   0.50000   0.00000  Uiso   1.00
O905   O     0.68453   0.21026   0.50000   0.00000  Uiso   1.00
O906   O     0.75000   0.28973   0.42845   0.00000  Uiso   1.00
O907   O     0.75000   0.21027   0.57155   0.00000  Uiso   1.00
O908   O     0.75000   0.28973   0.57155   0.00000  Uiso   1.00
O909   O     0.75000   0.21027   0.42845   0.00000  Uiso   1.00
O910   O     0.53468   0.33785   0.50220   0.00000  Uiso   1.00
Zn911  Zn    0.75000   0.30307   0.50000   0.00000  Uiso   1.00
Zn912  Zn    0.75000   0.19693   0.50000   0.00000  Uiso   1.00
C913   C     0.16413   0.74918   0.50310   0.00000  Uiso   1.00
C914   C     0.20942   0.94481   0.49004   0.00000  Uiso   1.00
C915   C     0.24968   0.75009   0.40624   0.00000  Uiso   1.00
C916   C     0.25032   0.74992   0.59375   0.00000  Uiso   1.00
C917   C     0.24784   0.52652   0.50382   0.00000  Uiso   1.00
C918   C     0.24839   0.97304   0.50415   0.00000  Uiso   1.00
C919   C     0.24987   0.75014   0.35508   0.00000  Uiso   1.00
C920   C     0.25010   0.74987   0.64491   0.00000  Uiso   1.00
C921   C     0.05141   0.79403   0.51016   0.00000  Uiso   1.00
C922   C     0.45093   0.72107   0.46908   0.00000  Uiso   1.00
C923   C     0.45131   0.79052   0.52075   0.00000  Uiso   1.00
C924   C     0.33543   0.75084   0.49606   0.00000  Uiso   1.00
C925   C     0.04428   0.70936   0.51576   0.00000  Uiso   1.00
C926   C     0.09699   0.79075   0.52061   0.00000  Uiso   1.00
C927   C     0.40444   0.71656   0.46982   0.00000  Uiso   1.00
C928   C     0.40717   0.79452   0.50299   0.00000  Uiso   1.00
C929   C     0.08990   0.70679   0.50937   0.00000  Uiso   1.00
C930   C     0.11666   0.74830   0.51139   0.00000  Uiso   1.00
C931   C     0.38279   0.75327   0.49021   0.00000  Uiso   1.00
C932   C     0.02402   0.75293   0.50989   0.00000  Uiso   1.00
C933   C     0.47508   0.75450   0.50090   0.00000  Uiso   1.00
C934   C     0.20132   0.62493   0.41995   0.00000  Uiso   1.00
C935   C     0.22514   0.60071   0.46373   0.00000  Uiso   1.00
C936   C     0.31708   0.87739   0.56269   0.00000  Uiso   1.00
C937   C     0.30405   0.62873   0.57770   0.00000  Uiso   1.00
C938   C     0.17811   0.87403   0.44414   0.00000  Uiso   1.00
C939   C     0.02939   0.84652   0.45046   0.00000  Uiso   1.00
C940   C     0.01217   0.89521   0.44145   0.00000  Uiso   1.00
C941   C     0.48760   0.72122   0.39875   0.00000  Uiso   1.00
C942   C     0.49737   0.69043   0.35597   0.00000  Uiso   1.00
C943   C     0.47681   0.80407   0.60139   0.00000  Uiso   1.00
C944   C     0.49570   0.84125   0.63810   0.00000  Uiso   1.00
C945   C     0.00928   0.66232   0.56963   0.00000  Uiso   1.00
C946   C     0.28490   0.89951   0.52422   0.00000  Uiso   1.00
C947   C     0.48667   0.61450   0.57510   0.00000  Uiso   1.00
C948   C     0.13398   0.82386   0.58924   0.00000  Uiso   1.00
C949   C     0.16047   0.86669   0.60985   0.00000  Uiso   1.00
C950   C     0.38318   0.63946   0.46305   0.00000  Uiso   1.00
C951   C     0.35043   0.60560   0.43413   0.00000  Uiso   1.00
C952   C     0.39006   0.83757   0.43315   0.00000  Uiso   1.00
C953   C     0.37664   0.88462   0.41192   0.00000  Uiso   1.00
C954   C     0.09326   0.64109   0.46199   0.00000  Uiso   1.00
C955   C     0.09911   0.58901   0.46836   0.00000  Uiso   1.00
C956   C     0.21517   0.51199   0.39139   0.00000  Uiso   1.00
C957   C     0.27417   0.60321   0.53789   0.00000  Uiso   1.00
C958   C     0.18007   0.99326   0.35137   0.00000  Uiso   1.00
C959   C     0.35966   0.96476   0.49850   0.00000  Uiso   1.00
C960   C     0.40199   0.99394   0.51370   0.00000  Uiso   1.00
C961   C     0.27245   0.51451   0.61566   0.00000  Uiso   1.00
C962   C     0.30361   0.99324   0.65681   0.00000  Uiso   1.00
C963   C     0.15507   0.97762   0.53156   0.00000  Uiso   1.00
C964   C     0.10500   0.96939   0.53376   0.00000  Uiso   1.00
C965   C     0.21378   0.89720   0.47925   0.00000  Uiso   1.00
C966   C     0.22336   0.55123   0.46510   0.00000  Uiso   1.00
C967   C     0.28797   0.94870   0.51781   0.00000  Uiso   1.00
C968   C     0.27221   0.55405   0.54147   0.00000  Uiso   1.00
H969   H     0.18694   0.65718   0.43179   0.00000  Uiso   1.00
H970   H     0.14635   0.86985   0.46181   0.00000  Uiso   1.00
H971   H     0.17203   0.89616   0.41047   0.00000  Uiso   1.00
H972   H     0.18822   0.84036   0.43052   0.00000  Uiso   1.00
H973   H     0.00452   0.82131   0.43162   0.00000  Uiso   1.00
H974   H     0.06183   0.84443   0.43368   0.00000  Uiso   1.00
H975   H     0.03747   0.92155   0.45712   0.00000  Uiso   1.00
H976   H     0.00545   0.90160   0.40083   0.00000  Uiso   1.00
H977   H     0.48074   0.89886   0.45956   0.00000  Uiso   1.00
H978   H     0.01934   0.74000   0.41227   0.00000  Uiso   1.00
H979   H     0.46274   0.74693   0.38390   0.00000  Uiso   1.00
H980   H     0.22520   0.63278   0.39167   0.00000  Uiso   1.00
H981   H     0.46566   0.67455   0.33815   0.00000  Uiso   1.00
H982   H     0.01406   0.71202   0.66167   0.00000  Uiso   1.00
H983   H     0.01996   0.66244   0.36937   0.00000  Uiso   1.00
H984   H     0.00104   0.77571   0.60233   0.00000  Uiso   1.00
H985   H     0.44447   0.79007   0.61376   0.00000  Uiso   1.00
H986   H     0.47149   0.86930   0.63997   0.00000  Uiso   1.00
H987   H     0.00212   0.82544   0.34227   0.00000  Uiso   1.00
H988   H     0.02766   0.85644   0.62635   0.00000  Uiso   1.00
H989   H     0.48583   0.68903   0.57965   0.00000  Uiso   1.00
H990   H     0.04040   0.66415   0.59560   0.00000  Uiso   1.00
H991   H     0.17305   0.60355   0.40166   0.00000  Uiso   1.00
H992   H     0.00890   0.58702   0.56426   0.00000  Uiso   1.00
H993   H     0.47948   0.60861   0.61438   0.00000  Uiso   1.00
H994   H     0.45472   0.61204   0.55088   0.00000  Uiso   1.00
H995   H     0.15541   0.79328   0.59619   0.00000  Uiso   1.00
H996   H     0.10372   0.81895   0.61008   0.00000  Uiso   1.00
H997   H     0.13857   0.89697   0.60849   0.00000  Uiso   1.00
H998   H     0.17311   0.86044   0.64927   0.00000  Uiso   1.00
H999   H     0.18941   0.87441   0.58784   0.00000  Uiso   1.00
H1000  H     0.37455   0.64027   0.50239   0.00000  Uiso   1.00
H1001  H     0.41751   0.62650   0.46214   0.00000  Uiso   1.00
H1002  H     0.34052   0.85561   0.54559   0.00000  Uiso   1.00
H1003  H     0.36028   0.60127   0.39574   0.00000  Uiso   1.00
H1004  H     0.35007   0.57115   0.45292   0.00000  Uiso   1.00
H1005  H     0.31618   0.61910   0.43189   0.00000  Uiso   1.00
H1006  H     0.36451   0.81141   0.41711   0.00000  Uiso   1.00
H1007  H     0.42305   0.82978   0.41994   0.00000  Uiso   1.00
H1008  H     0.40163   0.91213   0.42550   0.00000  Uiso   1.00
H1009  H     0.37529   0.88366   0.37060   0.00000  Uiso   1.00
H1010  H     0.34291   0.89270   0.42248   0.00000  Uiso   1.00
H1011  H     0.11245   0.65453   0.43138   0.00000  Uiso   1.00
H1012  H     0.05739   0.64603   0.44999   0.00000  Uiso   1.00
H1013  H     0.29854   0.85698   0.58954   0.00000  Uiso   1.00
H1014  H     0.07624   0.57488   0.49540   0.00000  Uiso   1.00
H1015  H     0.09120   0.57110   0.43206   0.00000  Uiso   1.00
H1016  H     0.13398   0.58212   0.48272   0.00000  Uiso   1.00
H1017  H     0.23721   0.98327   0.40390   0.00000  Uiso   1.00
H1018  H     0.23537   0.54065   0.37550   0.00000  Uiso   1.00
H1019  H     0.16237   0.52255   0.66565   0.00000  Uiso   1.00
H1020  H     0.19600   0.97288   0.65688   0.00000  Uiso   1.00
H1021  H     0.15526   0.96996   0.36834   0.00000  Uiso   1.00
H1022  H     0.34704   0.97453   0.45979   0.00000  Uiso   1.00
H1023  H     0.36879   0.92774   0.50032   0.00000  Uiso   1.00
H1024  H     0.33767   0.90384   0.58524   0.00000  Uiso   1.00
H1025  H     0.41670   0.98264   0.55096   0.00000  Uiso   1.00
H1026  H     0.42683   0.98946   0.48616   0.00000  Uiso   1.00
H1027  H     0.39433   0.53133   0.51556   0.00000  Uiso   1.00
H1028  H     0.24954   0.98630   0.59945   0.00000  Uiso   1.00
H1029  H     0.25254   0.54169   0.63129   0.00000  Uiso   1.00
H1030  H     0.31985   0.52106   0.34805   0.00000  Uiso   1.00
H1031  H     0.28481   0.96821   0.34588   0.00000  Uiso   1.00
H1032  H     0.32994   0.97381   0.64040   0.00000  Uiso   1.00
H1033  H     0.16312   0.51550   0.53577   0.00000  Uiso   1.00
H1034  H     0.17240   0.95917   0.56388   0.00000  Uiso   1.00
H1035  H     0.31158   0.66512   0.56909   0.00000  Uiso   1.00
H1036  H     0.09625   0.93154   0.53092   0.00000  Uiso   1.00
H1037  H     0.09499   0.98254   0.56963   0.00000  Uiso   1.00
H1038  H     0.08641   0.98787   0.50255   0.00000  Uiso   1.00
H1039  H     0.28860   0.62672   0.61361   0.00000  Uiso   1.00
H1040  H     0.33721   0.61263   0.58268   0.00000  Uiso   1.00
N1041  N     0.25000   0.62624   0.50000   0.00000  Uiso   1.00
N1042  N     0.25000   0.87377   0.50000   0.00000  Uiso   1.00
O1043  O     0.18453   0.78974   0.50000   0.00000  Uiso   1.00
O1044  O     0.47160   0.69317   0.43710   0.00000  Uiso   1.00
O1045  O     0.47061   0.82398   0.55335   0.00000  Uiso   1.00
O1046  O     0.01912   0.66835   0.51992   0.00000  Uiso   1.00
O1047  O     0.12181   0.82995   0.53768   0.00000  Uiso   1.00
O1048  O     0.37969   0.68377   0.44045   0.00000  Uiso   1.00
O1049  O     0.39243   0.83756   0.48618   0.00000  Uiso   1.00
O1050  O     0.10888   0.66376   0.50715   0.00000  Uiso   1.00
O1051  O     0.19314   0.52808   0.43130   0.00000  Uiso   1.00
O1052  O     0.32766   0.97310   0.53201   0.00000  Uiso   1.00
O1053  O     0.29879   0.53433   0.58001   0.00000  Uiso   1.00
O1054  O     0.31547   0.71026   0.50000   0.00000  Uiso   1.00
O1055  O     0.16692   0.96237   0.48485   0.00000  Uiso   1.00
O1056  O     0.31547   0.78974   0.50000   0.00000  Uiso   1.00
O1057  O     0.18453   0.71026   0.50000   0.00000  Uiso   1.00
O1058  O     0.25000   0.78973   0.42845   0.00000  Uiso   1.00
O1059  O     0.25000   0.71027   0.57155   0.00000  Uiso   1.00
O1060  O     0.25000   0.78973   0.57155   0.00000  Uiso   1.00
O1061  O     0.25000   0.71027   0.42845   0.00000  Uiso   1.00
O1062  O     0.03468   0.83785   0.50220   0.00000  Uiso   1.00
Zn1063 Zn    0.25000   0.80307   0.50000   0.00000  Uiso   1.00
Zn1064 Zn    0.25000   0.69693   0.50000   0.00000  Uiso   1.00
C1065  C     0.66413   0.74918   0.50310   0.00000  Uiso   1.00
C1066  C     0.70942   0.94481   0.49004   0.00000  Uiso   1.00
C1067  C     0.74968   0.75009   0.40624   0.00000  Uiso   1.00
C1068  C     0.75032   0.74992   0.59375   0.00000  Uiso   1.00
C1069  C     0.74784   0.52652   0.50382   0.00000  Uiso   1.00
C1070  C     0.74839   0.97304   0.50415   0.00000  Uiso   1.00
C1071  C     0.74987   0.75014   0.35508   0.00000  Uiso   1.00
C1072  C     0.75010   0.74987   0.64491   0.00000  Uiso   1.00
C1073  C     0.55141   0.79403   0.51016   0.00000  Uiso   1.00
C1074  C     0.95093   0.72107   0.46908   0.00000  Uiso   1.00
C1075  C     0.95131   0.79052   0.52075   0.00000  Uiso   1.00
C1076  C     0.83543   0.75084   0.49606   0.00000  Uiso   1.00
C1077  C     0.54428   0.70936   0.51576   0.00000  Uiso   1.00
C1078  C     0.59699   0.79075   0.52061   0.00000  Uiso   1.00
C1079  C     0.90444   0.71656   0.46982   0.00000  Uiso   1.00
C1080  C     0.90717   0.79452   0.50299   0.00000  Uiso   1.00
C1081  C     0.58990   0.70679   0.50937   0.00000  Uiso   1.00
C1082  C     0.61666   0.74830   0.51139   0.00000  Uiso   1.00
C1083  C     0.88279   0.75327   0.49021   0.00000  Uiso   1.00
C1084  C     0.52402   0.75293   0.50989   0.00000  Uiso   1.00
C1085  C     0.97508   0.75450   0.50090   0.00000  Uiso   1.00
C1086  C     0.70132   0.62493   0.41995   0.00000  Uiso   1.00
C1087  C     0.72514   0.60071   0.46373   0.00000  Uiso   1.00
C1088  C     0.81708   0.87739   0.56269   0.00000  Uiso   1.00
C1089  C     0.80405   0.62873   0.57770   0.00000  Uiso   1.00
C1090  C     0.67811   0.87403   0.44414   0.00000  Uiso   1.00
C1091  C     0.52939   0.84652   0.45046   0.00000  Uiso   1.00
C1092  C     0.51217   0.89521   0.44145   0.00000  Uiso   1.00
C1093  C     0.98760   0.72122   0.39875   0.00000  Uiso   1.00
C1094  C     0.99737   0.69043   0.35597   0.00000  Uiso   1.00
C1095  C     0.97681   0.80407   0.60139   0.00000  Uiso   1.00
C1096  C     0.99570   0.84125   0.63810   0.00000  Uiso   1.00
C1097  C     0.50928   0.66232   0.56963   0.00000  Uiso   1.00
C1098  C     0.78490   0.89951   0.52422   0.00000  Uiso   1.00
C1099  C     0.98667   0.61450   0.57510   0.00000  Uiso   1.00
C1100  C     0.63398   0.82386   0.58924   0.00000  Uiso   1.00
C1101  C     0.66047   0.86669   0.60985   0.00000  Uiso   1.00
C1102  C     0.88318   0.63946   0.46305   0.00000  Uiso   1.00
C1103  C     0.85043   0.60560   0.43413   0.00000  Uiso   1.00
C1104  C     0.89006   0.83757   0.43315   0.00000  Uiso   1.00
C1105  C     0.87664   0.88462   0.41192   0.00000  Uiso   1.00
C1106  C     0.59326   0.64109   0.46199   0.00000  Uiso   1.00
C1107  C     0.59911   0.58901   0.46836   0.00000  Uiso   1.00
C1108  C     0.71517   0.51199   0.39139   0.00000  Uiso   1.00
C1109  C     0.77417   0.60321   0.53789   0.00000  Uiso   1.00
C1110  C     0.68007   0.99326   0.35137   0.00000  Uiso   1.00
C1111  C     0.85966   0.96476   0.49850   0.00000  Uiso   1.00
C1112  C     0.90199   0.99394   0.51370   0.00000  Uiso   1.00
C1113  C     0.77245   0.51451   0.61566   0.00000  Uiso   1.00
C1114  C     0.80361   0.99324   0.65681   0.00000  Uiso   1.00
C1115  C     0.65507   0.97762   0.53156   0.00000  Uiso   1.00
C1116  C     0.60500   0.96939   0.53376   0.00000  Uiso   1.00
C1117  C     0.71378   0.89720   0.47925   0.00000  Uiso   1.00
C1118  C     0.72336   0.55123   0.46510   0.00000  Uiso   1.00
C1119  C     0.78797   0.94870   0.51781   0.00000  Uiso   1.00
C1120  C     0.77221   0.55405   0.54147   0.00000  Uiso   1.00
H1121  H     0.68694   0.65718   0.43179   0.00000  Uiso   1.00
H1122  H     0.64635   0.86985   0.46181   0.00000  Uiso   1.00
H1123  H     0.67203   0.89616   0.41047   0.00000  Uiso   1.00
H1124  H     0.68822   0.84036   0.43052   0.00000  Uiso   1.00
H1125  H     0.50452   0.82131   0.43162   0.00000  Uiso   1.00
H1126  H     0.56183   0.84443   0.43368   0.00000  Uiso   1.00
H1127  H     0.53747   0.92155   0.45712   0.00000  Uiso   1.00
H1128  H     0.50545   0.90160   0.40083   0.00000  Uiso   1.00
H1129  H     0.98074   0.89886   0.45956   0.00000  Uiso   1.00
H1130  H     0.51934   0.74000   0.41227   0.00000  Uiso   1.00
H1131  H     0.96274   0.74693   0.38390   0.00000  Uiso   1.00
H1132  H     0.72520   0.63278   0.39167   0.00000  Uiso   1.00
H1133  H     0.96566   0.67455   0.33815   0.00000  Uiso   1.00
H1134  H     0.51406   0.71202   0.66167   0.00000  Uiso   1.00
H1135  H     0.51996   0.66244   0.36937   0.00000  Uiso   1.00
H1136  H     0.50104   0.77571   0.60233   0.00000  Uiso   1.00
H1137  H     0.94447   0.79007   0.61376   0.00000  Uiso   1.00
H1138  H     0.97149   0.86930   0.63997   0.00000  Uiso   1.00
H1139  H     0.50212   0.82544   0.34227   0.00000  Uiso   1.00
H1140  H     0.52766   0.85644   0.62635   0.00000  Uiso   1.00
H1141  H     0.98583   0.68903   0.57965   0.00000  Uiso   1.00
H1142  H     0.54040   0.66415   0.59560   0.00000  Uiso   1.00
H1143  H     0.67305   0.60355   0.40166   0.00000  Uiso   1.00
H1144  H     0.50890   0.58702   0.56426   0.00000  Uiso   1.00
H1145  H     0.97948   0.60861   0.61438   0.00000  Uiso   1.00
H1146  H     0.95472   0.61204   0.55088   0.00000  Uiso   1.00
H1147  H     0.65541   0.79328   0.59619   0.00000  Uiso   1.00
H1148  H     0.60372   0.81895   0.61008   0.00000  Uiso   1.00
H1149  H     0.63857   0.89697   0.60849   0.00000  Uiso   1.00
H1150  H     0.67311   0.86044   0.64927   0.00000  Uiso   1.00
H1151  H     0.68941   0.87441   0.58784   0.00000  Uiso   1.00
H1152  H     0.87455   0.64027   0.50239   0.00000  Uiso   1.00
H1153  H     0.91751   0.62650   0.46214   0.00000  Uiso   1.00
H1154  H     0.84052   0.85561   0.54559   0.00000  Uiso   1.00
H1155  H     0.86028   0.60127   0.39574   0.00000  Uiso   1.00
H1156  H     0.85007   0.57115   0.45292   0.00000  Uiso   1.00
H1157  H     0.81618   0.61910   0.43189   0.00000  Uiso   1.00
H1158  H     0.86451   0.81141   0.41711   0.00000  Uiso   1.00
H1159  H     0.92305   0.82978   0.41994   0.00000  Uiso   1.00
H1160  H     0.90163   0.91213   0.42550   0.00000  Uiso   1.00
H1161  H     0.87529   0.88366   0.37060   0.00000  Uiso   1.00
H1162  H     0.84291   0.89270   0.42248   0.00000  Uiso   1.00
H1163  H     0.61245   0.65453   0.43138   0.00000  Uiso   1.00
H1164  H     0.55739   0.64603   0.44999   0.00000  Uiso   1.00
H1165  H     0.79854   0.85698   0.58954   0.00000  Uiso   1.00
H1166  H     0.57624   0.57488   0.49540   0.00000  Uiso   1.00
H1167  H     0.59120   0.57110   0.43206   0.00000  Uiso   1.00
H1168  H     0.63398   0.58212   0.48272   0.00000  Uiso   1.00
H1169  H     0.73721   0.98327   0.40390   0.00000  Uiso   1.00
H1170  H     0.73537   0.54065   0.37550   0.00000  Uiso   1.00
H1171  H     0.66237   0.52255   0.66565   0.00000  Uiso   1.00
H1172  H     0.69600   0.97288   0.65688   0.00000  Uiso   1.00
H1173  H     0.65526   0.96996   0.36834   0.00000  Uiso   1.00
H1174  H     0.84704   0.97453   0.45979   0.00000  Uiso   1.00
H1175  H     0.86879   0.92774   0.50032   0.00000  Uiso   1.00
H1176  H     0.83767   0.90384   0.58524   0.00000  Uiso   1.00
H1177  H     0.91670   0.98264   0.55096   0.00000  Uiso   1.00
H1178  H     0.92683   0.98946   0.48616   0.00000  Uiso   1.00
H1179  H     0.89433   0.53133   0.51556   0.00000  Uiso   1.00
H1180  H     0.74954   0.98630   0.59945   0.00000  Uiso   1.00
H1181  H     0.75254   0.54169   0.63129   0.00000  Uiso   1.00
H1182  H     0.81985   0.52106   0.34805   0.00000  Uiso   1.00
H1183  H     0.78481   0.96821   0.34588   0.00000  Uiso   1.00
H1184  H     0.82994   0.97381   0.64040   0.00000  Uiso   1.00
H1185  H     0.66312   0.51550   0.53577   0.00000  Uiso   1.00
H1186  H     0.67240   0.95917   0.56388   0.00000  Uiso   1.00
H1187  H     0.81158   0.66512   0.56909   0.00000  Uiso   1.00
H1188  H     0.59625   0.93154   0.53092   0.00000  Uiso   1.00
H1189  H     0.59499   0.98254   0.56963   0.00000  Uiso   1.00
H1190  H     0.58641   0.98787   0.50255   0.00000  Uiso   1.00
H1191  H     0.78860   0.62672   0.61361   0.00000  Uiso   1.00
H1192  H     0.83721   0.61263   0.58268   0.00000  Uiso   1.00
N1193  N     0.75000   0.62624   0.50000   0.00000  Uiso   1.00
N1194  N     0.75000   0.87377   0.50000   0.00000  Uiso   1.00
O1195  O     0.68453   0.78974   0.50000   0.00000  Uiso   1.00
O1196  O     0.97160   0.69317   0.43710   0.00000  Uiso   1.00
O1197  O     0.97061   0.82398   0.55335   0.00000  Uiso   1.00
O1198  O     0.51912   0.66835   0.51992   0.00000  Uiso   1.00
O1199  O     0.62181   0.82995   0.53768   0.00000  Uiso   1.00
O1200  O     0.87969   0.68377   0.44045   0.00000  Uiso   1.00
O1201  O     0.89243   0.83756   0.48618   0.00000  Uiso   1.00
O1202  O     0.60888   0.66376   0.50715   0.00000  Uiso   1.00
O1203  O     0.69314   0.52808   0.43130   0.00000  Uiso   1.00
O1204  O     0.82766   0.97310   0.53201   0.00000  Uiso   1.00
O1205  O     0.79879   0.53433   0.58001   0.00000  Uiso   1.00
O1206  O     0.81547   0.71026   0.50000   0.00000  Uiso   1.00
O1207  O     0.66692   0.96237   0.48485   0.00000  Uiso   1.00
O1208  O     0.81547   0.78974   0.50000   0.00000  Uiso   1.00
O1209  O     0.68453   0.71026   0.50000   0.00000  Uiso   1.00
O1210  O     0.75000   0.78973   0.42845   0.00000  Uiso   1.00
O1211  O     0.75000   0.71027   0.57155   0.00000  Uiso   1.00
O1212  O     0.75000   0.78973   0.57155   0.00000  Uiso   1.00
O1213  O     0.75000   0.71027   0.42845   0.00000  Uiso   1.00
O1214  O     0.53468   0.83785   0.50220   0.00000  Uiso   1.00
Zn1215 Zn    0.75000   0.80307   0.50000   0.00000  Uiso   1.00
Zn1216 Zn    0.75000   0.69693   0.50000   0.00000  Uiso   1.00
C1217  C     0.16413   0.24918   0.83643   0.00000  Uiso   1.00
C1218  C     0.20942   0.44481   0.82337   0.00000  Uiso   1.00
C1219  C     0.24968   0.25009   0.73958   0.00000  Uiso   1.00
C1220  C     0.25032   0.24992   0.92709   0.00000  Uiso   1.00
C1221  C     0.24784   0.02652   0.83715   0.00000  Uiso   1.00
C1222  C     0.24839   0.47304   0.83748   0.00000  Uiso   1.00
C1223  C     0.24987   0.25014   0.68842   0.00000  Uiso   1.00
C1224  C     0.25010   0.24987   0.97824   0.00000  Uiso   1.00
C1225  C     0.05141   0.29403   0.84349   0.00000  Uiso   1.00
C1226  C     0.45093   0.22107   0.80241   0.00000  Uiso   1.00
C1227  C     0.45131   0.29052   0.85408   0.00000  Uiso   1.00
C1228  C     0.33543   0.25084   0.82939   0.00000  Uiso   1.00
C1229  C     0.04428   0.20936   0.84909   0.00000  Uiso   1.00
C1230  C     0.09699   0.29075   0.85394   0.00000  Uiso   1.00
C1231  C     0.40444   0.21656   0.80316   0.00000  Uiso   1.00
C1232  C     0.40717   0.29452   0.83632   0.00000  Uiso   1.00
C1233  C     0.08990   0.20679   0.84270   0.00000  Uiso   1.00
C1234  C     0.11666   0.24830   0.84472   0.00000  Uiso   1.00
C1235  C     0.38279   0.25327   0.82354   0.00000  Uiso   1.00
C1236  C     0.02402   0.25293   0.84323   0.00000  Uiso   1.00
C1237  C     0.47508   0.25450   0.83424   0.00000  Uiso   1.00
C1238  C     0.20132   0.12493   0.75329   0.00000  Uiso   1.00
C1239  C     0.22514   0.10071   0.79706   0.00000  Uiso   1.00
C1240  C     0.31708   0.37739   0.89602   0.00000  Uiso   1.00
C1241  C     0.30405   0.12873   0.91104   0.00000  Uiso   1.00
C1242  C     0.17811   0.37403   0.77747   0.00000  Uiso   1.00
C1243  C     0.02939   0.34652   0.78379   0.00000  Uiso   1.00
C1244  C     0.01217   0.39521   0.77478   0.00000  Uiso   1.00
C1245  C     0.48760   0.22122   0.73209   0.00000  Uiso   1.00
C1246  C     0.49737   0.19043   0.68931   0.00000  Uiso   1.00
C1247  C     0.47681   0.30407   0.93472   0.00000  Uiso   1.00
C1248  C     0.49570   0.34125   0.97144   0.00000  Uiso   1.00
C1249  C     0.00928   0.16232   0.90297   0.00000  Uiso   1.00
C1250  C     0.28490   0.39951   0.85755   0.00000  Uiso   1.00
C1251  C     0.48667   0.11450   0.90843   0.00000  Uiso   1.00
C1252  C     0.13398   0.32386   0.92257   0.00000  Uiso   1.00
C1253  C     0.16047   0.36669   0.94318   0.00000  Uiso   1.00
C1254  C     0.38318   0.13946   0.79638   0.00000  Uiso   1.00
C1255  C     0.35043   0.10560   0.76747   0.00000  Uiso   1.00
C1256  C     0.39006   0.33757   0.76648   0.00000  Uiso   1.00
C1257  C     0.37664   0.38462   0.74525   0.00000  Uiso   1.00
C1258  C     0.09326   0.14109   0.79532   0.00000  Uiso   1.00
C1259  C     0.09911   0.08901   0.80170   0.00000  Uiso   1.00
C1260  C     0.21517   0.01199   0.72472   0.00000  Uiso   1.00
C1261  C     0.27417   0.10321   0.87122   0.00000  Uiso   1.00
C1262  C     0.18007   0.49326   0.68470   0.00000  Uiso   1.00
C1263  C     0.35966   0.46476   0.83184   0.00000  Uiso   1.00
C1264  C     0.40199   0.49394   0.84704   0.00000  Uiso   1.00
C1265  C     0.27245   0.01451   0.94900   0.00000  Uiso   1.00
C1266  C     0.30361   0.49324   0.99014   0.00000  Uiso   1.00
C1267  C     0.15507   0.47762   0.86489   0.00000  Uiso   1.00
C1268  C     0.10500   0.46939   0.86710   0.00000  Uiso   1.00
C1269  C     0.21378   0.39720   0.81259   0.00000  Uiso   1.00
C1270  C     0.22336   0.05123   0.79843   0.00000  Uiso   1.00
C1271  C     0.28797   0.44870   0.85115   0.00000  Uiso   1.00
C1272  C     0.27221   0.05405   0.87480   0.00000  Uiso   1.00
H1273  H     0.18694   0.15718   0.76513   0.00000  Uiso   1.00
H1274  H     0.14635   0.36985   0.79515   0.00000  Uiso   1.00
H1275  H     0.17203   0.39616   0.74380   0.00000  Uiso   1.00
H1276  H     0.18822   0.34036   0.76385   0.00000  Uiso   1.00
H1277  H     0.00452   0.32131   0.76496   0.00000  Uiso   1.00
H1278  H     0.06183   0.34443   0.76701   0.00000  Uiso   1.00
H1279  H     0.03747   0.42155   0.79046   0.00000  Uiso   1.00
H1280  H     0.00545   0.40160   0.73416   0.00000  Uiso   1.00
H1281  H     0.48074   0.39886   0.79289   0.00000  Uiso   1.00
H1282  H     0.01934   0.24000   0.74560   0.00000  Uiso   1.00
H1283  H     0.46274   0.24693   0.71723   0.00000  Uiso   1.00
H1284  H     0.22520   0.13278   0.72501   0.00000  Uiso   1.00
H1285  H     0.46566   0.17455   0.67149   0.00000  Uiso   1.00
H1286  H     0.01406   0.21202   0.99500   0.00000  Uiso   1.00
H1287  H     0.01996   0.16244   0.70270   0.00000  Uiso   1.00
H1288  H     0.00104   0.27571   0.93567   0.00000  Uiso   1.00
H1289  H     0.44447   0.29007   0.94710   0.00000  Uiso   1.00
H1290  H     0.47149   0.36930   0.97330   0.00000  Uiso   1.00
H1291  H     0.00212   0.32544   0.67560   0.00000  Uiso   1.00
H1292  H     0.02766   0.35644   0.95968   0.00000  Uiso   1.00
H1293  H     0.48583   0.18903   0.91298   0.00000  Uiso   1.00
H1294  H     0.04040   0.16415   0.92893   0.00000  Uiso   1.00
H1295  H     0.17305   0.10355   0.73499   0.00000  Uiso   1.00
H1296  H     0.00890   0.08702   0.89759   0.00000  Uiso   1.00
H1297  H     0.47948   0.10861   0.94772   0.00000  Uiso   1.00
H1298  H     0.45472   0.11204   0.88422   0.00000  Uiso   1.00
H1299  H     0.15541   0.29328   0.92952   0.00000  Uiso   1.00
H1300  H     0.10372   0.31895   0.94341   0.00000  Uiso   1.00
H1301  H     0.13857   0.39697   0.94182   0.00000  Uiso   1.00
H1302  H     0.17311   0.36044   0.98260   0.00000  Uiso   1.00
H1303  H     0.18941   0.37441   0.92117   0.00000  Uiso   1.00
H1304  H     0.37455   0.14027   0.83572   0.00000  Uiso   1.00
H1305  H     0.41751   0.12650   0.79547   0.00000  Uiso   1.00
H1306  H     0.34052   0.35561   0.87892   0.00000  Uiso   1.00
H1307  H     0.36028   0.10127   0.72907   0.00000  Uiso   1.00
H1308  H     0.35007   0.07115   0.78625   0.00000  Uiso   1.00
H1309  H     0.31618   0.11910   0.76523   0.00000  Uiso   1.00
H1310  H     0.36451   0.31141   0.75044   0.00000  Uiso   1.00
H1311  H     0.42305   0.32978   0.75328   0.00000  Uiso   1.00
H1312  H     0.40163   0.41213   0.75883   0.00000  Uiso   1.00
H1313  H     0.37529   0.38366   0.70393   0.00000  Uiso   1.00
H1314  H     0.34291   0.39270   0.75581   0.00000  Uiso   1.00
H1315  H     0.11245   0.15453   0.76471   0.00000  Uiso   1.00
H1316  H     0.05739   0.14603   0.78332   0.00000  Uiso   1.00
H1317  H     0.29854   0.35698   0.92287   0.00000  Uiso   1.00
H1318  H     0.07624   0.07488   0.82874   0.00000  Uiso   1.00
H1319  H     0.09120   0.07110   0.76539   0.00000  Uiso   1.00
H1320  H     0.13398   0.08212   0.81606   0.00000  Uiso   1.00
H1321  H     0.23721   0.48327   0.73724   0.00000  Uiso   1.00
H1322  H     0.23537   0.04065   0.70884   0.00000  Uiso   1.00
H1323  H     0.16237   0.02255   0.99898   0.00000  Uiso   1.00
H1324  H     0.19600   0.47288   0.99022   0.00000  Uiso   1.00
H1325  H     0.15526   0.46996   0.70167   0.00000  Uiso   1.00
H1326  H     0.34704   0.47453   0.79313   0.00000  Uiso   1.00
H1327  H     0.36879   0.42774   0.83365   0.00000  Uiso   1.00
H1328  H     0.33767   0.40384   0.91857   0.00000  Uiso   1.00
H1329  H     0.41670   0.48264   0.88429   0.00000  Uiso   1.00
H1330  H     0.42683   0.48946   0.81950   0.00000  Uiso   1.00
H1331  H     0.39433   0.03133   0.84889   0.00000  Uiso   1.00
H1332  H     0.24954   0.48630   0.93278   0.00000  Uiso   1.00
H1333  H     0.25254   0.04169   0.96462   0.00000  Uiso   1.00
H1334  H     0.31985   0.02106   0.68138   0.00000  Uiso   1.00
H1335  H     0.28481   0.46821   0.67921   0.00000  Uiso   1.00
H1336  H     0.32994   0.47381   0.97373   0.00000  Uiso   1.00
H1337  H     0.16312   0.01550   0.86911   0.00000  Uiso   1.00
H1338  H     0.17240   0.45917   0.89721   0.00000  Uiso   1.00
H1339  H     0.31158   0.16512   0.90242   0.00000  Uiso   1.00
H1340  H     0.09625   0.43154   0.86425   0.00000  Uiso   1.00
H1341  H     0.09499   0.48254   0.90296   0.00000  Uiso   1.00
H1342  H     0.08641   0.48787   0.83588   0.00000  Uiso   1.00
H1343  H     0.28860   0.12672   0.94694   0.00000  Uiso   1.00
H1344  H     0.33721   0.11263   0.91601   0.00000  Uiso   1.00
N1345  N     0.25000   0.12624   0.83333   0.00000  Uiso   1.00
N1346  N     0.25000   0.37377   0.83333   0.00000  Uiso   1.00
O1347  O     0.18453   0.28974   0.83334   0.00000  Uiso   1.00
O1348  O     0.47160   0.19317   0.77043   0.00000  Uiso   1.00
O1349  O     0.47061   0.32398   0.88668   0.00000  Uiso   1.00
O1350  O     0.01912   0.16835   0.85326   0.00000  Uiso   1.00
O1351  O     0.12181   0.32995   0.87101   0.00000  Uiso   1.00
O1352  O     0.37969   0.18377   0.77378   0.00000  Uiso   1.00
O1353  O     0.39243   0.33756   0.81951   0.00000  Uiso   1.00
O1354  O     0.10888   0.16376   0.84048   0.00000  Uiso   1.00
O1355  O     0.19314   0.02808   0.76463   0.00000  Uiso   1.00
O1356  O     0.32766   0.47310   0.86534   0.00000  Uiso   1.00
O1357  O     0.29879   0.03433   0.91335   0.00000  Uiso   1.00
O1358  O     0.31547   0.21026   0.83333   0.00000  Uiso   1.00
O1359  O     0.16692   0.46237   0.81818   0.00000  Uiso   1.00
O1360  O     0.31547   0.28974   0.83333   0.00000  Uiso   1.00
O1361  O     0.18453   0.21026   0.83334   0.00000  Uiso   1.00
O1362  O     0.25000   0.28973   0.76178   0.00000  Uiso   1.00
O1363  O     0.25000   0.21027   0.90489   0.00000  Uiso   1.00
O1364  O     0.25000   0.28973   0.90489   0.00000  Uiso   1.00
O1365  O     0.25000   0.21027   0.76178   0.00000  Uiso   1.00
O1366  O     0.03468   0.33785   0.83553   0.00000  Uiso   1.00
Zn1367 Zn    0.25000   0.30307   0.83333   0.00000  Uiso   1.00
Zn1368 Zn    0.25000   0.19693   0.83333   0.00000  Uiso   1.00
C1369  C     0.66413   0.24918   0.83643   0.00000  Uiso   1.00
C1370  C     0.70942   0.44481   0.82337   0.00000  Uiso   1.00
C1371  C     0.74968   0.25009   0.73958   0.00000  Uiso   1.00
C1372  C     0.75032   0.24992   0.92709   0.00000  Uiso   1.00
C1373  C     0.74784   0.02652   0.83715   0.00000  Uiso   1.00
C1374  C     0.74839   0.47304   0.83748   0.00000  Uiso   1.00
C1375  C     0.74987   0.25014   0.68842   0.00000  Uiso   1.00
C1376  C     0.75010   0.24987   0.97824   0.00000  Uiso   1.00
C1377  C     0.55141   0.29403   0.84349   0.00000  Uiso   1.00
C1378  C     0.95093   0.22107   0.80241   0.00000  Uiso   1.00
C1379  C     0.95131   0.29052   0.85408   0.00000  Uiso   1.00
C1380  C     0.83543   0.25084   0.82939   0.00000  Uiso   1.00
C1381  C     0.54428   0.20936   0.84909   0.00000  Uiso   1.00
C1382  C     0.59699   0.29075   0.85394   0.00000  Uiso   1.00
C1383  C     0.90444   0.21656   0.80316   0.00000  Uiso   1.00
C1384  C     0.90717   0.29452   0.83632   0.00000  Uiso   1.00
C1385  C     0.58990   0.20679   0.84270   0.00000  Uiso   1.00
C1386  C     0.61666   0.24830   0.84472   0.00000  Uiso   1.00
C1387  C     0.88279   0.25327   0.82354   0.00000  Uiso   1.00
C1388  C     0.52402   0.25293   0.84323   0.00000  Uiso   1.00
C1389  C     0.97508   0.25450   0.83424   0.00000  Uiso   1.00
C1390  C     0.70132   0.12493   0.75329   0.00000  Uiso   1.00
C1391  C     0.72514   0.10071   0.79706   0.00000  Uiso   1.00
C1392  C     0.81708   0.37739   0.89602   0.00000  Uiso   1.00
C1393  C     0.80405   0.12873   0.91104   0.00000  Uiso   1.00
C1394  C     0.67811   0.37403   0.77747   0.00000  Uiso   1.00
C1395  C     0.52939   0.34652   0.78379   0.00000  Uiso   1.00
C1396  C     0.51217   0.39521   0.77478   0.00000  Uiso   1.00
C1397  C     0.98760   0.22122   0.73209   0.00000  Uiso   1.00
C1398  C     0.99737   0.19043   0.68931   0.00000  Uiso   1.00
C1399  C     0.97681   0.30407   0.93472   0.00000  Uiso   1.00
C1400  C     0.99570   0.34125   0.97144   0.00000  Uiso   1.00
C1401  C     0.50928   0.16232   0.90297   0.00000  Uiso   1.00
C1402  C     0.78490   0.39951   0.85755   0.00000  Uiso   1.00
C1403  C     0.98667   0.11450   0.90843   0.00000  Uiso   1.00
C1404  C     0.63398   0.32386   0.92257   0.00000  Uiso   1.00
C1405  C     0.66047   0.36669   0.94318   0.00000  Uiso   1.00
C1406  C     0.88318   0.13946   0.79638   0.00000  Uiso   1.00
C1407  C     0.85043   0.10560   0.76747   0.00000  Uiso   1.00
C1408  C     0.89006   0.33757   0.76648   0.00000  Uiso   1.00
C1409  C     0.87664   0.38462   0.74525   0.00000  Uiso   1.00
C1410  C     0.59326   0.14109   0.79532   0.00000  Uiso   1.00
C1411  C     0.59911   0.08901   0.80170   0.00000  Uiso   1.00
C1412  C     0.71517   0.01199   0.72472   0.00000  Uiso   1.00
C1413  C     0.77417   0.10321   0.87122   0.00000  Uiso   1.00
C1414  C     0.68007   0.49326   0.68470   0.00000  Uiso   1.00
C1415  C     0.85966   0.46476   0.83184   0.00000  Uiso   1.00
C1416  C     0.90199   0.49394   0.84704   0.00000  Uiso   1.00
C1417  C     0.77245   0.01451   0.94900   0.00000  Uiso   1.00
C1418  C     0.80361   0.49324   0.99014   0.00000  Uiso   1.00
C1419  C     0.65507   0.47762   0.86489   0.00000  Uiso   1.00
C1420  C     0.60500   0.46939   0.86710   0.00000  Uiso   1.00
C1421  C     0.71378   0.39720   0.81259   0.00000  Uiso   1.00
C1422  C     0.72336   0.05123   0.79843   0.00000  Uiso   1.00
C1423  C     0.78797   0.44870   0.85115   0.00000  Uiso   1.00
C1424  C     0.77221   0.05405   0.87480   0.00000  Uiso   1.00
H1425  H     0.68694   0.15718   0.76513   0.00000  Uiso   1.00
H1426  H     0.64635   0.36985   0.79515   0.00000  Uiso   1.00
H1427  H     0.67203   0.39616   0.74380   0.00000  Uiso   1.00
H1428  H     0.68822   0.34036   0.76385   0.00000  Uiso   1.00
H1429  H     0.50452   0.32131   0.76496   0.00000  Uiso   1.00
H1430  H     0.56183   0.34443   0.76701   0.00000  Uiso   1.00
H1431  H     0.53747   0.42155   0.79046   0.00000  Uiso   1.00
H1432  H     0.50545   0.40160   0.73416   0.00000  Uiso   1.00
H1433  H     0.98074   0.39886   0.79289   0.00000  Uiso   1.00
H1434  H     0.51934   0.24000   0.74560   0.00000  Uiso   1.00
H1435  H     0.96274   0.24693   0.71723   0.00000  Uiso   1.00
H1436  H     0.72520   0.13278   0.72501   0.00000  Uiso   1.00
H1437  H     0.96566   0.17455   0.67149   0.00000  Uiso   1.00
H1438  H     0.51406   0.21202   0.99500   0.00000  Uiso   1.00
H1439  H     0.51996   0.16244   0.70270   0.00000  Uiso   1.00
H1440  H     0.50104   0.27571   0.93567   0.00000  Uiso   1.00
H1441  H     0.94447   0.29007   0.94710   0.00000  Uiso   1.00
H1442  H     0.97149   0.36930   0.97330   0.00000  Uiso   1.00
H1443  H     0.50212   0.32544   0.67560   0.00000  Uiso   1.00
H1444  H     0.52766   0.35644   0.95968   0.00000  Uiso   1.00
H1445  H     0.98583   0.18903   0.91298   0.00000  Uiso   1.00
H1446  H     0.54040   0.16415   0.92893   0.00000  Uiso   1.00
H1447  H     0.67305   0.10355   0.73499   0.00000  Uiso   1.00
H1448  H     0.50890   0.08702   0.89759   0.00000  Uiso   1.00
H1449  H     0.97948   0.10861   0.94772   0.00000  Uiso   1.00
H1450  H     0.95472   0.11204   0.88422   0.00000  Uiso   1.00
H1451  H     0.65541   0.29328   0.92952   0.00000  Uiso   1.00
H1452  H     0.60372   0.31895   0.94341   0.00000  Uiso   1.00
H1453  H     0.63857   0.39697   0.94182   0.00000  Uiso   1.00
H1454  H     0.67311   0.36044   0.98260   0.00000  Uiso   1.00
H1455  H     0.68941   0.37441   0.92117   0.00000  Uiso   1.00
H1456  H     0.87455   0.14027   0.83572   0.00000  Uiso   1.00
H1457  H     0.91751   0.12650   0.79547   0.00000  Uiso   1.00
H1458  H     0.84052   0.35561   0.87892   0.00000  Uiso   1.00
H1459  H     0.86028   0.10127   0.72907   0.00000  Uiso   1.00
H1460  H     0.85007   0.07115   0.78625   0.00000  Uiso   1.00
H1461  H     0.81618   0.11910   0.76523   0.00000  Uiso   1.00
H1462  H     0.86451   0.31141   0.75044   0.00000  Uiso   1.00
H1463  H     0.92305   0.32978   0.75328   0.00000  Uiso   1.00
H1464  H     0.90163   0.41213   0.75883   0.00000  Uiso   1.00
H1465  H     0.87529   0.38366   0.70393   0.00000  Uiso   1.00
H1466  H     0.84291   0.39270   0.75581   0.00000  Uiso   1.00
H1467  H     0.61245   0.15453   0.76471   0.00000  Uiso   1.00
H1468  H     0.55739   0.14603   0.78332   0.00000  Uiso   1.00
H1469  H     0.79854   0.35698   0.92287   0.00000  Uiso   1.00
H1470  H     0.57624   0.07488   0.82874   0.00000  Uiso   1.00
H1471  H     0.59120   0.07110   0.76539   0.00000  Uiso   1.00
H1472  H     0.63398   0.08212   0.81606   0.00000  Uiso   1.00
H1473  H     0.73721   0.48327   0.73724   0.00000  Uiso   1.00
H1474  H     0.73537   0.04065   0.70884   0.00000  Uiso   1.00
H1475  H     0.66237   0.02255   0.99898   0.00000  Uiso   1.00
H1476  H     0.69600   0.47288   0.99022   0.00000  Uiso   1.00
H1477  H     0.65526   0.46996   0.70167   0.00000  Uiso   1.00
H1478  H     0.84704   0.47453   0.79313   0.00000  Uiso   1.00
H1479  H     0.86879   0.42774   0.83365   0.00000  Uiso   1.00
H1480  H     0.83767   0.40384   0.91857   0.00000  Uiso   1.00
H1481  H     0.91670   0.48264   0.88429   0.00000  Uiso   1.00
H1482  H     0.92683   0.48946   0.81950   0.00000  Uiso   1.00
H1483  H     0.89433   0.03133   0.84889   0.00000  Uiso   1.00
H1484  H     0.74954   0.48630   0.93278   0.00000  Uiso   1.00
H1485  H     0.75254   0.04169   0.96462   0.00000  Uiso   1.00
H1486  H     0.81985   0.02106   0.68138   0.00000  Uiso   1.00
H1487  H     0.78481   0.46821   0.67921   0.00000  Uiso   1.00
H1488  H     0.82994   0.47381   0.97373   0.00000  Uiso   1.00
H1489  H     0.66312   0.01550   0.86911   0.00000  Uiso   1.00
H1490  H     0.67240   0.45917   0.89721   0.00000  Uiso   1.00
H1491  H     0.81158   0.16512   0.90242   0.00000  Uiso   1.00
H1492  H     0.59625   0.43154   0.86425   0.00000  Uiso   1.00
H1493  H     0.59499   0.48254   0.90296   0.00000  Uiso   1.00
H1494  H     0.58641   0.48787   0.83588   0.00000  Uiso   1.00
H1495  H     0.78860   0.12672   0.94694   0.00000  Uiso   1.00
H1496  H     0.83721   0.11263   0.91601   0.00000  Uiso   1.00
N1497  N     0.75000   0.12624   0.83333   0.00000  Uiso   1.00
N1498  N     0.75000   0.37377   0.83333   0.00000  Uiso   1.00
O1499  O     0.68453   0.28974   0.83334   0.00000  Uiso   1.00
O1500  O     0.97160   0.19317   0.77043   0.00000  Uiso   1.00
O1501  O     0.97061   0.32398   0.88668   0.00000  Uiso   1.00
O1502  O     0.51912   0.16835   0.85326   0.00000  Uiso   1.00
O1503  O     0.62181   0.32995   0.87101   0.00000  Uiso   1.00
O1504  O     0.87969   0.18377   0.77378   0.00000  Uiso   1.00
O1505  O     0.89243   0.33756   0.81951   0.00000  Uiso   1.00
O1506  O     0.60888   0.16376   0.84048   0.00000  Uiso   1.00
O1507  O     0.69314   0.02808   0.76463   0.00000  Uiso   1.00
O1508  O     0.82766   0.47310   0.86534   0.00000  Uiso   1.00
O1509  O     0.79879   0.03433   0.91335   0.00000  Uiso   1.00
O1510  O     0.81547   0.21026   0.83333   0.00000  Uiso   1.00
O1511  O     0.66692   0.46237   0.81818   0.00000  Uiso   1.00
O1512  O     0.81547   0.28974   0.83333   0.00000  Uiso   1.00
O1513  O     0.68453   0.21026   0.83334   0.00000  Uiso   1.00
O1514  O     0.75000   0.28973   0.76178   0.00000  Uiso   1.00
O1515  O     0.75000   0.21027   0.90489   0.00000  Uiso   1.00
O1516  O     0.75000   0.28973   0.90489   0.00000  Uiso   1.00
O1517  O     0.75000   0.21027   0.76178   0.00000  Uiso   1.00
O1518  O     0.53468   0.33785   0.83553   0.00000  Uiso   1.00
Zn1519 Zn    0.75000   0.30307   0.83333   0.00000  Uiso   1.00
Zn1520 Zn    0.75000   0.19693   0.83333   0.00000  Uiso   1.00
C1521  C     0.16413   0.74918   0.83643   0.00000  Uiso   1.00
C1522  C     0.20942   0.94481   0.82337   0.00000  Uiso   1.00
C1523  C     0.24968   0.75009   0.73958   0.00000  Uiso   1.00
C1524  C     0.25032   0.74992   0.92709   0.00000  Uiso   1.00
C1525  C     0.24784   0.52652   0.83715   0.00000  Uiso   1.00
C1526  C     0.24839   0.97304   0.83748   0.00000  Uiso   1.00
C1527  C     0.24987   0.75014   0.68842   0.00000  Uiso   1.00
C1528  C     0.25010   0.74987   0.97824   0.00000  Uiso   1.00
C1529  C     0.05141   0.79403   0.84349   0.00000  Uiso   1.00
C1530  C     0.45093   0.72107   0.80241   0.00000  Uiso   1.00
C1531  C     0.45131   0.79052   0.85408   0.00000  Uiso   1.00
C1532  C     0.33543   0.75084   0.82939   0.00000  Uiso   1.00
C1533  C     0.04428   0.70936   0.84909   0.00000  Uiso   1.00
C1534  C     0.09699   0.79075   0.85394   0.00000  Uiso   1.00
C1535  C     0.40444   0.71656   0.80316   0.00000  Uiso   1.00
C1536  C     0.40717   0.79452   0.83632   0.00000  Uiso   1.00
C1537  C     0.08990   0.70679   0.84270   0.00000  Uiso   1.00
C1538  C     0.11666   0.74830   0.84472   0.00000  Uiso   1.00
C1539  C     0.38279   0.75327   0.82354   0.00000  Uiso   1.00
C1540  C     0.02402   0.75293   0.84323   0.00000  Uiso   1.00
C1541  C     0.47508   0.75450   0.83424   0.00000  Uiso   1.00
C1542  C     0.20132   0.62493   0.75329   0.00000  Uiso   1.00
C1543  C     0.22514   0.60071   0.79706   0.00000  Uiso   1.00
C1544  C     0.31708   0.87739   0.89602   0.00000  Uiso   1.00
C1545  C     0.30405   0.62873   0.91104   0.00000  Uiso   1.00
C1546  C     0.17811   0.87403   0.77747   0.00000  Uiso   1.00
C1547  C     0.02939   0.84652   0.78379   0.00000  Uiso   1.00
C1548  C     0.01217   0.89521   0.77478   0.00000  Uiso   1.00
C1549  C     0.48760   0.72122   0.73209   0.00000  Uiso   1.00
C1550  C     0.49737   0.69043   0.68931   0.00000  Uiso   1.00
C1551  C     0.47681   0.80407   0.93472   0.00000  Uiso   1.00
C1552  C     0.49570   0.84125   0.97144   0.00000  Uiso   1.00
C1553  C     0.00928   0.66232   0.90297   0.00000  Uiso   1.00
C1554  C     0.28490   0.89951   0.85755   0.00000  Uiso   1.00
C1555  C     0.48667   0.61450   0.90843   0.00000  Uiso   1.00
C1556  C     0.13398   0.82386   0.92257   0.00000  Uiso   1.00
C1557  C     0.16047   0.86669   0.94318   0.00000  Uiso   1.00
C1558  C     0.38318   0.63946   0.79638   0.00000  Uiso   1.00
C1559  C     0.35043   0.60560   0.76747   0.00000  Uiso   1.00
C1560  C     0.39006   0.83757   0.76648   0.00000  Uiso   1.00
C1561  C     0.37664   0.88462   0.74525   0.00000  Uiso   1.00
C1562  C     0.09326   0.64109   0.79532   0.00000  Uiso   1.00
C1563  C     0.09911   0.58901   0.80170   0.00000  Uiso   1.00
C1564  C     0.21517   0.51199   0.72472   0.00000  Uiso   1.00
C1565  C     0.27417   0.60321   0.87122   0.00000  Uiso   1.00
C1566  C     0.18007   0.99326   0.68470   0.00000  Uiso   1.00
C1567  C     0.35966   0.96476   0.83184   0.00000  Uiso   1.00
C1568  C     0.40199   0.99394   0.84704   0.00000  Uiso   1.00
C1569  C     0.27245   0.51451   0.94900   0.00000  Uiso   1.00
C1570  C     0.30361   0.99324   0.99014   0.00000  Uiso   1.00
C1571  C     0.15507   0.97762   0.86489   0.00000  Uiso   1.00
C1572  C     0.10500   0.96939   0.86710   0.00000  Uiso   1.00
C1573  C     0.21378   0.89720   0.81259   0.00000  Uiso   1.00
C1574  C     0.22336   0.55123   0.79843   0.00000  Uiso   1.00
C1575  C     0.28797   0.94870   0.85115   0.00000  Uiso   1.00
C1576  C     0.27221   0.55405   0.87480   0.00000  Uiso   1.00
H1577  H     0.18694   0.65718   0.76513   0.00000  Uiso   1.00
H1578  H     0.14635   0.86985   0.79515   0.00000  Uiso   1.00
H1579  H     0.17203   0.89616   0.74380   0.00000  Uiso   1.00
H1580  H     0.18822   0.84036   0.76385   0.00000  Uiso   1.00
H1581  H     0.00452   0.82131   0.76496   0.00000  Uiso   1.00
H1582  H     0.06183   0.84443   0.76701   0.00000  Uiso   1.00
H1583  H     0.03747   0.92155   0.79046   0.00000  Uiso   1.00
H1584  H     0.00545   0.90160   0.73416   0.00000  Uiso   1.00
H1585  H     0.48074   0.89886   0.79289   0.00000  Uiso   1.00
H1586  H     0.01934   0.74000   0.74560   0.00000  Uiso   1.00
H1587  H     0.46274   0.74693   0.71723   0.00000  Uiso   1.00
H1588  H     0.22520   0.63278   0.72501   0.00000  Uiso   1.00
H1589  H     0.46566   0.67455   0.67149   0.00000  Uiso   1.00
H1590  H     0.01406   0.71202   0.99500   0.00000  Uiso   1.00
H1591  H     0.01996   0.66244   0.70270   0.00000  Uiso   1.00
H1592  H     0.00104   0.77571   0.93567   0.00000  Uiso   1.00
H1593  H     0.44447   0.79007   0.94710   0.00000  Uiso   1.00
H1594  H     0.47149   0.86930   0.97330   0.00000  Uiso   1.00
H1595  H     0.00212   0.82544   0.67560   0.00000  Uiso   1.00
H1596  H     0.02766   0.85644   0.95968   0.00000  Uiso   1.00
H1597  H     0.48583   0.68903   0.91298   0.00000  Uiso   1.00
H1598  H     0.04040   0.66415   0.92893   0.00000  Uiso   1.00
H1599  H     0.17305   0.60355   0.73499   0.00000  Uiso   1.00
H1600  H     0.00890   0.58702   0.89759   0.00000  Uiso   1.00
H1601  H     0.47948   0.60861   0.94772   0.00000  Uiso   1.00
H1602  H     0.45472   0.61204   0.88422   0.00000  Uiso   1.00
H1603  H     0.15541   0.79328   0.92952   0.00000  Uiso   1.00
H1604  H     0.10372   0.81895   0.94341   0.00000  Uiso   1.00
H1605  H     0.13857   0.89697   0.94182   0.00000  Uiso   1.00
H1606  H     0.17311   0.86044   0.98260   0.00000  Uiso   1.00
H1607  H     0.18941   0.87441   0.92117   0.00000  Uiso   1.00
H1608  H     0.37455   0.64027   0.83572   0.00000  Uiso   1.00
H1609  H     0.41751   0.62650   0.79547   0.00000  Uiso   1.00
H1610  H     0.34052   0.85561   0.87892   0.00000  Uiso   1.00
H1611  H     0.36028   0.60127   0.72907   0.00000  Uiso   1.00
H1612  H     0.35007   0.57115   0.78625   0.00000  Uiso   1.00
H1613  H     0.31618   0.61910   0.76523   0.00000  Uiso   1.00
H1614  H     0.36451   0.81141   0.75044   0.00000  Uiso   1.00
H1615  H     0.42305   0.82978   0.75328   0.00000  Uiso   1.00
H1616  H     0.40163   0.91213   0.75883   0.00000  Uiso   1.00
H1617  H     0.37529   0.88366   0.70393   0.00000  Uiso   1.00
H1618  H     0.34291   0.89270   0.75581   0.00000  Uiso   1.00
H1619  H     0.11245   0.65453   0.76471   0.00000  Uiso   1.00
H1620  H     0.05739   0.64603   0.78332   0.00000  Uiso   1.00
H1621  H     0.29854   0.85698   0.92287   0.00000  Uiso   1.00
H1622  H     0.07624   0.57488   0.82874   0.00000  Uiso   1.00
H1623  H     0.09120   0.57110   0.76539   0.00000  Uiso   1.00
H1624  H     0.13398   0.58212   0.81606   0.00000  Uiso   1.00
H1625  H     0.23721   0.98327   0.73724   0.00000  Uiso   1.00
H1626  H     0.23537   0.54065   0.70884   0.00000  Uiso   1.00
H1627  H     0.16237   0.52255   0.99898   0.00000  Uiso   1.00
H1628  H     0.19600   0.97288   0.99022   0.00000  Uiso   1.00
H1629  H     0.15526   0.96996   0.70167   0.00000  Uiso   1.00
H1630  H     0.34704   0.97453   0.79313   0.00000  Uiso   1.00
H1631  H     0.36879   0.92774   0.83365   0.00000  Uiso   1.00
H1632  H     0.33767   0.90384   0.91857   0.00000  Uiso   1.00
H1633  H     0.41670   0.98264   0.88429   0.00000  Uiso   1.00
H1634  H     0.42683   0.98946   0.81950   0.00000  Uiso   1.00
H1635  H     0.39433   0.53133   0.84889   0.00000  Uiso   1.00
H1636  H     0.24954   0.98630   0.93278   0.00000  Uiso   1.00
H1637  H     0.25254   0.54169   0.96462   0.00000  Uiso   1.00
H1638  H     0.31985   0.52106   0.68138   0.00000  Uiso   1.00
H1639  H     0.28481   0.96821   0.67921   0.00000  Uiso   1.00
H1640  H     0.32994   0.97381   0.97373   0.00000  Uiso   1.00
H1641  H     0.16312   0.51550   0.86911   0.00000  Uiso   1.00
H1642  H     0.17240   0.95917   0.89721   0.00000  Uiso   1.00
H1643  H     0.31158   0.66512   0.90242   0.00000  Uiso   1.00
H1644  H     0.09625   0.93154   0.86425   0.00000  Uiso   1.00
H1645  H     0.09499   0.98254   0.90296   0.00000  Uiso   1.00
H1646  H     0.08641   0.98787   0.83588   0.00000  Uiso   1.00
H1647  H     0.28860   0.62672   0.94694   0.00000  Uiso   1.00
H1648  H     0.33721   0.61263   0.91601   0.00000  Uiso   1.00
N1649  N     0.25000   0.62624   0.83333   0.00000  Uiso   1.00
N1650  N     0.25000   0.87377   0.83333   0.00000  Uiso   1.00
O1651  O     0.18453   0.78974   0.83334   0.00000  Uiso   1.00
O1652  O     0.47160   0.69317   0.77043   0.00000  Uiso   1.00
O1653  O     0.47061   0.82398   0.88668   0.00000  Uiso   1.00
O1654  O     0.01912   0.66835   0.85326   0.00000  Uiso   1.00
O1655  O     0.12181   0.82995   0.87101   0.00000  Uiso   1.00
O1656  O     0.37969   0.68377   0.77378   0.00000  Uiso   1.00
O1657  O     0.39243   0.83756   0.81951   0.00000  Uiso   1.00
O1658  O     0.10888   0.66376   0.84048   0.00000  Uiso   1.00
O1659  O     0.19314   0.52808   0.76463   0.00000  Uiso   1.00
O1660  O     0.32766   0.97310   0.86534   0.00000  Uiso   1.00
O1661  O     0.29879   0.53433   0.91335   0.00000  Uiso   1.00
O1662  O     0.31547   0.71026   0.83333   0.00000  Uiso   1.00
O1663  O     0.16692   0.96237   0.81818   0.00000  Uiso   1.00
O1664  O     0.31547   0.78974   0.83333   0.00000  Uiso   1.00
O1665  O     0.18453   0.71026   0.83334   0.00000  Uiso   1.00
O1666  O     0.25000   0.78973   0.76178   0.00000  Uiso   1.00
O1667  O     0.25000   0.71027   0.90489   0.00000  Uiso   1.00
O1668  O     0.25000   0.78973   0.90489   0.00000  Uiso   1.00
O1669  O     0.25000   0.71027   0.76178   0.00000  Uiso   1.00
O1670  O     0.03468   0.83785   0.83553   0.00000  Uiso   1.00
Zn1671 Zn    0.25000   0.80307   0.83333   0.00000  Uiso   1.00
Zn1672 Zn    0.25000   0.69693   0.83333   0.00000  Uiso   1.00
C1673  C     0.66413   0.74918   0.83643   0.00000  Uiso   1.00
C1674  C     0.70942   0.94481   0.82337   0.00000  Uiso   1.00
C1675  C     0.74968   0.75009   0.73958   0.00000  Uiso   1.00
C1676  C     0.75032   0.74992   0.92709   0.00000  Uiso   1.00
C1677  C     0.74784   0.52652   0.83715   0.00000  Uiso   1.00
C1678  C     0.74839   0.97304   0.83748   0.00000  Uiso   1.00
C1679  C     0.74987   0.75014   0.68842   0.00000  Uiso   1.00
C1680  C     0.75010   0.74987   0.97824   0.00000  Uiso   1.00
C1681  C     0.55141   0.79403   0.84349   0.00000  Uiso   1.00
C1682  C     0.95093   0.72107   0.80241   0.00000  Uiso   1.00
C1683  C     0.95131   0.79052   0.85408   0.00000  Uiso   1.00
C1684  C     0.83543   0.75084   0.82939   0.00000  Uiso   1.00
C1685  C     0.54428   0.70936   0.84909   0.00000  Uiso   1.00
C1686  C     0.59699   0.79075   0.85394   0.00000  Uiso   1.00
C1687  C     0.90444   0.71656   0.80316   0.00000  Uiso   1.00
C1688  C     0.90717   0.79452   0.83632   0.00000  Uiso   1.00
C1689  C     0.58990   0.70679   0.84270   0.00000  Uiso   1.00
C1690  C     0.61666   0.74830   0.84472   0.00000  Uiso   1.00
C1691  C     0.88279   0.75327   0.82354   0.00000  Uiso   1.00
C1692  C     0.52402   0.75293   0.84323   0.00000  Uiso   1.00
C1693  C     0.97508   0.75450   0.83424   0.00000  Uiso   1.00
C1694  C     0.70132   0.62493   0.75329   0.00000  Uiso   1.00
C1695  C     0.72514   0.60071   0.79706   0.00000  Uiso   1.00
C1696  C     0.81708   0.87739   0.89602   0.00000  Uiso   1.00
C1697  C     0.80405   0.62873   0.91104   0.00000  Uiso   1.00
C1698  C     0.67811   0.87403   0.77747   0.00000  Uiso   1.00
C1699  C     0.52939   0.84652   0.78379   0.00000  Uiso   1.00
C1700  C     0.51217   0.89521   0.77478   0.00000  Uiso   1.00
C1701  C     0.98760   0.72122   0.73209   0.00000  Uiso   1.00
C1702  C     0.99737   0.69043   0.68931   0.00000  Uiso   1.00
C1703  C     0.97681   0.80407   0.93472   0.00000  Uiso   1.00
C1704  C     0.99570   0.84125   0.97144   0.00000  Uiso   1.00
C1705  C     0.50928   0.66232   0.90297   0.00000  Uiso   1.00
C1706  C     0.78490   0.89951   0.85755   0.00000  Uiso   1.00
C1707  C     0.98667   0.61450   0.90843   0.00000  Uiso   1.00
C1708  C     0.63398   0.82386   0.92257   0.00000  Uiso   1.00
C1709  C     0.66047   0.86669   0.94318   0.00000  Uiso   1.00
C1710  C     0.88318   0.63946   0.79638   0.00000  Uiso   1.00
C1711  C     0.85043   0.60560   0.76747   0.00000  Uiso   1.00
C1712  C     0.89006   0.83757   0.76648   0.00000  Uiso   1.00
C1713  C     0.87664   0.88462   0.74525   0.00000  Uiso   1.00
C1714  C     0.59326   0.64109   0.79532   0.00000  Uiso   1.00
C1715  C     0.59911   0.58901   0.80170   0.00000  Uiso   1.00
C1716  C     0.71517   0.51199   0.72472   0.00000  Uiso   1.00
C1717  C     0.77417   0.60321   0.87122   0.00000  Uiso   1.00
C1718  C     0.68007   0.99326   0.68470   0.00000  Uiso   1.00
C1719  C     0.85966   0.96476   0.83184   0.00000  Uiso   1.00
C1720  C     0.90199   0.99394   0.84704   0.00000  Uiso   1.00
C1721  C     0.77245   0.51451   0.94900   0.00000  Uiso   1.00
C1722  C     0.80361   0.99324   0.99014   0.00000  Uiso   1.00
C1723  C     0.65507   0.97762   0.86489   0.00000  Uiso   1.00
C1724  C     0.60500   0.96939   0.86710   0.00000  Uiso   1.00
C1725  C     0.71378   0.89720   0.81259   0.00000  Uiso   1.00
C1726  C     0.72336   0.55123   0.79843   0.00000  Uiso   1.00
C1727  C     0.78797   0.94870   0.85115   0.00000  Uiso   1.00
C1728  C     0.77221   0.55405   0.87480   0.00000  Uiso   1.00
H1729  H     0.68694   0.65718   0.76513   0.00000  Uiso   1.00
H1730  H     0.64635   0.86985   0.79515   0.00000  Uiso   1.00
H1731  H     0.67203   0.89616   0.74380   0.00000  Uiso   1.00
H1732  H     0.68822   0.84036   0.76385   0.00000  Uiso   1.00
H1733  H     0.50452   0.82131   0.76496   0.00000  Uiso   1.00
H1734  H     0.56183   0.84443   0.76701   0.00000  Uiso   1.00
H1735  H     0.53747   0.92155   0.79046   0.00000  Uiso   1.00
H1736  H     0.50545   0.90160   0.73416   0.00000  Uiso   1.00
H1737  H     0.98074   0.89886   0.79289   0.00000  Uiso   1.00
H1738  H     0.51934   0.74000   0.74560   0.00000  Uiso   1.00
H1739  H     0.96274   0.74693   0.71723   0.00000  Uiso   1.00
H1740  H     0.72520   0.63278   0.72501   0.00000  Uiso   1.00
H1741  H     0.96566   0.67455   0.67149   0.00000  Uiso   1.00
H1742  H     0.51406   0.71202   0.99500   0.00000  Uiso   1.00
H1743  H     0.51996   0.66244   0.70270   0.00000  Uiso   1.00
H1744  H     0.50104   0.77571   0.93567   0.00000  Uiso   1.00
H1745  H     0.94447   0.79007   0.94710   0.00000  Uiso   1.00
H1746  H     0.97149   0.86930   0.97330   0.00000  Uiso   1.00
H1747  H     0.50212   0.82544   0.67560   0.00000  Uiso   1.00
H1748  H     0.52766   0.85644   0.95968   0.00000  Uiso   1.00
H1749  H     0.98583   0.68903   0.91298   0.00000  Uiso   1.00
H1750  H     0.54040   0.66415   0.92893   0.00000  Uiso   1.00
H1751  H     0.67305   0.60355   0.73499   0.00000  Uiso   1.00
H1752  H     0.50890   0.58702   0.89759   0.00000  Uiso   1.00
H1753  H     0.97948   0.60861   0.94772   0.00000  Uiso   1.00
H1754  H     0.95472   0.61204   0.88422   0.00000  Uiso   1.00
H1755  H     0.65541   0.79328   0.92952   0.00000  Uiso   1.00
H1756  H     0.60372   0.81895   0.94341   0.00000  Uiso   1.00
H1757  H     0.63857   0.89697   0.94182   0.00000  Uiso   1.00
H1758  H     0.67311   0.86044   0.98260   0.00000  Uiso   1.00
H1759  H     0.68941   0.87441   0.92117   0.00000  Uiso   1.00
H1760  H     0.87455   0.64027   0.83572   0.00000  Uiso   1.00
H1761  H     0.91751   0.62650   0.79547   0.00000  Uiso   1.00
H1762  H     0.84052   0.85561   0.87892   0.00000  Uiso   1.00
H1763  H     0.86028   0.60127   0.72907   0.00000  Uiso   1.00
H1764  H     0.85007   0.57115   0.78625   0.00000  Uiso   1.00
H1765  H     0.81618   0.61910   0.76523   0.00000  Uiso   1.00
H1766  H     0.86451   0.81141   0.75044   0.00000  Uiso   1.00
H1767  H     0.92305   0.82978   0.75328   0.00000  Uiso   1.00
H1768  H     0.90163   0.91213   0.75883   0.00000  Uiso   1.00
H1769  H     0.87529   0.88366   0.70393   0.00000  Uiso   1.00
H1770  H     0.84291   0.89270   0.75581   0.00000  Uiso   1.00
H1771  H     0.61245   0.65453   0.76471   0.00000  Uiso   1.00
H1772  H     0.55739   0.64603   0.78332   0.00000  Uiso   1.00
H1773  H     0.79854   0.85698   0.92287   0.00000  Uiso   1.00
H1774  H     0.57624   0.57488   0.82874   0.00000  Uiso   1.00
H1775  H     0.59120   0.57110   0.76539   0.00000  Uiso   1.00
H1776  H     0.63398   0.58212   0.81606   0.00000  Uiso   1.00
H1777  H     0.73721   0.98327   0.73724   0.00000  Uiso   1.00
H1778  H     0.73537   0.54065   0.70884   0.00000  Uiso   1.00
H1779  H     0.66237   0.52255   0.99898   0.00000  Uiso   1.00
H1780  H     0.69600   0.97288   0.99022   0.00000  Uiso   1.00
H1781  H     0.65526   0.96996   0.70167   0.00000  Uiso   1.00
H1782  H     0.84704   0.97453   0.79313   0.00000  Uiso   1.00
H1783  H     0.86879   0.92774   0.83365   0.00000  Uiso   1.00
H1784  H     0.83767   0.90384   0.91857   0.00000  Uiso   1.00
H1785  H     0.91670   0.98264   0.88429   0.00000  Uiso   1.00
H1786  H     0.92683   0.98946   0.81950   0.00000  Uiso   1.00
H1787  H     0.89433   0.53133   0.84889   0.00000  Uiso   1.00
H1788  H     0.74954   0.98630   0.93278   0.00000  Uiso   1.00
H1789  H     0.75254   0.54169   0.96462   0.00000  Uiso   1.00
H1790  H     0.81985   0.52106   0.68138   0.00000  Uiso   1.00
H1791  H     0.78481   0.96821   0.67921   0.00000  Uiso   1.00
H1792  H     0.82994   0.97381   0.97373   0.00000  Uiso   1.00
H1793  H     0.66312   0.51550   0.86911   0.00000  Uiso   1.00
H1794  H     0.67240   0.95917   0.89721   0.00000  Uiso   1.00
H1795  H     0.81158   0.66512   0.90242   0.00000  Uiso   1.00
H1796  H     0.59625   0.93154   0.86425   0.00000  Uiso   1.00
H1797  H     0.59499   0.98254   0.90296   0.00000  Uiso   1.00
H1798  H     0.58641   0.98787   0.83588   0.00000  Uiso   1.00
H1799  H     0.78860   0.62672   0.94694   0.00000  Uiso   1.00
H1800  H     0.83721   0.61263   0.91601   0.00000  Uiso   1.00
N1801  N     0.75000   0.62624   0.83333   0.00000  Uiso   1.00
N1802  N     0.75000   0.87377   0.83333   0.00000  Uiso   1.00
O1803  O     0.68453   0.78974   0.83334   0.00000  Uiso   1.00
O1804  O     0.97160   0.69317   0.77043   0.00000  Uiso   1.00
O1805  O     0.97061   0.82398   0.88668   0.00000  Uiso   1.00
O1806  O     0.51912   0.66835   0.85326   0.00000  Uiso   1.00
O1807  O     0.62181   0.82995   0.87101   0.00000  Uiso   1.00
O1808  O     0.87969   0.68377   0.77378   0.00000  Uiso   1.00
O1809  O     0.89243   0.83756   0.81951   0.00000  Uiso   1.00
O1810  O     0.60888   0.66376   0.84048   0.00000  Uiso   1.00
O1811  O     0.69314   0.52808   0.76463   0.00000  Uiso   1.00
O1812  O     0.82766   0.97310   0.86534   0.00000  Uiso   1.00
O1813  O     0.79879   0.53433   0.91335   0.00000  Uiso   1.00
O1814  O     0.81547   0.71026   0.83333   0.00000  Uiso   1.00
O1815  O     0.66692   0.96237   0.81818   0.00000  Uiso   1.00
O1816  O     0.81547   0.78974   0.83333   0.00000  Uiso   1.00
O1817  O     0.68453   0.71026   0.83334   0.00000  Uiso   1.00
O1818  O     0.75000   0.78973   0.76178   0.00000  Uiso   1.00
O1819  O     0.75000   0.71027   0.90489   0.00000  Uiso   1.00
O1820  O     0.75000   0.78973   0.90489   0.00000  Uiso   1.00
O1821  O     0.75000   0.71027   0.76178   0.00000  Uiso   1.00
O1822  O     0.53468   0.83785   0.83553   0.00000  Uiso   1.00
Zn1823 Zn    0.75000   0.80307   0.83333   0.00000  Uiso   1.00
Zn1824 Zn    0.75000   0.69693   0.83333   0.00000  Uiso   1.00
loop_
_geom_bond_atom_site_label_1
_geom_bond_atom_site_label_2
_geom_bond_distance
_geom_bond_site_symmetry_2
_ccdc_geom_bond_type
C1     O145    1.302   .     A
C1     C18     1.463   .     S
C1     O131    1.302   .     A
C2     O143    1.386   .     S
C2     C6      1.422   .     A
C2     C53     1.414   .     A
C3     C7      1.379   .     S
C3     O149    1.287   .     A
C3     O146    1.289   .     A
C4     C8      1.379   .     S
C4     O148    1.287   .     A
C4     O147    1.289   .     A
C5     C56     1.422   .     A
C5     C54     1.422   .     A
C5     C310    1.537   1_545 S
C6     C55     1.421   .     A
C6     C309    1.537   .     S
C7     C1224   1.173   1_554 S
C8     C615    1.173   .     S
C9     O150    1.382   .     S
C9     C14     1.379   .     A
C9     C20     1.413   .     A
C10    C15     1.400   .     A
C10    O132    1.384   .     S
C10    C21     1.424   .     A
C11    O133    1.381   .     S
C11    C21     1.415   .     A
C11    C16     1.377   .     A
C12    C19     1.445   .     S
C12    O142    1.299   .     A
C12    O144    1.298   .     A
C13    O134    1.385   .     S
C13    C20     1.414   .     A
C13    C17     1.401   .     A
C14    C18     1.409   .     A
C14    O135    1.384   .     S
C15    C19     1.401   .     A
C15    O136    1.384   .     S
C16    O137    1.389   .     S
C16    C19     1.397   .     A
C17    O138    1.385   .     S
C17    C18     1.411   .     A
C20    C173    1.470   1_455 S
C21    C172    1.470   .     S
C22    H57     1.099   .     S
C22    H79     1.109   .     S
C22    C23     1.503   .     S
C22    H68     1.110   .     S
C23    N129    1.373   .     A
C23    C54     1.421   .     A
C24    H112    1.109   .     S
C24    H101    1.105   .     S
C24    C34     1.506   .     S
C24    H90     1.094   .     S
C25    H128    1.111   .     S
C25    H123    1.089   .     S
C25    C45     1.510   .     S
C25    H127    1.110   .     S
C26    C53     1.502   .     S
C26    H59     1.110   .     S
C26    H58     1.107   .     S
C26    H60     1.100   .     S
C27    H61     1.111   .     S
C27    H62     1.115   .     S
C27    O150    1.410   .     S
C27    C28     1.520   .     S
C28    H64     1.110   .     S
C28    H63     1.109   .     S
C28    H217    1.110   1_455 S
C29    H67     1.117   .     S
C29    C30     1.514   .     S
C29    O132    1.413   .     S
C29    H218    1.110   .     S
C30    H69     1.110   .     S
C30    H1438   1.108   1_554 S
C30    H223    1.109   .     S
C31    H73     1.115   .     S
C31    O133    1.411   .     S
C31    C32     1.519   .     S
C31    H224    1.112   .     S
C32    H74     1.111   .     S
C32    H835    1.109   .     S
C32    H228    1.111   .     S
C33    H78     1.115   .     S
C33    O134    1.406   .     S
C33    C187    1.521   1_455 S
C33    H229    1.112   1_455 S
C34    C55     1.423   .     A
C34    N130    1.376   .     A
C35    H81     1.110   .     S
C35    H82     1.110   .     S
C35    C185    1.521   .     S
C35    H232    1.111   .     S
C36    C37     1.520   .     S
C36    H83     1.114   .     S
C36    O135    1.415   .     S
C36    H84     1.115   .     S
C37    H85     1.109   .     S
C37    H86     1.111   .     S
C37    H87     1.111   .     S
C38    H89     1.112   .     S
C38    C39     1.523   .     S
C38    O136    1.411   .     S
C38    H88     1.114   .     S
C39    H93     1.110   .     S
C39    H91     1.111   .     S
C39    H92     1.109   .     S
C40    O137    1.424   .     S
C40    H95     1.114   .     S
C40    C41     1.519   .     S
C40    H94     1.114   .     S
C41    H96     1.109   .     S
C41    H97     1.111   .     S
C41    H98     1.110   .     S
C42    O138    1.417   .     S
C42    H100    1.111   .     S
C42    C43     1.520   .     S
C42    H99     1.108   .     S
C43    H104    1.108   .     S
C43    H102    1.111   .     S
C43    H103    1.110   .     S
C44    O139    1.403   .     S
C44    H106    1.111   .     S
C44    C350    1.523   1_545 S
C44    H409    1.109   1_545 S
C45    N129    1.378   .     A
C45    C56     1.415   .     A
C46    H109    1.110   .     S
C46    C348    1.523   .     S
C46    H1627   1.111   1_554 S
C46    H1324   1.107   1_554 S
C47    C48     1.522   .     S
C47    O140    1.405   .     S
C47    H110    1.115   .     S
C47    H111    1.108   .     S
C48    H114    1.111   .     S
C48    H113    1.111   .     S
C48    H419    1.110   .     S
C49    H117    1.110   .     S
C49    O141    1.403   .     S
C49    C354    1.524   1_545 S
C49    H420    1.109   1_545 S
C50    H120    1.111   .     S
C50    C353    1.524   .     S
C50    H1030   1.111   .     S
C50    H727    1.107   .     S
C51    C52     1.520   .     S
C51    O143    1.415   .     S
C51    H122    1.115   .     S
C51    H425    1.110   .     S
C52    H126    1.110   .     S
C52    H125    1.110   .     S
C52    H124    1.111   .     S
C53    N130    1.375   .     A
C54    O139    1.381   .     S
C55    O140    1.384   .     S
C56    O141    1.383   .     S
H65    C180    1.110   .     S
H66    C181    1.110   1_455 S
H70    C790    1.108   1_455 S
H71    C182    1.109   1_455 S
H72    C183    1.112   1_455 S
H75    C1400   1.109   1_454 S
H76    C184    1.111   1_455 S
H77    C185    1.112   .     S
H80    C187    1.111   1_455 S
H105   C348    1.109   .     S
H107   C958    1.111   1_545 S
H108   C654    1.107   .     S
H115   C352    1.110   1_545 S
H116   C353    1.109   .     S
H118   C1570   1.111   1_544 S
H119   C1266   1.107   1_554 S
H121   C355    1.110   1_545 S
N129   Zn152   2.031   .     S
N130   Zn151   2.031   .     S
O131   Zn151   1.989   .     S
O142   Zn152   1.989   .     S
O144   Zn151   2.018   .     S
O145   Zn152   2.018   .     S
O146   Zn151   1.968   .     S
O147   Zn152   1.968   .     S
O148   Zn151   1.963   .     S
O149   Zn152   1.963   .     S
C153   O297    1.302   .     A
C153   C170    1.463   .     S
C153   O283    1.302   .     A
C154   O295    1.386   .     S
C154   C158    1.422   .     A
C154   C205    1.414   .     A
C155   C159    1.379   .     S
C155   O301    1.287   .     A
C155   O298    1.289   .     A
C156   C160    1.379   .     S
C156   O300    1.287   .     A
C156   O299    1.289   .     A
C157   C208    1.422   .     A
C157   C206    1.422   .     A
C157   C462    1.537   1_545 S
C158   C207    1.421   .     A
C158   C461    1.537   .     S
C159   C1376   1.173   1_554 S
C160   C767    1.173   .     S
C161   O302    1.382   .     S
C161   C166    1.379   .     A
C161   C172    1.413   .     A
C162   C167    1.400   .     A
C162   O284    1.384   .     S
C162   C173    1.424   .     A
C163   O285    1.381   .     S
C163   C173    1.415   .     A
C163   C168    1.377   .     A
C164   C171    1.445   .     S
C164   O294    1.299   .     A
C164   O296    1.298   .     A
C165   O286    1.385   .     S
C165   C172    1.414   .     A
C165   C169    1.401   .     A
C166   C170    1.409   .     A
C166   O287    1.384   .     S
C167   C171    1.401   .     A
C167   O288    1.384   .     S
C168   O289    1.389   .     S
C168   C171    1.397   .     A
C169   O290    1.385   .     S
C169   C170    1.411   .     A
C173   C20     1.470   1_655 S
C174   H209    1.099   .     S
C174   H231    1.109   .     S
C174   C175    1.503   .     S
C174   H220    1.110   .     S
C175   N281    1.373   .     A
C175   C206    1.421   .     A
C176   H264    1.109   .     S
C176   H253    1.105   .     S
C176   C186    1.506   .     S
C176   H242    1.094   .     S
C177   H280    1.111   .     S
C177   H275    1.089   .     S
C177   C197    1.510   .     S
C177   H279    1.110   .     S
C178   C205    1.502   .     S
C178   H211    1.110   .     S
C178   H210    1.107   .     S
C178   H212    1.100   .     S
C179   H213    1.111   .     S
C179   H214    1.115   .     S
C179   O302    1.410   .     S
C179   C180    1.520   .     S
C180   H216    1.110   .     S
C180   H215    1.109   .     S
C181   H219    1.117   .     S
C181   C182    1.514   .     S
C181   O284    1.413   .     S
C181   H66     1.110   1_655 S
C182   H221    1.110   .     S
C182   H1286   1.108   1_654 S
C182   H71     1.109   1_655 S
C183   H225    1.115   .     S
C183   O285    1.411   .     S
C183   C184    1.519   .     S
C183   H72     1.112   1_655 S
C184   H226    1.111   .     S
C184   H683    1.109   1_655 S
C184   H76     1.111   1_655 S
C185   H230    1.115   .     S
C185   O286    1.406   .     S
C186   C207    1.423   .     A
C186   N282    1.376   .     A
C187   H233    1.110   .     S
C187   H234    1.110   .     S
C187   C33     1.521   1_655 S
C187   H80     1.111   1_655 S
C188   C189    1.520   .     S
C188   H235    1.114   .     S
C188   O287    1.415   .     S
C188   H236    1.115   .     S
C189   H237    1.109   .     S
C189   H238    1.111   .     S
C189   H239    1.111   .     S
C190   H241    1.112   .     S
C190   C191    1.523   .     S
C190   O288    1.411   .     S
C190   H240    1.114   .     S
C191   H245    1.110   .     S
C191   H243    1.111   .     S
C191   H244    1.109   .     S
C192   O289    1.424   .     S
C192   H247    1.114   .     S
C192   C193    1.519   .     S
C192   H246    1.114   .     S
C193   H248    1.109   .     S
C193   H249    1.111   .     S
C193   H250    1.110   .     S
C194   O290    1.417   .     S
C194   H252    1.111   .     S
C194   C195    1.520   .     S
C194   H251    1.108   .     S
C195   H256    1.108   .     S
C195   H254    1.111   .     S
C195   H255    1.110   .     S
C196   O291    1.403   .     S
C196   H258    1.111   .     S
C196   C502    1.523   1_545 S
C196   H561    1.109   1_545 S
C197   N281    1.378   .     A
C197   C208    1.415   .     A
C198   H261    1.110   .     S
C198   C500    1.523   .     S
C198   H1779   1.111   1_554 S
C198   H1476   1.107   1_554 S
C199   C200    1.522   .     S
C199   O292    1.405   .     S
C199   H262    1.115   .     S
C199   H263    1.108   .     S
C200   H266    1.111   .     S
C200   H265    1.111   .     S
C200   H571    1.110   .     S
C201   H269    1.110   .     S
C201   O293    1.403   .     S
C201   C506    1.524   1_545 S
C201   H572    1.109   1_545 S
C202   H272    1.111   .     S
C202   C505    1.524   .     S
C202   H1182   1.111   .     S
C202   H879    1.107   .     S
C203   C204    1.520   .     S
C203   O295    1.415   .     S
C203   H274    1.115   .     S
C203   H577    1.110   .     S
C204   H278    1.110   .     S
C204   H277    1.110   .     S
C204   H276    1.111   .     S
C205   N282    1.375   .     A
C206   O291    1.381   .     S
C207   O292    1.384   .     S
C208   O293    1.383   .     S
H217   C28     1.110   1_655 S
H222   C638    1.108   .     S
H227   C1248   1.109   1_554 S
H229   C33     1.112   1_655 S
H257   C500    1.109   .     S
H259   C1110   1.111   1_545 S
H260   C806    1.107   .     S
H267   C504    1.110   1_545 S
H268   C505    1.109   .     S
H270   C1722   1.111   1_544 S
H271   C1418   1.107   1_554 S
H273   C507    1.110   1_545 S
N281   Zn304   2.031   .     S
N282   Zn303   2.031   .     S
O283   Zn303   1.989   .     S
O294   Zn304   1.989   .     S
O296   Zn303   2.018   .     S
O297   Zn304   2.018   .     S
O298   Zn303   1.968   .     S
O299   Zn304   1.968   .     S
O300   Zn303   1.963   .     S
O301   Zn304   1.963   .     S
C305   O449    1.302   .     A
C305   C322    1.463   .     S
C305   O435    1.302   .     A
C306   O447    1.386   .     S
C306   C310    1.422   .     A
C306   C357    1.414   .     A
C307   C311    1.379   .     S
C307   O453    1.287   .     A
C307   O450    1.289   .     A
C308   C312    1.379   .     S
C308   O452    1.287   .     A
C308   O451    1.289   .     A
C309   C360    1.422   .     A
C309   C358    1.422   .     A
C310   C359    1.421   .     A
C310   C5      1.537   1_565 S
C311   C1528   1.173   1_554 S
C312   C919    1.173   .     S
C313   O454    1.382   .     S
C313   C318    1.379   .     A
C313   C324    1.413   .     A
C314   C319    1.400   .     A
C314   O436    1.384   .     S
C314   C325    1.424   .     A
C315   O437    1.381   .     S
C315   C325    1.415   .     A
C315   C320    1.377   .     A
C316   C323    1.445   .     S
C316   O446    1.299   .     A
C316   O448    1.298   .     A
C317   O438    1.385   .     S
C317   C324    1.414   .     A
C317   C321    1.401   .     A
C318   C322    1.409   .     A
C318   O439    1.384   .     S
C319   C323    1.401   .     A
C319   O440    1.384   .     S
C320   O441    1.389   .     S
C320   C323    1.397   .     A
C321   O442    1.385   .     S
C321   C322    1.411   .     A
C324   C477    1.470   1_455 S
C325   C476    1.470   .     S
C326   H361    1.099   .     S
C326   H383    1.109   .     S
C326   C327    1.503   .     S
C326   H372    1.110   .     S
C327   N433    1.373   .     A
C327   C358    1.421   .     A
C328   H416    1.109   .     S
C328   H405    1.105   .     S
C328   C338    1.506   .     S
C328   H394    1.094   .     S
C329   H432    1.111   .     S
C329   H427    1.089   .     S
C329   C349    1.510   .     S
C329   H431    1.110   .     S
C330   C357    1.502   .     S
C330   H363    1.110   .     S
C330   H362    1.107   .     S
C330   H364    1.100   .     S
C331   H365    1.111   .     S
C331   H366    1.115   .     S
C331   O454    1.410   .     S
C331   C332    1.520   .     S
C332   H368    1.110   .     S
C332   H367    1.109   .     S
C332   H521    1.110   1_455 S
C333   H371    1.117   .     S
C333   C334    1.514   .     S
C333   O436    1.413   .     S
C333   H522    1.110   .     S
C334   H373    1.110   .     S
C334   H1742   1.108   1_554 S
C334   H527    1.109   .     S
C335   H377    1.115   .     S
C335   O437    1.411   .     S
C335   C336    1.519   .     S
C335   H528    1.112   .     S
C336   H378    1.111   .     S
C336   H1139   1.109   .     S
C336   H532    1.111   .     S
C337   H382    1.115   .     S
C337   O438    1.406   .     S
C337   C491    1.521   1_455 S
C337   H533    1.112   1_455 S
C338   C359    1.423   .     A
C338   N434    1.376   .     A
C339   H385    1.110   .     S
C339   H386    1.110   .     S
C339   C489    1.521   .     S
C339   H536    1.111   .     S
C340   C341    1.520   .     S
C340   H387    1.114   .     S
C340   O439    1.415   .     S
C340   H388    1.115   .     S
C341   H389    1.109   .     S
C341   H390    1.111   .     S
C341   H391    1.111   .     S
C342   H393    1.112   .     S
C342   C343    1.523   .     S
C342   O440    1.411   .     S
C342   H392    1.114   .     S
C343   H397    1.110   .     S
C343   H395    1.111   .     S
C343   H396    1.109   .     S
C344   O441    1.424   .     S
C344   H399    1.114   .     S
C344   C345    1.519   .     S
C344   H398    1.114   .     S
C345   H400    1.109   .     S
C345   H401    1.111   .     S
C345   H402    1.110   .     S
C346   O442    1.417   .     S
C346   H404    1.111   .     S
C346   C347    1.520   .     S
C346   H403    1.108   .     S
C347   H408    1.108   .     S
C347   H406    1.111   .     S
C347   H407    1.110   .     S
C348   O443    1.403   .     S
C348   H410    1.111   .     S
C349   N433    1.378   .     A
C349   C360    1.415   .     A
C350   H413    1.110   .     S
C350   C44     1.523   1_565 S
C350   H1323   1.111   1_564 S
C350   H1628   1.107   1_554 S
C351   C352    1.522   .     S
C351   O444    1.405   .     S
C351   H414    1.115   .     S
C351   H415    1.108   .     S
C352   H418    1.111   .     S
C352   H417    1.111   .     S
C352   H115    1.110   1_565 S
C353   H421    1.110   .     S
C353   O445    1.403   .     S
C354   H424    1.111   .     S
C354   C49     1.524   1_565 S
C354   H726    1.111   1_565 S
C354   H1031   1.107   .     S
C355   C356    1.520   .     S
C355   O447    1.415   .     S
C355   H426    1.115   .     S
C355   H121    1.110   1_565 S
C356   H430    1.110   .     S
C356   H429    1.110   .     S
C356   H428    1.111   .     S
C357   N434    1.375   .     A
C358   O443    1.381   .     S
C359   O444    1.384   .     S
C360   O445    1.383   .     S
H369   C484    1.110   .     S
H370   C485    1.110   1_455 S
H374   C1094   1.108   1_455 S
H375   C486    1.109   1_455 S
H376   C487    1.112   1_455 S
H379   C1704   1.109   1_454 S
H380   C488    1.111   1_455 S
H381   C489    1.112   .     S
H384   C491    1.111   1_455 S
H409   C44     1.109   1_565 S
H411   C654    1.111   .     S
H412   C958    1.107   .     S
H420   C49     1.109   1_565 S
H422   C1266   1.111   1_554 S
H423   C1570   1.107   1_554 S
N433   Zn456   2.031   .     S
N434   Zn455   2.031   .     S
O435   Zn455   1.989   .     S
O446   Zn456   1.989   .     S
O448   Zn455   2.018   .     S
O449   Zn456   2.018   .     S
O450   Zn455   1.968   .     S
O451   Zn456   1.968   .     S
O452   Zn455   1.963   .     S
O453   Zn456   1.963   .     S
C457   O601    1.302   .     A
C457   C474    1.463   .     S
C457   O587    1.302   .     A
C458   O599    1.386   .     S
C458   C462    1.422   .     A
C458   C509    1.414   .     A
C459   C463    1.379   .     S
C459   O605    1.287   .     A
C459   O602    1.289   .     A
C460   C464    1.379   .     S
C460   O604    1.287   .     A
C460   O603    1.289   .     A
C461   C512    1.422   .     A
C461   C510    1.422   .     A
C462   C511    1.421   .     A
C462   C157    1.537   1_565 S
C463   C1680   1.173   1_554 S
C464   C1071   1.173   .     S
C465   O606    1.382   .     S
C465   C470    1.379   .     A
C465   C476    1.413   .     A
C466   C471    1.400   .     A
C466   O588    1.384   .     S
C466   C477    1.424   .     A
C467   O589    1.381   .     S
C467   C477    1.415   .     A
C467   C472    1.377   .     A
C468   C475    1.445   .     S
C468   O598    1.299   .     A
C468   O600    1.298   .     A
C469   O590    1.385   .     S
C469   C476    1.414   .     A
C469   C473    1.401   .     A
C470   C474    1.409   .     A
C470   O591    1.384   .     S
C471   C475    1.401   .     A
C471   O592    1.384   .     S
C472   O593    1.389   .     S
C472   C475    1.397   .     A
C473   O594    1.385   .     S
C473   C474    1.411   .     A
C477   C324    1.470   1_655 S
C478   H513    1.099   .     S
C478   H535    1.109   .     S
C478   C479    1.503   .     S
C478   H524    1.110   .     S
C479   N585    1.373   .     A
C479   C510    1.421   .     A
C480   H568    1.109   .     S
C480   H557    1.105   .     S
C480   C490    1.506   .     S
C480   H546    1.094   .     S
C481   H584    1.111   .     S
C481   H579    1.089   .     S
C481   C501    1.510   .     S
C481   H583    1.110   .     S
C482   C509    1.502   .     S
C482   H515    1.110   .     S
C482   H514    1.107   .     S
C482   H516    1.100   .     S
C483   H517    1.111   .     S
C483   H518    1.115   .     S
C483   O606    1.410   .     S
C483   C484    1.520   .     S
C484   H520    1.110   .     S
C484   H519    1.109   .     S
C485   H523    1.117   .     S
C485   C486    1.514   .     S
C485   O588    1.413   .     S
C485   H370    1.110   1_655 S
C486   H525    1.110   .     S
C486   H1590   1.108   1_654 S
C486   H375    1.109   1_655 S
C487   H529    1.115   .     S
C487   O589    1.411   .     S
C487   C488    1.519   .     S
C487   H376    1.112   1_655 S
C488   H530    1.111   .     S
C488   H987    1.109   1_655 S
C488   H380    1.111   1_655 S
C489   H534    1.115   .     S
C489   O590    1.406   .     S
C490   C511    1.423   .     A
C490   N586    1.376   .     A
C491   H537    1.110   .     S
C491   H538    1.110   .     S
C491   C337    1.521   1_655 S
C491   H384    1.111   1_655 S
C492   C493    1.520   .     S
C492   H539    1.114   .     S
C492   O591    1.415   .     S
C492   H540    1.115   .     S
C493   H541    1.109   .     S
C493   H542    1.111   .     S
C493   H543    1.111   .     S
C494   H545    1.112   .     S
C494   C495    1.523   .     S
C494   O592    1.411   .     S
C494   H544    1.114   .     S
C495   H549    1.110   .     S
C495   H547    1.111   .     S
C495   H548    1.109   .     S
C496   O593    1.424   .     S
C496   H551    1.114   .     S
C496   C497    1.519   .     S
C496   H550    1.114   .     S
C497   H552    1.109   .     S
C497   H553    1.111   .     S
C497   H554    1.110   .     S
C498   O594    1.417   .     S
C498   H556    1.111   .     S
C498   C499    1.520   .     S
C498   H555    1.108   .     S
C499   H560    1.108   .     S
C499   H558    1.111   .     S
C499   H559    1.110   .     S
C500   O595    1.403   .     S
C500   H562    1.111   .     S
C501   N585    1.378   .     A
C501   C512    1.415   .     A
C502   H565    1.110   .     S
C502   C196    1.523   1_565 S
C502   H1475   1.111   1_564 S
C502   H1780   1.107   1_554 S
C503   C504    1.522   .     S
C503   O596    1.405   .     S
C503   H566    1.115   .     S
C503   H567    1.108   .     S
C504   H570    1.111   .     S
C504   H569    1.111   .     S
C504   H267    1.110   1_565 S
C505   H573    1.110   .     S
C505   O597    1.403   .     S
C506   H576    1.111   .     S
C506   C201    1.524   1_565 S
C506   H878    1.111   1_565 S
C506   H1183   1.107   .     S
C507   C508    1.520   .     S
C507   O599    1.415   .     S
C507   H578    1.115   .     S
C507   H273    1.110   1_565 S
C508   H582    1.110   .     S
C508   H581    1.110   .     S
C508   H580    1.111   .     S
C509   N586    1.375   .     A
C510   O595    1.381   .     S
C511   O596    1.384   .     S
C512   O597    1.383   .     S
H521   C332    1.110   1_655 S
H526   C942    1.108   .     S
H531   C1552   1.109   1_554 S
H533   C337    1.112   1_655 S
H561   C196    1.109   1_565 S
H563   C806    1.111   .     S
H564   C1110   1.107   .     S
H572   C201    1.109   1_565 S
H574   C1418   1.111   1_554 S
H575   C1722   1.107   1_554 S
N585   Zn608   2.031   .     S
N586   Zn607   2.031   .     S
O587   Zn607   1.989   .     S
O598   Zn608   1.989   .     S
O600   Zn607   2.018   .     S
O601   Zn608   2.018   .     S
O602   Zn607   1.968   .     S
O603   Zn608   1.968   .     S
O604   Zn607   1.963   .     S
O605   Zn608   1.963   .     S
C609   O753    1.302   .     A
C609   C626    1.463   .     S
C609   O739    1.302   .     A
C610   O751    1.386   .     S
C610   C614    1.422   .     A
C610   C661    1.414   .     A
C611   C615    1.379   .     S
C611   O757    1.287   .     A
C611   O754    1.289   .     A
C612   C616    1.379   .     S
C612   O756    1.287   .     A
C612   O755    1.289   .     A
C613   C664    1.422   .     A
C613   C662    1.422   .     A
C613   C918    1.537   1_545 S
C614   C663    1.421   .     A
C614   C917    1.537   .     S
C616   C1223   1.173   .     S
C617   O758    1.382   .     S
C617   C622    1.379   .     A
C617   C628    1.413   .     A
C618   C623    1.400   .     A
C618   O740    1.384   .     S
C618   C629    1.424   .     A
C619   O741    1.381   .     S
C619   C629    1.415   .     A
C619   C624    1.377   .     A
C620   C627    1.445   .     S
C620   O750    1.299   .     A
C620   O752    1.298   .     A
C621   O742    1.385   .     S
C621   C628    1.414   .     A
C621   C625    1.401   .     A
C622   C626    1.409   .     A
C622   O743    1.384   .     S
C623   C627    1.401   .     A
C623   O744    1.384   .     S
C624   O745    1.389   .     S
C624   C627    1.397   .     A
C625   O746    1.385   .     S
C625   C626    1.411   .     A
C628   C781    1.470   1_455 S
C629   C780    1.470   .     S
C630   H665    1.099   .     S
C630   H687    1.109   .     S
C630   C631    1.503   .     S
C630   H676    1.110   .     S
C631   N737    1.373   .     A
C631   C662    1.421   .     A
C632   H720    1.109   .     S
C632   H709    1.105   .     S
C632   C642    1.506   .     S
C632   H698    1.094   .     S
C633   H736    1.111   .     S
C633   H731    1.089   .     S
C633   C653    1.510   .     S
C633   H735    1.110   .     S
C634   C661    1.502   .     S
C634   H667    1.110   .     S
C634   H666    1.107   .     S
C634   H668    1.100   .     S
C635   H669    1.111   .     S
C635   H670    1.115   .     S
C635   O758    1.410   .     S
C635   C636    1.520   .     S
C636   H672    1.110   .     S
C636   H671    1.109   .     S
C636   H825    1.110   1_455 S
C637   H675    1.117   .     S
C637   C638    1.514   .     S
C637   O740    1.413   .     S
C637   H826    1.110   .     S
C638   H677    1.110   .     S
C638   H831    1.109   .     S
C639   H681    1.115   .     S
C639   O741    1.411   .     S
C639   C640    1.519   .     S
C639   H832    1.112   .     S
C640   H682    1.111   .     S
C640   H1443   1.109   .     S
C640   H836    1.111   .     S
C641   H686    1.115   .     S
C641   O742    1.406   .     S
C641   C795    1.521   1_455 S
C641   H837    1.112   1_455 S
C642   C663    1.423   .     A
C642   N738    1.376   .     A
C643   H689    1.110   .     S
C643   H690    1.110   .     S
C643   C793    1.521   .     S
C643   H840    1.111   .     S
C644   C645    1.520   .     S
C644   H691    1.114   .     S
C644   O743    1.415   .     S
C644   H692    1.115   .     S
C645   H693    1.109   .     S
C645   H694    1.111   .     S
C645   H695    1.111   .     S
C646   H697    1.112   .     S
C646   C647    1.523   .     S
C646   O744    1.411   .     S
C646   H696    1.114   .     S
C647   H701    1.110   .     S
C647   H699    1.111   .     S
C647   H700    1.109   .     S
C648   O745    1.424   .     S
C648   H703    1.114   .     S
C648   C649    1.519   .     S
C648   H702    1.114   .     S
C649   H704    1.109   .     S
C649   H705    1.111   .     S
C649   H706    1.110   .     S
C650   O746    1.417   .     S
C650   H708    1.111   .     S
C650   C651    1.520   .     S
C650   H707    1.108   .     S
C651   H712    1.108   .     S
C651   H710    1.111   .     S
C651   H711    1.110   .     S
C652   O747    1.403   .     S
C652   H714    1.111   .     S
C652   C958    1.523   1_545 S
C652   H1017   1.109   1_545 S
C653   N737    1.378   .     A
C653   C664    1.415   .     A
C654   H717    1.110   .     S
C654   C956    1.523   .     S
C655   C656    1.522   .     S
C655   O748    1.405   .     S
C655   H718    1.115   .     S
C655   H719    1.108   .     S
C656   H722    1.111   .     S
C656   H721    1.111   .     S
C656   H1027   1.110   .     S
C657   H725    1.110   .     S
C657   O749    1.403   .     S
C657   C962    1.524   1_545 S
C657   H1028   1.109   1_545 S
C658   H728    1.111   .     S
C658   C961    1.524   .     S
C658   H1638   1.111   .     S
C658   H1335   1.107   .     S
C659   C660    1.520   .     S
C659   O751    1.415   .     S
C659   H730    1.115   .     S
C659   H1033   1.110   .     S
C660   H734    1.110   .     S
C660   H733    1.110   .     S
C660   H732    1.111   .     S
C661   N738    1.375   .     A
C662   O747    1.381   .     S
C663   O748    1.384   .     S
C664   O749    1.383   .     S
H673   C788    1.110   .     S
H674   C789    1.110   1_455 S
H678   C1398   1.108   1_455 S
H679   C790    1.109   1_455 S
H680   C791    1.112   1_455 S
H683   C184    1.109   1_455 S
H684   C792    1.111   1_455 S
H685   C793    1.112   .     S
H688   C795    1.111   1_455 S
H713   C956    1.109   .     S
H715   C1566   1.111   1_545 S
H716   C1262   1.107   .     S
H723   C960    1.110   1_545 S
H724   C961    1.109   .     S
H726   C354    1.111   1_545 S
H729   C963    1.110   1_545 S
N737   Zn760   2.031   .     S
N738   Zn759   2.031   .     S
O739   Zn759   1.989   .     S
O750   Zn760   1.989   .     S
O752   Zn759   2.018   .     S
O753   Zn760   2.018   .     S
O754   Zn759   1.968   .     S
O755   Zn760   1.968   .     S
O756   Zn759   1.963   .     S
O757   Zn760   1.963   .     S
C761   O905    1.302   .     A
C761   C778    1.463   .     S
C761   O891    1.302   .     A
C762   O903    1.386   .     S
C762   C766    1.422   .     A
C762   C813    1.414   .     A
C763   C767    1.379   .     S
C763   O909    1.287   .     A
C763   O906    1.289   .     A
C764   C768    1.379   .     S
C764   O908    1.287   .     A
C764   O907    1.289   .     A
C765   C816    1.422   .     A
C765   C814    1.422   .     A
C765   C1070   1.537   1_545 S
C766   C815    1.421   .     A
C766   C1069   1.537   .     S
C768   C1375   1.173   .     S
C769   O910    1.382   .     S
C769   C774    1.379   .     A
C769   C780    1.413   .     A
C770   C775    1.400   .     A
C770   O892    1.384   .     S
C770   C781    1.424   .     A
C771   O893    1.381   .     S
C771   C781    1.415   .     A
C771   C776    1.377   .     A
C772   C779    1.445   .     S
C772   O902    1.299   .     A
C772   O904    1.298   .     A
C773   O894    1.385   .     S
C773   C780    1.414   .     A
C773   C777    1.401   .     A
C774   C778    1.409   .     A
C774   O895    1.384   .     S
C775   C779    1.401   .     A
C775   O896    1.384   .     S
C776   O897    1.389   .     S
C776   C779    1.397   .     A
C777   O898    1.385   .     S
C777   C778    1.411   .     A
C781   C628    1.470   1_655 S
C782   H817    1.099   .     S
C782   H839    1.109   .     S
C782   C783    1.503   .     S
C782   H828    1.110   .     S
C783   N889    1.373   .     A
C783   C814    1.421   .     A
C784   H872    1.109   .     S
C784   H861    1.105   .     S
C784   C794    1.506   .     S
C784   H850    1.094   .     S
C785   H888    1.111   .     S
C785   H883    1.089   .     S
C785   C805    1.510   .     S
C785   H887    1.110   .     S
C786   C813    1.502   .     S
C786   H819    1.110   .     S
C786   H818    1.107   .     S
C786   H820    1.100   .     S
C787   H821    1.111   .     S
C787   H822    1.115   .     S
C787   O910    1.410   .     S
C787   C788    1.520   .     S
C788   H824    1.110   .     S
C788   H823    1.109   .     S
C789   H827    1.117   .     S
C789   C790    1.514   .     S
C789   O892    1.413   .     S
C789   H674    1.110   1_655 S
C790   H829    1.110   .     S
C790   H70     1.108   1_655 S
C790   H679    1.109   1_655 S
C791   H833    1.115   .     S
C791   O893    1.411   .     S
C791   C792    1.519   .     S
C791   H680    1.112   1_655 S
C792   H834    1.111   .     S
C792   H1291   1.109   1_655 S
C792   H684    1.111   1_655 S
C793   H838    1.115   .     S
C793   O894    1.406   .     S
C794   C815    1.423   .     A
C794   N890    1.376   .     A
C795   H841    1.110   .     S
C795   H842    1.110   .     S
C795   C641    1.521   1_655 S
C795   H688    1.111   1_655 S
C796   C797    1.520   .     S
C796   H843    1.114   .     S
C796   O895    1.415   .     S
C796   H844    1.115   .     S
C797   H845    1.109   .     S
C797   H846    1.111   .     S
C797   H847    1.111   .     S
C798   H849    1.112   .     S
C798   C799    1.523   .     S
C798   O896    1.411   .     S
C798   H848    1.114   .     S
C799   H853    1.110   .     S
C799   H851    1.111   .     S
C799   H852    1.109   .     S
C800   O897    1.424   .     S
C800   H855    1.114   .     S
C800   C801    1.519   .     S
C800   H854    1.114   .     S
C801   H856    1.109   .     S
C801   H857    1.111   .     S
C801   H858    1.110   .     S
C802   O898    1.417   .     S
C802   H860    1.111   .     S
C802   C803    1.520   .     S
C802   H859    1.108   .     S
C803   H864    1.108   .     S
C803   H862    1.111   .     S
C803   H863    1.110   .     S
C804   O899    1.403   .     S
C804   H866    1.111   .     S
C804   C1110   1.523   1_545 S
C804   H1169   1.109   1_545 S
C805   N889    1.378   .     A
C805   C816    1.415   .     A
C806   H869    1.110   .     S
C806   C1108   1.523   .     S
C807   C808    1.522   .     S
C807   O900    1.405   .     S
C807   H870    1.115   .     S
C807   H871    1.108   .     S
C808   H874    1.111   .     S
C808   H873    1.111   .     S
C808   H1179   1.110   .     S
C809   H877    1.110   .     S
C809   O901    1.403   .     S
C809   C1114   1.524   1_545 S
C809   H1180   1.109   1_545 S
C810   H880    1.111   .     S
C810   C1113   1.524   .     S
C810   H1790   1.111   .     S
C810   H1487   1.107   .     S
C811   C812    1.520   .     S
C811   O903    1.415   .     S
C811   H882    1.115   .     S
C811   H1185   1.110   .     S
C812   H886    1.110   .     S
C812   H885    1.110   .     S
C812   H884    1.111   .     S
C813   N890    1.375   .     A
C814   O899    1.381   .     S
C815   O900    1.384   .     S
C816   O901    1.383   .     S
H825   C636    1.110   1_655 S
H830   C1246   1.108   .     S
H837   C641    1.112   1_655 S
H865   C1108   1.109   .     S
H867   C1718   1.111   1_545 S
H868   C1414   1.107   .     S
H875   C1112   1.110   1_545 S
H876   C1113   1.109   .     S
H878   C506    1.111   1_545 S
H881   C1115   1.110   1_545 S
N889   Zn912   2.031   .     S
N890   Zn911   2.031   .     S
O891   Zn911   1.989   .     S
O902   Zn912   1.989   .     S
O904   Zn911   2.018   .     S
O905   Zn912   2.018   .     S
O906   Zn911   1.968   .     S
O907   Zn912   1.968   .     S
O908   Zn911   1.963   .     S
O909   Zn912   1.963   .     S
C913   O1057   1.302   .     A
C913   C930    1.463   .     S
C913   O1043   1.302   .     A
C914   O1055   1.386   .     S
C914   C918    1.422   .     A
C914   C965    1.414   .     A
C915   C919    1.379   .     S
C915   O1061   1.287   .     A
C915   O1058   1.289   .     A
C916   C920    1.379   .     S
C916   O1060   1.287   .     A
C916   O1059   1.289   .     A
C917   C968    1.422   .     A
C917   C966    1.422   .     A
C918   C967    1.421   .     A
C918   C613    1.537   1_565 S
C920   C1527   1.173   .     S
C921   O1062   1.382   .     S
C921   C926    1.379   .     A
C921   C932    1.413   .     A
C922   C927    1.400   .     A
C922   O1044   1.384   .     S
C922   C933    1.424   .     A
C923   O1045   1.381   .     S
C923   C933    1.415   .     A
C923   C928    1.377   .     A
C924   C931    1.445   .     S
C924   O1054   1.299   .     A
C924   O1056   1.298   .     A
C925   O1046   1.385   .     S
C925   C932    1.414   .     A
C925   C929    1.401   .     A
C926   C930    1.409   .     A
C926   O1047   1.384   .     S
C927   C931    1.401   .     A
C927   O1048   1.384   .     S
C928   O1049   1.389   .     S
C928   C931    1.397   .     A
C929   O1050   1.385   .     S
C929   C930    1.411   .     A
C932   C1085   1.470   1_455 S
C933   C1084   1.470   .     S
C934   H969    1.099   .     S
C934   H991    1.109   .     S
C934   C935    1.503   .     S
C934   H980    1.110   .     S
C935   N1041   1.373   .     A
C935   C966    1.421   .     A
C936   H1024   1.109   .     S
C936   H1013   1.105   .     S
C936   C946    1.506   .     S
C936   H1002   1.094   .     S
C937   H1040   1.111   .     S
C937   H1035   1.089   .     S
C937   C957    1.510   .     S
C937   H1039   1.110   .     S
C938   C965    1.502   .     S
C938   H971    1.110   .     S
C938   H970    1.107   .     S
C938   H972    1.100   .     S
C939   H973    1.111   .     S
C939   H974    1.115   .     S
C939   O1062   1.410   .     S
C939   C940    1.520   .     S
C940   H976    1.110   .     S
C940   H975    1.109   .     S
C940   H1129   1.110   1_455 S
C941   H979    1.117   .     S
C941   C942    1.514   .     S
C941   O1044   1.413   .     S
C941   H1130   1.110   .     S
C942   H981    1.110   .     S
C942   H1135   1.109   .     S
C943   H985    1.115   .     S
C943   O1045   1.411   .     S
C943   C944    1.519   .     S
C943   H1136   1.112   .     S
C944   H986    1.111   .     S
C944   H1747   1.109   .     S
C944   H1140   1.111   .     S
C945   H990    1.115   .     S
C945   O1046   1.406   .     S
C945   C1099   1.521   1_455 S
C945   H1141   1.112   1_455 S
C946   C967    1.423   .     A
C946   N1042   1.376   .     A
C947   H993    1.110   .     S
C947   H994    1.110   .     S
C947   C1097   1.521   .     S
C947   H1144   1.111   .     S
C948   C949    1.520   .     S
C948   H995    1.114   .     S
C948   O1047   1.415   .     S
C948   H996    1.115   .     S
C949   H997    1.109   .     S
C949   H998    1.111   .     S
C949   H999    1.111   .     S
C950   H1001   1.112   .     S
C950   C951    1.523   .     S
C950   O1048   1.411   .     S
C950   H1000   1.114   .     S
C951   H1005   1.110   .     S
C951   H1003   1.111   .     S
C951   H1004   1.109   .     S
C952   O1049   1.424   .     S
C952   H1007   1.114   .     S
C952   C953    1.519   .     S
C952   H1006   1.114   .     S
C953   H1008   1.109   .     S
C953   H1009   1.111   .     S
C953   H1010   1.110   .     S
C954   O1050   1.417   .     S
C954   H1012   1.111   .     S
C954   C955    1.520   .     S
C954   H1011   1.108   .     S
C955   H1016   1.108   .     S
C955   H1014   1.111   .     S
C955   H1015   1.110   .     S
C956   O1051   1.403   .     S
C956   H1018   1.111   .     S
C957   N1041   1.378   .     A
C957   C968    1.415   .     A
C958   H1021   1.110   .     S
C958   C652    1.523   1_565 S
C958   H107    1.111   1_565 S
C959   C960    1.522   .     S
C959   O1052   1.405   .     S
C959   H1022   1.115   .     S
C959   H1023   1.108   .     S
C960   H1026   1.111   .     S
C960   H1025   1.111   .     S
C960   H723    1.110   1_565 S
C961   H1029   1.110   .     S
C961   O1053   1.403   .     S
C962   H1032   1.111   .     S
C962   C657    1.524   1_565 S
C962   H1334   1.111   1_565 S
C962   H1639   1.107   .     S
C963   C964    1.520   .     S
C963   O1055   1.415   .     S
C963   H1034   1.115   .     S
C963   H729    1.110   1_565 S
C964   H1038   1.110   .     S
C964   H1037   1.110   .     S
C964   H1036   1.111   .     S
C965   N1042   1.375   .     A
C966   O1051   1.381   .     S
C967   O1052   1.384   .     S
C968   O1053   1.383   .     S
H977   C1092   1.110   .     S
H978   C1093   1.110   1_455 S
H982   C1702   1.108   1_455 S
H983   C1094   1.109   1_455 S
H984   C1095   1.112   1_455 S
H987   C488    1.109   1_455 S
H988   C1096   1.111   1_455 S
H989   C1097   1.112   .     S
H992   C1099   1.111   1_455 S
H1017  C652    1.109   1_565 S
H1019  C1262   1.111   .     S
H1020  C1566   1.107   .     S
H1028  C657    1.109   1_565 S
N1041  Zn1064  2.031   .     S
N1042  Zn1063  2.031   .     S
O1043  Zn1063  1.989   .     S
O1054  Zn1064  1.989   .     S
O1056  Zn1063  2.018   .     S
O1057  Zn1064  2.018   .     S
O1058  Zn1063  1.968   .     S
O1059  Zn1064  1.968   .     S
O1060  Zn1063  1.963   .     S
O1061  Zn1064  1.963   .     S
C1065  O1209   1.302   .     A
C1065  C1082   1.463   .     S
C1065  O1195   1.302   .     A
C1066  O1207   1.386   .     S
C1066  C1070   1.422   .     A
C1066  C1117   1.414   .     A
C1067  C1071   1.379   .     S
C1067  O1213   1.287   .     A
C1067  O1210   1.289   .     A
C1068  C1072   1.379   .     S
C1068  O1212   1.287   .     A
C1068  O1211   1.289   .     A
C1069  C1120   1.422   .     A
C1069  C1118   1.422   .     A
C1070  C1119   1.421   .     A
C1070  C765    1.537   1_565 S
C1072  C1679   1.173   .     S
C1073  O1214   1.382   .     S
C1073  C1078   1.379   .     A
C1073  C1084   1.413   .     A
C1074  C1079   1.400   .     A
C1074  O1196   1.384   .     S
C1074  C1085   1.424   .     A
C1075  O1197   1.381   .     S
C1075  C1085   1.415   .     A
C1075  C1080   1.377   .     A
C1076  C1083   1.445   .     S
C1076  O1206   1.299   .     A
C1076  O1208   1.298   .     A
C1077  O1198   1.385   .     S
C1077  C1084   1.414   .     A
C1077  C1081   1.401   .     A
C1078  C1082   1.409   .     A
C1078  O1199   1.384   .     S
C1079  C1083   1.401   .     A
C1079  O1200   1.384   .     S
C1080  O1201   1.389   .     S
C1080  C1083   1.397   .     A
C1081  O1202   1.385   .     S
C1081  C1082   1.411   .     A
C1085  C932    1.470   1_655 S
C1086  H1121   1.099   .     S
C1086  H1143   1.109   .     S
C1086  C1087   1.503   .     S
C1086  H1132   1.110   .     S
C1087  N1193   1.373   .     A
C1087  C1118   1.421   .     A
C1088  H1176   1.109   .     S
C1088  H1165   1.105   .     S
C1088  C1098   1.506   .     S
C1088  H1154   1.094   .     S
C1089  H1192   1.111   .     S
C1089  H1187   1.089   .     S
C1089  C1109   1.510   .     S
C1089  H1191   1.110   .     S
C1090  C1117   1.502   .     S
C1090  H1123   1.110   .     S
C1090  H1122   1.107   .     S
C1090  H1124   1.100   .     S
C1091  H1125   1.111   .     S
C1091  H1126   1.115   .     S
C1091  O1214   1.410   .     S
C1091  C1092   1.520   .     S
C1092  H1128   1.110   .     S
C1092  H1127   1.109   .     S
C1093  H1131   1.117   .     S
C1093  C1094   1.514   .     S
C1093  O1196   1.413   .     S
C1093  H978    1.110   1_655 S
C1094  H1133   1.110   .     S
C1094  H374    1.108   1_655 S
C1094  H983    1.109   1_655 S
C1095  H1137   1.115   .     S
C1095  O1197   1.411   .     S
C1095  C1096   1.519   .     S
C1095  H984    1.112   1_655 S
C1096  H1138   1.111   .     S
C1096  H1595   1.109   1_655 S
C1096  H988    1.111   1_655 S
C1097  H1142   1.115   .     S
C1097  O1198   1.406   .     S
C1098  C1119   1.423   .     A
C1098  N1194   1.376   .     A
C1099  H1145   1.110   .     S
C1099  H1146   1.110   .     S
C1099  C945    1.521   1_655 S
C1099  H992    1.111   1_655 S
C1100  C1101   1.520   .     S
C1100  H1147   1.114   .     S
C1100  O1199   1.415   .     S
C1100  H1148   1.115   .     S
C1101  H1149   1.109   .     S
C1101  H1150   1.111   .     S
C1101  H1151   1.111   .     S
C1102  H1153   1.112   .     S
C1102  C1103   1.523   .     S
C1102  O1200   1.411   .     S
C1102  H1152   1.114   .     S
C1103  H1157   1.110   .     S
C1103  H1155   1.111   .     S
C1103  H1156   1.109   .     S
C1104  O1201   1.424   .     S
C1104  H1159   1.114   .     S
C1104  C1105   1.519   .     S
C1104  H1158   1.114   .     S
C1105  H1160   1.109   .     S
C1105  H1161   1.111   .     S
C1105  H1162   1.110   .     S
C1106  O1202   1.417   .     S
C1106  H1164   1.111   .     S
C1106  C1107   1.520   .     S
C1106  H1163   1.108   .     S
C1107  H1168   1.108   .     S
C1107  H1166   1.111   .     S
C1107  H1167   1.110   .     S
C1108  O1203   1.403   .     S
C1108  H1170   1.111   .     S
C1109  N1193   1.378   .     A
C1109  C1120   1.415   .     A
C1110  H1173   1.110   .     S
C1110  C804    1.523   1_565 S
C1110  H259    1.111   1_565 S
C1111  C1112   1.522   .     S
C1111  O1204   1.405   .     S
C1111  H1174   1.115   .     S
C1111  H1175   1.108   .     S
C1112  H1178   1.111   .     S
C1112  H1177   1.111   .     S
C1112  H875    1.110   1_565 S
C1113  H1181   1.110   .     S
C1113  O1205   1.403   .     S
C1114  H1184   1.111   .     S
C1114  C809    1.524   1_565 S
C1114  H1486   1.111   1_565 S
C1114  H1791   1.107   .     S
C1115  C1116   1.520   .     S
C1115  O1207   1.415   .     S
C1115  H1186   1.115   .     S
C1115  H881    1.110   1_565 S
C1116  H1190   1.110   .     S
C1116  H1189   1.110   .     S
C1116  H1188   1.111   .     S
C1117  N1194   1.375   .     A
C1118  O1203   1.381   .     S
C1119  O1204   1.384   .     S
C1120  O1205   1.383   .     S
H1129  C940    1.110   1_655 S
H1134  C1550   1.108   .     S
H1141  C945    1.112   1_655 S
H1169  C804    1.109   1_565 S
H1171  C1414   1.111   .     S
H1172  C1718   1.107   .     S
H1180  C809    1.109   1_565 S
N1193  Zn1216  2.031   .     S
N1194  Zn1215  2.031   .     S
O1195  Zn1215  1.989   .     S
O1206  Zn1216  1.989   .     S
O1208  Zn1215  2.018   .     S
O1209  Zn1216  2.018   .     S
O1210  Zn1215  1.968   .     S
O1211  Zn1216  1.968   .     S
O1212  Zn1215  1.963   .     S
O1213  Zn1216  1.963   .     S
C1217  O1361   1.302   .     A
C1217  C1234   1.463   .     S
C1217  O1347   1.302   .     A
C1218  O1359   1.386   .     S
C1218  C1222   1.422   .     A
C1218  C1269   1.414   .     A
C1219  C1223   1.379   .     S
C1219  O1365   1.287   .     A
C1219  O1362   1.289   .     A
C1220  C1224   1.379   .     S
C1220  O1364   1.287   .     A
C1220  O1363   1.289   .     A
C1221  C1272   1.422   .     A
C1221  C1270   1.422   .     A
C1221  C1526   1.537   1_545 S
C1222  C1271   1.421   .     A
C1222  C1525   1.537   .     S
C1224  C7      1.173   1_556 S
C1225  O1366   1.382   .     S
C1225  C1230   1.379   .     A
C1225  C1236   1.413   .     A
C1226  C1231   1.400   .     A
C1226  O1348   1.384   .     S
C1226  C1237   1.424   .     A
C1227  O1349   1.381   .     S
C1227  C1237   1.415   .     A
C1227  C1232   1.377   .     A
C1228  C1235   1.445   .     S
C1228  O1358   1.299   .     A
C1228  O1360   1.298   .     A
C1229  O1350   1.385   .     S
C1229  C1236   1.414   .     A
C1229  C1233   1.401   .     A
C1230  C1234   1.409   .     A
C1230  O1351   1.384   .     S
C1231  C1235   1.401   .     A
C1231  O1352   1.384   .     S
C1232  O1353   1.389   .     S
C1232  C1235   1.397   .     A
C1233  O1354   1.385   .     S
C1233  C1234   1.411   .     A
C1236  C1389   1.470   1_455 S
C1237  C1388   1.470   .     S
C1238  H1273   1.099   .     S
C1238  H1295   1.109   .     S
C1238  C1239   1.503   .     S
C1238  H1284   1.110   .     S
C1239  N1345   1.373   .     A
C1239  C1270   1.421   .     A
C1240  H1328   1.109   .     S
C1240  H1317   1.105   .     S
C1240  C1250   1.506   .     S
C1240  H1306   1.094   .     S
C1241  H1344   1.111   .     S
C1241  H1339   1.089   .     S
C1241  C1261   1.510   .     S
C1241  H1343   1.110   .     S
C1242  C1269   1.502   .     S
C1242  H1275   1.110   .     S
C1242  H1274   1.107   .     S
C1242  H1276   1.100   .     S
C1243  H1277   1.111   .     S
C1243  H1278   1.115   .     S
C1243  O1366   1.410   .     S
C1243  C1244   1.520   .     S
C1244  H1280   1.110   .     S
C1244  H1279   1.109   .     S
C1244  H1433   1.110   1_455 S
C1245  H1283   1.117   .     S
C1245  C1246   1.514   .     S
C1245  O1348   1.413   .     S
C1245  H1434   1.110   .     S
C1246  H1285   1.110   .     S
C1246  H1439   1.109   .     S
C1247  H1289   1.115   .     S
C1247  O1349   1.411   .     S
C1247  C1248   1.519   .     S
C1247  H1440   1.112   .     S
C1248  H1290   1.111   .     S
C1248  H227    1.109   1_556 S
C1248  H1444   1.111   .     S
C1249  H1294   1.115   .     S
C1249  O1350   1.406   .     S
C1249  C1403   1.521   1_455 S
C1249  H1445   1.112   1_455 S
C1250  C1271   1.423   .     A
C1250  N1346   1.376   .     A
C1251  H1297   1.110   .     S
C1251  H1298   1.110   .     S
C1251  C1401   1.521   .     S
C1251  H1448   1.111   .     S
C1252  C1253   1.520   .     S
C1252  H1299   1.114   .     S
C1252  O1351   1.415   .     S
C1252  H1300   1.115   .     S
C1253  H1301   1.109   .     S
C1253  H1302   1.111   .     S
C1253  H1303   1.111   .     S
C1254  H1305   1.112   .     S
C1254  C1255   1.523   .     S
C1254  O1352   1.411   .     S
C1254  H1304   1.114   .     S
C1255  H1309   1.110   .     S
C1255  H1307   1.111   .     S
C1255  H1308   1.109   .     S
C1256  O1353   1.424   .     S
C1256  H1311   1.114   .     S
C1256  C1257   1.519   .     S
C1256  H1310   1.114   .     S
C1257  H1312   1.109   .     S
C1257  H1313   1.111   .     S
C1257  H1314   1.110   .     S
C1258  O1354   1.417   .     S
C1258  H1316   1.111   .     S
C1258  C1259   1.520   .     S
C1258  H1315   1.108   .     S
C1259  H1320   1.108   .     S
C1259  H1318   1.111   .     S
C1259  H1319   1.110   .     S
C1260  O1355   1.403   .     S
C1260  H1322   1.111   .     S
C1260  C1566   1.523   1_545 S
C1260  H1625   1.109   1_545 S
C1261  N1345   1.378   .     A
C1261  C1272   1.415   .     A
C1262  H1325   1.110   .     S
C1262  C1564   1.523   .     S
C1263  C1264   1.522   .     S
C1263  O1356   1.405   .     S
C1263  H1326   1.115   .     S
C1263  H1327   1.108   .     S
C1264  H1330   1.111   .     S
C1264  H1329   1.111   .     S
C1264  H1635   1.110   .     S
C1265  H1333   1.110   .     S
C1265  O1357   1.403   .     S
C1265  C1570   1.524   1_545 S
C1265  H1636   1.109   1_545 S
C1266  H1336   1.111   .     S
C1266  C1569   1.524   .     S
C1266  H422    1.111   1_556 S
C1266  H119    1.107   1_556 S
C1267  C1268   1.520   .     S
C1267  O1359   1.415   .     S
C1267  H1338   1.115   .     S
C1267  H1641   1.110   .     S
C1268  H1342   1.110   .     S
C1268  H1341   1.110   .     S
C1268  H1340   1.111   .     S
C1269  N1346   1.375   .     A
C1270  O1355   1.381   .     S
C1271  O1356   1.384   .     S
C1272  O1357   1.383   .     S
H1281  C1396   1.110   .     S
H1282  C1397   1.110   1_455 S
H1286  C182    1.108   1_456 S
H1287  C1398   1.109   1_455 S
H1288  C1399   1.112   1_455 S
H1291  C792    1.109   1_455 S
H1292  C1400   1.111   1_455 S
H1293  C1401   1.112   .     S
H1296  C1403   1.111   1_455 S
H1321  C1564   1.109   .     S
H1323  C350    1.111   1_546 S
H1324  C46     1.107   1_556 S
H1331  C1568   1.110   1_545 S
H1332  C1569   1.109   .     S
H1334  C962    1.111   1_545 S
H1337  C1571   1.110   1_545 S
N1345  Zn1368  2.031   .     S
N1346  Zn1367  2.031   .     S
O1347  Zn1367  1.989   .     S
O1358  Zn1368  1.989   .     S
O1360  Zn1367  2.018   .     S
O1361  Zn1368  2.018   .     S
O1362  Zn1367  1.968   .     S
O1363  Zn1368  1.968   .     S
O1364  Zn1367  1.963   .     S
O1365  Zn1368  1.963   .     S
C1369  O1513   1.302   .     A
C1369  C1386   1.463   .     S
C1369  O1499   1.302   .     A
C1370  O1511   1.386   .     S
C1370  C1374   1.422   .     A
C1370  C1421   1.414   .     A
C1371  C1375   1.379   .     S
C1371  O1517   1.287   .     A
C1371  O1514   1.289   .     A
C1372  C1376   1.379   .     S
C1372  O1516   1.287   .     A
C1372  O1515   1.289   .     A
C1373  C1424   1.422   .     A
C1373  C1422   1.422   .     A
C1373  C1678   1.537   1_545 S
C1374  C1423   1.421   .     A
C1374  C1677   1.537   .     S
C1376  C159    1.173   1_556 S
C1377  O1518   1.382   .     S
C1377  C1382   1.379   .     A
C1377  C1388   1.413   .     A
C1378  C1383   1.400   .     A
C1378  O1500   1.384   .     S
C1378  C1389   1.424   .     A
C1379  O1501   1.381   .     S
C1379  C1389   1.415   .     A
C1379  C1384   1.377   .     A
C1380  C1387   1.445   .     S
C1380  O1510   1.299   .     A
C1380  O1512   1.298   .     A
C1381  O1502   1.385   .     S
C1381  C1388   1.414   .     A
C1381  C1385   1.401   .     A
C1382  C1386   1.409   .     A
C1382  O1503   1.384   .     S
C1383  C1387   1.401   .     A
C1383  O1504   1.384   .     S
C1384  O1505   1.389   .     S
C1384  C1387   1.397   .     A
C1385  O1506   1.385   .     S
C1385  C1386   1.411   .     A
C1389  C1236   1.470   1_655 S
C1390  H1425   1.099   .     S
C1390  H1447   1.109   .     S
C1390  C1391   1.503   .     S
C1390  H1436   1.110   .     S
C1391  N1497   1.373   .     A
C1391  C1422   1.421   .     A
C1392  H1480   1.109   .     S
C1392  H1469   1.105   .     S
C1392  C1402   1.506   .     S
C1392  H1458   1.094   .     S
C1393  H1496   1.111   .     S
C1393  H1491   1.089   .     S
C1393  C1413   1.510   .     S
C1393  H1495   1.110   .     S
C1394  C1421   1.502   .     S
C1394  H1427   1.110   .     S
C1394  H1426   1.107   .     S
C1394  H1428   1.100   .     S
C1395  H1429   1.111   .     S
C1395  H1430   1.115   .     S
C1395  O1518   1.410   .     S
C1395  C1396   1.520   .     S
C1396  H1432   1.110   .     S
C1396  H1431   1.109   .     S
C1397  H1435   1.117   .     S
C1397  C1398   1.514   .     S
C1397  O1500   1.413   .     S
C1397  H1282   1.110   1_655 S
C1398  H1437   1.110   .     S
C1398  H678    1.108   1_655 S
C1398  H1287   1.109   1_655 S
C1399  H1441   1.115   .     S
C1399  O1501   1.411   .     S
C1399  C1400   1.519   .     S
C1399  H1288   1.112   1_655 S
C1400  H1442   1.111   .     S
C1400  H75     1.109   1_656 S
C1400  H1292   1.111   1_655 S
C1401  H1446   1.115   .     S
C1401  O1502   1.406   .     S
C1402  C1423   1.423   .     A
C1402  N1498   1.376   .     A
C1403  H1449   1.110   .     S
C1403  H1450   1.110   .     S
C1403  C1249   1.521   1_655 S
C1403  H1296   1.111   1_655 S
C1404  C1405   1.520   .     S
C1404  H1451   1.114   .     S
C1404  O1503   1.415   .     S
C1404  H1452   1.115   .     S
C1405  H1453   1.109   .     S
C1405  H1454   1.111   .     S
C1405  H1455   1.111   .     S
C1406  H1457   1.112   .     S
C1406  C1407   1.523   .     S
C1406  O1504   1.411   .     S
C1406  H1456   1.114   .     S
C1407  H1461   1.110   .     S
C1407  H1459   1.111   .     S
C1407  H1460   1.109   .     S
C1408  O1505   1.424   .     S
C1408  H1463   1.114   .     S
C1408  C1409   1.519   .     S
C1408  H1462   1.114   .     S
C1409  H1464   1.109   .     S
C1409  H1465   1.111   .     S
C1409  H1466   1.110   .     S
C1410  O1506   1.417   .     S
C1410  H1468   1.111   .     S
C1410  C1411   1.520   .     S
C1410  H1467   1.108   .     S
C1411  H1472   1.108   .     S
C1411  H1470   1.111   .     S
C1411  H1471   1.110   .     S
C1412  O1507   1.403   .     S
C1412  H1474   1.111   .     S
C1412  C1718   1.523   1_545 S
C1412  H1777   1.109   1_545 S
C1413  N1497   1.378   .     A
C1413  C1424   1.415   .     A
C1414  H1477   1.110   .     S
C1414  C1716   1.523   .     S
C1415  C1416   1.522   .     S
C1415  O1508   1.405   .     S
C1415  H1478   1.115   .     S
C1415  H1479   1.108   .     S
C1416  H1482   1.111   .     S
C1416  H1481   1.111   .     S
C1416  H1787   1.110   .     S
C1417  H1485   1.110   .     S
C1417  O1509   1.403   .     S
C1417  C1722   1.524   1_545 S
C1417  H1788   1.109   1_545 S
C1418  H1488   1.111   .     S
C1418  C1721   1.524   .     S
C1418  H574    1.111   1_556 S
C1418  H271    1.107   1_556 S
C1419  C1420   1.520   .     S
C1419  O1511   1.415   .     S
C1419  H1490   1.115   .     S
C1419  H1793   1.110   .     S
C1420  H1494   1.110   .     S
C1420  H1493   1.110   .     S
C1420  H1492   1.111   .     S
C1421  N1498   1.375   .     A
C1422  O1507   1.381   .     S
C1423  O1508   1.384   .     S
C1424  O1509   1.383   .     S
H1433  C1244   1.110   1_655 S
H1438  C30     1.108   1_556 S
H1445  C1249   1.112   1_655 S
H1473  C1716   1.109   .     S
H1475  C502    1.111   1_546 S
H1476  C198    1.107   1_556 S
H1483  C1720   1.110   1_545 S
H1484  C1721   1.109   .     S
H1486  C1114   1.111   1_545 S
H1489  C1723   1.110   1_545 S
N1497  Zn1520  2.031   .     S
N1498  Zn1519  2.031   .     S
O1499  Zn1519  1.989   .     S
O1510  Zn1520  1.989   .     S
O1512  Zn1519  2.018   .     S
O1513  Zn1520  2.018   .     S
O1514  Zn1519  1.968   .     S
O1515  Zn1520  1.968   .     S
O1516  Zn1519  1.963   .     S
O1517  Zn1520  1.963   .     S
C1521  O1665   1.302   .     A
C1521  C1538   1.463   .     S
C1521  O1651   1.302   .     A
C1522  O1663   1.386   .     S
C1522  C1526   1.422   .     A
C1522  C1573   1.414   .     A
C1523  C1527   1.379   .     S
C1523  O1669   1.287   .     A
C1523  O1666   1.289   .     A
C1524  C1528   1.379   .     S
C1524  O1668   1.287   .     A
C1524  O1667   1.289   .     A
C1525  C1576   1.422   .     A
C1525  C1574   1.422   .     A
C1526  C1575   1.421   .     A
C1526  C1221   1.537   1_565 S
C1528  C311    1.173   1_556 S
C1529  O1670   1.382   .     S
C1529  C1534   1.379   .     A
C1529  C1540   1.413   .     A
C1530  C1535   1.400   .     A
C1530  O1652   1.384   .     S
C1530  C1541   1.424   .     A
C1531  O1653   1.381   .     S
C1531  C1541   1.415   .     A
C1531  C1536   1.377   .     A
C1532  C1539   1.445   .     S
C1532  O1662   1.299   .     A
C1532  O1664   1.298   .     A
C1533  O1654   1.385   .     S
C1533  C1540   1.414   .     A
C1533  C1537   1.401   .     A
C1534  C1538   1.409   .     A
C1534  O1655   1.384   .     S
C1535  C1539   1.401   .     A
C1535  O1656   1.384   .     S
C1536  O1657   1.389   .     S
C1536  C1539   1.397   .     A
C1537  O1658   1.385   .     S
C1537  C1538   1.411   .     A
C1540  C1693   1.470   1_455 S
C1541  C1692   1.470   .     S
C1542  H1577   1.099   .     S
C1542  H1599   1.109   .     S
C1542  C1543   1.503   .     S
C1542  H1588   1.110   .     S
C1543  N1649   1.373   .     A
C1543  C1574   1.421   .     A
C1544  H1632   1.109   .     S
C1544  H1621   1.105   .     S
C1544  C1554   1.506   .     S
C1544  H1610   1.094   .     S
C1545  H1648   1.111   .     S
C1545  H1643   1.089   .     S
C1545  C1565   1.510   .     S
C1545  H1647   1.110   .     S
C1546  C1573   1.502   .     S
C1546  H1579   1.110   .     S
C1546  H1578   1.107   .     S
C1546  H1580   1.100   .     S
C1547  H1581   1.111   .     S
C1547  H1582   1.115   .     S
C1547  O1670   1.410   .     S
C1547  C1548   1.520   .     S
C1548  H1584   1.110   .     S
C1548  H1583   1.109   .     S
C1548  H1737   1.110   1_455 S
C1549  H1587   1.117   .     S
C1549  C1550   1.514   .     S
C1549  O1652   1.413   .     S
C1549  H1738   1.110   .     S
C1550  H1589   1.110   .     S
C1550  H1743   1.109   .     S
C1551  H1593   1.115   .     S
C1551  O1653   1.411   .     S
C1551  C1552   1.519   .     S
C1551  H1744   1.112   .     S
C1552  H1594   1.111   .     S
C1552  H531    1.109   1_556 S
C1552  H1748   1.111   .     S
C1553  H1598   1.115   .     S
C1553  O1654   1.406   .     S
C1553  C1707   1.521   1_455 S
C1553  H1749   1.112   1_455 S
C1554  C1575   1.423   .     A
C1554  N1650   1.376   .     A
C1555  H1601   1.110   .     S
C1555  H1602   1.110   .     S
C1555  C1705   1.521   .     S
C1555  H1752   1.111   .     S
C1556  C1557   1.520   .     S
C1556  H1603   1.114   .     S
C1556  O1655   1.415   .     S
C1556  H1604   1.115   .     S
C1557  H1605   1.109   .     S
C1557  H1606   1.111   .     S
C1557  H1607   1.111   .     S
C1558  H1609   1.112   .     S
C1558  C1559   1.523   .     S
C1558  O1656   1.411   .     S
C1558  H1608   1.114   .     S
C1559  H1613   1.110   .     S
C1559  H1611   1.111   .     S
C1559  H1612   1.109   .     S
C1560  O1657   1.424   .     S
C1560  H1615   1.114   .     S
C1560  C1561   1.519   .     S
C1560  H1614   1.114   .     S
C1561  H1616   1.109   .     S
C1561  H1617   1.111   .     S
C1561  H1618   1.110   .     S
C1562  O1658   1.417   .     S
C1562  H1620   1.111   .     S
C1562  C1563   1.520   .     S
C1562  H1619   1.108   .     S
C1563  H1624   1.108   .     S
C1563  H1622   1.111   .     S
C1563  H1623   1.110   .     S
C1564  O1659   1.403   .     S
C1564  H1626   1.111   .     S
C1565  N1649   1.378   .     A
C1565  C1576   1.415   .     A
C1566  H1629   1.110   .     S
C1566  C1260   1.523   1_565 S
C1566  H715    1.111   1_565 S
C1567  C1568   1.522   .     S
C1567  O1660   1.405   .     S
C1567  H1630   1.115   .     S
C1567  H1631   1.108   .     S
C1568  H1634   1.111   .     S
C1568  H1633   1.111   .     S
C1568  H1331   1.110   1_565 S
C1569  H1637   1.110   .     S
C1569  O1661   1.403   .     S
C1570  H1640   1.111   .     S
C1570  C1265   1.524   1_565 S
C1570  H118    1.111   1_566 S
C1570  H423    1.107   1_556 S
C1571  C1572   1.520   .     S
C1571  O1663   1.415   .     S
C1571  H1642   1.115   .     S
C1571  H1337   1.110   1_565 S
C1572  H1646   1.110   .     S
C1572  H1645   1.110   .     S
C1572  H1644   1.111   .     S
C1573  N1650   1.375   .     A
C1574  O1659   1.381   .     S
C1575  O1660   1.384   .     S
C1576  O1661   1.383   .     S
H1585  C1700   1.110   .     S
H1586  C1701   1.110   1_455 S
H1590  C486    1.108   1_456 S
H1591  C1702   1.109   1_455 S
H1592  C1703   1.112   1_455 S
H1595  C1096   1.109   1_455 S
H1596  C1704   1.111   1_455 S
H1597  C1705   1.112   .     S
H1600  C1707   1.111   1_455 S
H1625  C1260   1.109   1_565 S
H1627  C46     1.111   1_556 S
H1628  C350    1.107   1_556 S
H1636  C1265   1.109   1_565 S
N1649  Zn1672  2.031   .     S
N1650  Zn1671  2.031   .     S
O1651  Zn1671  1.989   .     S
O1662  Zn1672  1.989   .     S
O1664  Zn1671  2.018   .     S
O1665  Zn1672  2.018   .     S
O1666  Zn1671  1.968   .     S
O1667  Zn1672  1.968   .     S
O1668  Zn1671  1.963   .     S
O1669  Zn1672  1.963   .     S
C1673  O1817   1.302   .     A
C1673  C1690   1.463   .     S
C1673  O1803   1.302   .     A
C1674  O1815   1.386   .     S
C1674  C1678   1.422   .     A
C1674  C1725   1.414   .     A
C1675  C1679   1.379   .     S
C1675  O1821   1.287   .     A
C1675  O1818   1.289   .     A
C1676  C1680   1.379   .     S
C1676  O1820   1.287   .     A
C1676  O1819   1.289   .     A
C1677  C1728   1.422   .     A
C1677  C1726   1.422   .     A
C1678  C1727   1.421   .     A
C1678  C1373   1.537   1_565 S
C1680  C463    1.173   1_556 S
C1681  O1822   1.382   .     S
C1681  C1686   1.379   .     A
C1681  C1692   1.413   .     A
C1682  C1687   1.400   .     A
C1682  O1804   1.384   .     S
C1682  C1693   1.424   .     A
C1683  O1805   1.381   .     S
C1683  C1693   1.415   .     A
C1683  C1688   1.377   .     A
C1684  C1691   1.445   .     S
C1684  O1814   1.299   .     A
C1684  O1816   1.298   .     A
C1685  O1806   1.385   .     S
C1685  C1692   1.414   .     A
C1685  C1689   1.401   .     A
C1686  C1690   1.409   .     A
C1686  O1807   1.384   .     S
C1687  C1691   1.401   .     A
C1687  O1808   1.384   .     S
C1688  O1809   1.389   .     S
C1688  C1691   1.397   .     A
C1689  O1810   1.385   .     S
C1689  C1690   1.411   .     A
C1693  C1540   1.470   1_655 S
C1694  H1729   1.099   .     S
C1694  H1751   1.109   .     S
C1694  C1695   1.503   .     S
C1694  H1740   1.110   .     S
C1695  N1801   1.373   .     A
C1695  C1726   1.421   .     A
C1696  H1784   1.109   .     S
C1696  H1773   1.105   .     S
C1696  C1706   1.506   .     S
C1696  H1762   1.094   .     S
C1697  H1800   1.111   .     S
C1697  H1795   1.089   .     S
C1697  C1717   1.510   .     S
C1697  H1799   1.110   .     S
C1698  C1725   1.502   .     S
C1698  H1731   1.110   .     S
C1698  H1730   1.107   .     S
C1698  H1732   1.100   .     S
C1699  H1733   1.111   .     S
C1699  H1734   1.115   .     S
C1699  O1822   1.410   .     S
C1699  C1700   1.520   .     S
C1700  H1736   1.110   .     S
C1700  H1735   1.109   .     S
C1701  H1739   1.117   .     S
C1701  C1702   1.514   .     S
C1701  O1804   1.413   .     S
C1701  H1586   1.110   1_655 S
C1702  H1741   1.110   .     S
C1702  H982    1.108   1_655 S
C1702  H1591   1.109   1_655 S
C1703  H1745   1.115   .     S
C1703  O1805   1.411   .     S
C1703  C1704   1.519   .     S
C1703  H1592   1.112   1_655 S
C1704  H1746   1.111   .     S
C1704  H379    1.109   1_656 S
C1704  H1596   1.111   1_655 S
C1705  H1750   1.115   .     S
C1705  O1806   1.406   .     S
C1706  C1727   1.423   .     A
C1706  N1802   1.376   .     A
C1707  H1753   1.110   .     S
C1707  H1754   1.110   .     S
C1707  C1553   1.521   1_655 S
C1707  H1600   1.111   1_655 S
C1708  C1709   1.520   .     S
C1708  H1755   1.114   .     S
C1708  O1807   1.415   .     S
C1708  H1756   1.115   .     S
C1709  H1757   1.109   .     S
C1709  H1758   1.111   .     S
C1709  H1759   1.111   .     S
C1710  H1761   1.112   .     S
C1710  C1711   1.523   .     S
C1710  O1808   1.411   .     S
C1710  H1760   1.114   .     S
C1711  H1765   1.110   .     S
C1711  H1763   1.111   .     S
C1711  H1764   1.109   .     S
C1712  O1809   1.424   .     S
C1712  H1767   1.114   .     S
C1712  C1713   1.519   .     S
C1712  H1766   1.114   .     S
C1713  H1768   1.109   .     S
C1713  H1769   1.111   .     S
C1713  H1770   1.110   .     S
C1714  O1810   1.417   .     S
C1714  H1772   1.111   .     S
C1714  C1715   1.520   .     S
C1714  H1771   1.108   .     S
C1715  H1776   1.108   .     S
C1715  H1774   1.111   .     S
C1715  H1775   1.110   .     S
C1716  O1811   1.403   .     S
C1716  H1778   1.111   .     S
C1717  N1801   1.378   .     A
C1717  C1728   1.415   .     A
C1718  H1781   1.110   .     S
C1718  C1412   1.523   1_565 S
C1718  H867    1.111   1_565 S
C1719  C1720   1.522   .     S
C1719  O1812   1.405   .     S
C1719  H1782   1.115   .     S
C1719  H1783   1.108   .     S
C1720  H1786   1.111   .     S
C1720  H1785   1.111   .     S
C1720  H1483   1.110   1_565 S
C1721  H1789   1.110   .     S
C1721  O1813   1.403   .     S
C1722  H1792   1.111   .     S
C1722  C1417   1.524   1_565 S
C1722  H270    1.111   1_566 S
C1722  H575    1.107   1_556 S
C1723  C1724   1.520   .     S
C1723  O1815   1.415   .     S
C1723  H1794   1.115   .     S
C1723  H1489   1.110   1_565 S
C1724  H1798   1.110   .     S
C1724  H1797   1.110   .     S
C1724  H1796   1.111   .     S
C1725  N1802   1.375   .     A
C1726  O1811   1.381   .     S
C1727  O1812   1.384   .     S
C1728  O1813   1.383   .     S
H1737  C1548   1.110   1_655 S
H1742  C334    1.108   1_556 S
H1749  C1553   1.112   1_655 S
H1777  C1412   1.109   1_565 S
H1779  C198    1.111   1_556 S
H1780  C502    1.107   1_556 S
H1788  C1417   1.109   1_565 S
N1801  Zn1824  2.031   .     S
N1802  Zn1823  2.031   .     S
O1803  Zn1823  1.989   .     S
O1814  Zn1824  1.989   .     S
O1816  Zn1823  2.018   .     S
O1817  Zn1824  2.018   .     S
O1818  Zn1823  1.968   .     S
O1819  Zn1824  1.968   .     S
O1820  Zn1823  1.963   .     S
O1821  Zn1824  1.963   .     S
