data_str_m2_o10_o16_pcu_sym.158
_audit_creation_date              2020-01-03
_audit_creation_method            'Materials Studio'
_symmetry_space_group_name_H-M    'P1'
_symmetry_Int_Tables_number       1
_symmetry_cell_setting            triclinic
loop_
_symmetry_equiv_pos_as_xyz
  x,y,z
_cell_length_a                    22.4346
_cell_length_b                    26.1224
_cell_length_c                    26.6217
_cell_angle_alpha                 93.9625
_cell_angle_beta                  78.5699
_cell_angle_gamma                 103.1368
loop_
_atom_site_label
_atom_site_type_symbol
_atom_site_fract_x
_atom_site_fract_y
_atom_site_fract_z
_atom_site_U_iso_or_equiv
_atom_site_adp_type
_atom_site_occupancy
C1     C     0.18151   0.26663   0.25152   0.00000  Uiso   1.00
C2     C     0.14220   0.13053   0.48295   0.00000  Uiso   1.00
C3     C     0.16114   0.13469   0.42930   0.00000  Uiso   1.00
C4     C     0.18805   0.15156   0.01389   0.00000  Uiso   1.00
C5     C     0.25164   0.16719   0.49012   0.00000  Uiso   1.00
C6     C     0.26930   0.15943   0.43767   0.00000  Uiso   1.00
C7     C     0.22493   0.13673   0.40865   0.00000  Uiso   1.00
C8     C     0.17299   0.15967   0.06702   0.00000  Uiso   1.00
C9     C     0.28238   0.19264   0.07221   0.00000  Uiso   1.00
C10    C     0.11582   0.13158   0.39802   0.00000  Uiso   1.00
C11    C     0.18930   0.32239   0.24979   0.00000  Uiso   1.00
C12    C     0.13341   0.15432   0.34556   0.00000  Uiso   1.00
C13    C     0.13973   0.01083   0.25593   0.00000  Uiso   1.00
C14    C     0.15076   0.06673   0.25048   0.00000  Uiso   1.00
C15    C     0.20019   0.17230   0.15297   0.00000  Uiso   1.00
C16    C     0.29766   0.18773   0.01915   0.00000  Uiso   1.00
C17    C     0.21945   0.17591   0.09684   0.00000  Uiso   1.00
C18    C     0.05630   0.10100   0.41539   0.00000  Uiso   1.00
C19    C     0.03870   0.08555   0.46716   0.00000  Uiso   1.00
C20    C     0.08000   0.10249   0.00157   0.00000  Uiso   1.00
Cu21   Cu    0.10710   0.16105   0.24435   0.00000  Uiso   1.00
Cu22   Cu    0.22623   0.17228   0.25564   0.00000  Uiso   1.00
H23    H     0.00347   0.20561   0.29033   0.00000  Uiso   1.00
H24    H     0.31793   0.16819   0.41961   0.00000  Uiso   1.00
H25    H     0.01272   0.19985   0.00051   0.00000  Uiso   1.00
H26    H     0.12490   0.15395   0.08584   0.00000  Uiso   1.00
H27    H     0.23672   0.01245   0.24197   0.00000  Uiso   1.00
N28    N     0.31574   0.18074   0.26416   0.00000  Uiso   1.00
N29    N     0.01759   0.15259   0.23584   0.00000  Uiso   1.00
O30    O     0.12797   0.23807   0.24633   0.00000  Uiso   1.00
O31    O     0.22858   0.24755   0.25586   0.00000  Uiso   1.00
O32    O     0.09181   0.15960   0.31839   0.00000  Uiso   1.00
O33    O     0.19242   0.16908   0.32793   0.00000  Uiso   1.00
O34    O     0.10476   0.08578   0.24413   0.00000  Uiso   1.00
O35    O     0.20536   0.09526   0.25367   0.00000  Uiso   1.00
O36    O     0.14092   0.16425   0.17207   0.00000  Uiso   1.00
O37    O     0.24152   0.17373   0.18160   0.00000  Uiso   1.00
O38    O     0.32987   0.21475   0.09808   0.00000  Uiso   1.00
H39    H     0.31302   0.23645   0.12704   0.00000  Uiso   1.00
O40    O     0.07947   0.31423   0.26896   0.00000  Uiso   1.00
H41    H     0.04943   0.00415   0.27736   0.00000  Uiso   1.00
O42    O     0.32455   0.12012   0.20138   0.00000  Uiso   1.00
H43    H     0.02431   0.10243   0.18331   0.00000  Uiso   1.00
O44    O     0.01875   0.08284   0.37992   0.00000  Uiso   1.00
H45    H     0.31858   0.05333   0.39457   0.00000  Uiso   1.00
O46    O     0.06028   0.08424   0.05070   0.00000  Uiso   1.00
H47    H     0.09438   0.07010   0.05929   0.00000  Uiso   1.00
O48    O     0.31295   0.05583   0.48486   0.00000  Uiso   1.00
C49    C     0.31614   0.00242   0.48448   0.00000  Uiso   1.00
H50    H     0.00864   0.32845   0.01388   0.00000  Uiso   1.00
H51    H     0.00432   0.32203   0.44604   0.00000  Uiso   1.00
H52    H     0.26805   0.31160   0.49406   0.00000  Uiso   1.00
O53    O     0.24491   0.11118   0.36308   0.00000  Uiso   1.00
C54    C     0.21363   0.05758   0.36434   0.00000  Uiso   1.00
H55    H     0.20893   0.03975   0.40220   0.00000  Uiso   1.00
H56    H     0.24123   0.03533   0.33538   0.00000  Uiso   1.00
H57    H     0.16697   0.05244   0.35428   0.00000  Uiso   1.00
C58    C     0.51484   0.26663   0.25152   0.00000  Uiso   1.00
C59    C     0.47553   0.13053   0.48295   0.00000  Uiso   1.00
C60    C     0.49448   0.13469   0.42930   0.00000  Uiso   1.00
C61    C     0.52139   0.15156   0.01389   0.00000  Uiso   1.00
C62    C     0.58497   0.16719   0.49012   0.00000  Uiso   1.00
C63    C     0.60264   0.15943   0.43767   0.00000  Uiso   1.00
C64    C     0.55827   0.13673   0.40865   0.00000  Uiso   1.00
C65    C     0.50632   0.15967   0.06702   0.00000  Uiso   1.00
C66    C     0.61571   0.19264   0.07221   0.00000  Uiso   1.00
C67    C     0.44916   0.13158   0.39802   0.00000  Uiso   1.00
C68    C     0.52263   0.32239   0.24979   0.00000  Uiso   1.00
C69    C     0.46675   0.15432   0.34556   0.00000  Uiso   1.00
C70    C     0.47306   0.01083   0.25593   0.00000  Uiso   1.00
C71    C     0.48409   0.06673   0.25048   0.00000  Uiso   1.00
C72    C     0.53352   0.17230   0.15297   0.00000  Uiso   1.00
C73    C     0.63100   0.18773   0.01915   0.00000  Uiso   1.00
C74    C     0.55279   0.17591   0.09684   0.00000  Uiso   1.00
C75    C     0.38963   0.10100   0.41539   0.00000  Uiso   1.00
C76    C     0.37204   0.08555   0.46716   0.00000  Uiso   1.00
C77    C     0.41333   0.10249   0.00157   0.00000  Uiso   1.00
Cu78   Cu    0.44043   0.16105   0.24435   0.00000  Uiso   1.00
Cu79   Cu    0.55957   0.17228   0.25564   0.00000  Uiso   1.00
H80    H     0.33680   0.20561   0.29033   0.00000  Uiso   1.00
H81    H     0.65126   0.16819   0.41961   0.00000  Uiso   1.00
H82    H     0.34605   0.19985   0.00051   0.00000  Uiso   1.00
H83    H     0.45823   0.15395   0.08584   0.00000  Uiso   1.00
H84    H     0.57006   0.01245   0.24197   0.00000  Uiso   1.00
N85    N     0.64908   0.18074   0.26416   0.00000  Uiso   1.00
N86    N     0.35092   0.15259   0.23584   0.00000  Uiso   1.00
O87    O     0.46131   0.23807   0.24633   0.00000  Uiso   1.00
O88    O     0.56191   0.24755   0.25586   0.00000  Uiso   1.00
O89    O     0.42515   0.15960   0.31839   0.00000  Uiso   1.00
O90    O     0.52575   0.16908   0.32793   0.00000  Uiso   1.00
O91    O     0.43809   0.08578   0.24413   0.00000  Uiso   1.00
O92    O     0.53869   0.09526   0.25367   0.00000  Uiso   1.00
O93    O     0.47425   0.16425   0.17207   0.00000  Uiso   1.00
O94    O     0.57485   0.17373   0.18160   0.00000  Uiso   1.00
O95    O     0.66320   0.21475   0.09808   0.00000  Uiso   1.00
H96    H     0.64635   0.23645   0.12704   0.00000  Uiso   1.00
O97    O     0.41280   0.31423   0.26896   0.00000  Uiso   1.00
H98    H     0.38276   0.00415   0.27736   0.00000  Uiso   1.00
O99    O     0.65788   0.12012   0.20138   0.00000  Uiso   1.00
H100   H     0.35764   0.10243   0.18331   0.00000  Uiso   1.00
O101   O     0.35208   0.08284   0.37992   0.00000  Uiso   1.00
H102   H     0.65191   0.05333   0.39457   0.00000  Uiso   1.00
O103   O     0.39361   0.08424   0.05070   0.00000  Uiso   1.00
H104   H     0.42771   0.07010   0.05929   0.00000  Uiso   1.00
O105   O     0.64628   0.05583   0.48486   0.00000  Uiso   1.00
C106   C     0.64947   0.00242   0.48448   0.00000  Uiso   1.00
H107   H     0.34197   0.32845   0.01388   0.00000  Uiso   1.00
H108   H     0.33765   0.32203   0.44604   0.00000  Uiso   1.00
H109   H     0.60138   0.31160   0.49406   0.00000  Uiso   1.00
O110   O     0.57825   0.11118   0.36308   0.00000  Uiso   1.00
C111   C     0.54697   0.05758   0.36434   0.00000  Uiso   1.00
H112   H     0.54226   0.03975   0.40220   0.00000  Uiso   1.00
H113   H     0.57456   0.03533   0.33538   0.00000  Uiso   1.00
H114   H     0.50030   0.05244   0.35428   0.00000  Uiso   1.00
C115   C     0.84817   0.26663   0.25152   0.00000  Uiso   1.00
C116   C     0.80887   0.13053   0.48295   0.00000  Uiso   1.00
C117   C     0.82781   0.13469   0.42930   0.00000  Uiso   1.00
C118   C     0.85472   0.15156   0.01389   0.00000  Uiso   1.00
C119   C     0.91831   0.16719   0.49012   0.00000  Uiso   1.00
C120   C     0.93597   0.15943   0.43767   0.00000  Uiso   1.00
C121   C     0.89160   0.13673   0.40865   0.00000  Uiso   1.00
C122   C     0.83966   0.15967   0.06702   0.00000  Uiso   1.00
C123   C     0.94904   0.19264   0.07221   0.00000  Uiso   1.00
C124   C     0.78249   0.13158   0.39802   0.00000  Uiso   1.00
C125   C     0.85597   0.32239   0.24979   0.00000  Uiso   1.00
C126   C     0.80008   0.15432   0.34556   0.00000  Uiso   1.00
C127   C     0.80639   0.01083   0.25593   0.00000  Uiso   1.00
C128   C     0.81743   0.06673   0.25048   0.00000  Uiso   1.00
C129   C     0.86685   0.17230   0.15297   0.00000  Uiso   1.00
C130   C     0.96433   0.18773   0.01915   0.00000  Uiso   1.00
C131   C     0.88612   0.17591   0.09684   0.00000  Uiso   1.00
C132   C     0.72296   0.10100   0.41539   0.00000  Uiso   1.00
C133   C     0.70537   0.08555   0.46716   0.00000  Uiso   1.00
C134   C     0.74666   0.10249   0.00157   0.00000  Uiso   1.00
Cu135  Cu    0.77377   0.16105   0.24435   0.00000  Uiso   1.00
Cu136  Cu    0.89290   0.17228   0.25564   0.00000  Uiso   1.00
H137   H     0.67013   0.20561   0.29033   0.00000  Uiso   1.00
H138   H     0.98459   0.16819   0.41961   0.00000  Uiso   1.00
H139   H     0.67939   0.19985   0.00051   0.00000  Uiso   1.00
H140   H     0.79156   0.15395   0.08584   0.00000  Uiso   1.00
H141   H     0.90339   0.01245   0.24197   0.00000  Uiso   1.00
N142   N     0.98241   0.18074   0.26416   0.00000  Uiso   1.00
N143   N     0.68426   0.15259   0.23584   0.00000  Uiso   1.00
O144   O     0.79464   0.23807   0.24633   0.00000  Uiso   1.00
O145   O     0.89524   0.24755   0.25586   0.00000  Uiso   1.00
O146   O     0.75848   0.15960   0.31839   0.00000  Uiso   1.00
O147   O     0.85908   0.16908   0.32793   0.00000  Uiso   1.00
O148   O     0.77142   0.08578   0.24413   0.00000  Uiso   1.00
O149   O     0.87203   0.09526   0.25367   0.00000  Uiso   1.00
O150   O     0.80758   0.16425   0.17207   0.00000  Uiso   1.00
O151   O     0.90819   0.17373   0.18160   0.00000  Uiso   1.00
O152   O     0.99654   0.21475   0.09808   0.00000  Uiso   1.00
H153   H     0.97969   0.23645   0.12704   0.00000  Uiso   1.00
O154   O     0.74614   0.31423   0.26896   0.00000  Uiso   1.00
H155   H     0.71610   0.00415   0.27736   0.00000  Uiso   1.00
O156   O     0.99122   0.12012   0.20138   0.00000  Uiso   1.00
H157   H     0.69098   0.10243   0.18331   0.00000  Uiso   1.00
O158   O     0.68542   0.08284   0.37992   0.00000  Uiso   1.00
H159   H     0.98524   0.05333   0.39457   0.00000  Uiso   1.00
O160   O     0.72694   0.08424   0.05070   0.00000  Uiso   1.00
H161   H     0.76105   0.07010   0.05929   0.00000  Uiso   1.00
O162   O     0.97962   0.05583   0.48486   0.00000  Uiso   1.00
C163   C     0.98281   0.00242   0.48448   0.00000  Uiso   1.00
H164   H     0.67531   0.32845   0.01388   0.00000  Uiso   1.00
H165   H     0.67099   0.32203   0.44604   0.00000  Uiso   1.00
H166   H     0.93471   0.31160   0.49406   0.00000  Uiso   1.00
O167   O     0.91158   0.11118   0.36308   0.00000  Uiso   1.00
C168   C     0.88030   0.05758   0.36434   0.00000  Uiso   1.00
H169   H     0.87559   0.03975   0.40220   0.00000  Uiso   1.00
H170   H     0.90790   0.03533   0.33538   0.00000  Uiso   1.00
H171   H     0.83364   0.05244   0.35428   0.00000  Uiso   1.00
C172   C     0.18151   0.59996   0.25152   0.00000  Uiso   1.00
C173   C     0.14220   0.46387   0.48295   0.00000  Uiso   1.00
C174   C     0.16114   0.46803   0.42930   0.00000  Uiso   1.00
C175   C     0.18805   0.48490   0.01389   0.00000  Uiso   1.00
C176   C     0.25164   0.50053   0.49012   0.00000  Uiso   1.00
C177   C     0.26930   0.49276   0.43767   0.00000  Uiso   1.00
C178   C     0.22493   0.47006   0.40865   0.00000  Uiso   1.00
C179   C     0.17299   0.49300   0.06702   0.00000  Uiso   1.00
C180   C     0.28238   0.52597   0.07221   0.00000  Uiso   1.00
C181   C     0.11582   0.46491   0.39802   0.00000  Uiso   1.00
C182   C     0.18930   0.65572   0.24979   0.00000  Uiso   1.00
C183   C     0.13341   0.48765   0.34556   0.00000  Uiso   1.00
C184   C     0.13973   0.34416   0.25593   0.00000  Uiso   1.00
C185   C     0.15076   0.40006   0.25048   0.00000  Uiso   1.00
C186   C     0.20019   0.50563   0.15297   0.00000  Uiso   1.00
C187   C     0.29766   0.52106   0.01915   0.00000  Uiso   1.00
C188   C     0.21945   0.50924   0.09684   0.00000  Uiso   1.00
C189   C     0.05630   0.43434   0.41539   0.00000  Uiso   1.00
C190   C     0.03870   0.41888   0.46716   0.00000  Uiso   1.00
C191   C     0.08000   0.43583   0.00157   0.00000  Uiso   1.00
Cu192  Cu    0.10710   0.49439   0.24435   0.00000  Uiso   1.00
Cu193  Cu    0.22623   0.50561   0.25564   0.00000  Uiso   1.00
H194   H     0.00347   0.53894   0.29033   0.00000  Uiso   1.00
H195   H     0.31793   0.50153   0.41961   0.00000  Uiso   1.00
H196   H     0.01272   0.53319   0.00051   0.00000  Uiso   1.00
H197   H     0.12490   0.48729   0.08584   0.00000  Uiso   1.00
H198   H     0.23672   0.34579   0.24197   0.00000  Uiso   1.00
N199   N     0.31574   0.51407   0.26416   0.00000  Uiso   1.00
N200   N     0.01759   0.48593   0.23584   0.00000  Uiso   1.00
O201   O     0.12797   0.57141   0.24633   0.00000  Uiso   1.00
O202   O     0.22858   0.58089   0.25586   0.00000  Uiso   1.00
O203   O     0.09181   0.49293   0.31839   0.00000  Uiso   1.00
O204   O     0.19242   0.50241   0.32793   0.00000  Uiso   1.00
O205   O     0.10476   0.41911   0.24413   0.00000  Uiso   1.00
O206   O     0.20536   0.42859   0.25367   0.00000  Uiso   1.00
O207   O     0.14092   0.49759   0.17207   0.00000  Uiso   1.00
O208   O     0.24152   0.50707   0.18160   0.00000  Uiso   1.00
O209   O     0.32987   0.54808   0.09808   0.00000  Uiso   1.00
H210   H     0.31302   0.56978   0.12704   0.00000  Uiso   1.00
O211   O     0.07947   0.64757   0.26896   0.00000  Uiso   1.00
H212   H     0.04943   0.33749   0.27736   0.00000  Uiso   1.00
O213   O     0.32455   0.45345   0.20138   0.00000  Uiso   1.00
H214   H     0.02431   0.43577   0.18331   0.00000  Uiso   1.00
O215   O     0.01875   0.41617   0.37992   0.00000  Uiso   1.00
H216   H     0.31858   0.38666   0.39457   0.00000  Uiso   1.00
O217   O     0.06028   0.41758   0.05070   0.00000  Uiso   1.00
H218   H     0.09438   0.40343   0.05929   0.00000  Uiso   1.00
O219   O     0.31295   0.38917   0.48486   0.00000  Uiso   1.00
C220   C     0.31614   0.33576   0.48448   0.00000  Uiso   1.00
H221   H     0.00864   0.66179   0.01388   0.00000  Uiso   1.00
H222   H     0.00432   0.65537   0.44604   0.00000  Uiso   1.00
H223   H     0.26805   0.64493   0.49406   0.00000  Uiso   1.00
O224   O     0.24491   0.44452   0.36308   0.00000  Uiso   1.00
C225   C     0.21363   0.39091   0.36434   0.00000  Uiso   1.00
H226   H     0.20893   0.37308   0.40220   0.00000  Uiso   1.00
H227   H     0.24123   0.36866   0.33538   0.00000  Uiso   1.00
H228   H     0.16697   0.38578   0.35428   0.00000  Uiso   1.00
C229   C     0.51484   0.59996   0.25152   0.00000  Uiso   1.00
C230   C     0.47553   0.46387   0.48295   0.00000  Uiso   1.00
C231   C     0.49448   0.46803   0.42930   0.00000  Uiso   1.00
C232   C     0.52139   0.48490   0.01389   0.00000  Uiso   1.00
C233   C     0.58497   0.50053   0.49012   0.00000  Uiso   1.00
C234   C     0.60264   0.49276   0.43767   0.00000  Uiso   1.00
C235   C     0.55827   0.47006   0.40865   0.00000  Uiso   1.00
C236   C     0.50632   0.49300   0.06702   0.00000  Uiso   1.00
C237   C     0.61571   0.52597   0.07221   0.00000  Uiso   1.00
C238   C     0.44916   0.46491   0.39802   0.00000  Uiso   1.00
C239   C     0.52263   0.65572   0.24979   0.00000  Uiso   1.00
C240   C     0.46675   0.48765   0.34556   0.00000  Uiso   1.00
C241   C     0.47306   0.34416   0.25593   0.00000  Uiso   1.00
C242   C     0.48409   0.40006   0.25048   0.00000  Uiso   1.00
C243   C     0.53352   0.50563   0.15297   0.00000  Uiso   1.00
C244   C     0.63100   0.52106   0.01915   0.00000  Uiso   1.00
C245   C     0.55279   0.50924   0.09684   0.00000  Uiso   1.00
C246   C     0.38963   0.43434   0.41539   0.00000  Uiso   1.00
C247   C     0.37204   0.41888   0.46716   0.00000  Uiso   1.00
C248   C     0.41333   0.43583   0.00157   0.00000  Uiso   1.00
Cu249  Cu    0.44043   0.49439   0.24435   0.00000  Uiso   1.00
Cu250  Cu    0.55957   0.50561   0.25564   0.00000  Uiso   1.00
H251   H     0.33680   0.53894   0.29033   0.00000  Uiso   1.00
H252   H     0.65126   0.50153   0.41961   0.00000  Uiso   1.00
H253   H     0.34605   0.53319   0.00051   0.00000  Uiso   1.00
H254   H     0.45823   0.48729   0.08584   0.00000  Uiso   1.00
H255   H     0.57006   0.34579   0.24197   0.00000  Uiso   1.00
N256   N     0.64908   0.51407   0.26416   0.00000  Uiso   1.00
N257   N     0.35092   0.48593   0.23584   0.00000  Uiso   1.00
O258   O     0.46131   0.57141   0.24633   0.00000  Uiso   1.00
O259   O     0.56191   0.58089   0.25586   0.00000  Uiso   1.00
O260   O     0.42515   0.49293   0.31839   0.00000  Uiso   1.00
O261   O     0.52575   0.50241   0.32793   0.00000  Uiso   1.00
O262   O     0.43809   0.41911   0.24413   0.00000  Uiso   1.00
O263   O     0.53869   0.42859   0.25367   0.00000  Uiso   1.00
O264   O     0.47425   0.49759   0.17207   0.00000  Uiso   1.00
O265   O     0.57485   0.50707   0.18160   0.00000  Uiso   1.00
O266   O     0.66320   0.54808   0.09808   0.00000  Uiso   1.00
H267   H     0.64635   0.56978   0.12704   0.00000  Uiso   1.00
O268   O     0.41280   0.64757   0.26896   0.00000  Uiso   1.00
H269   H     0.38276   0.33749   0.27736   0.00000  Uiso   1.00
O270   O     0.65788   0.45345   0.20138   0.00000  Uiso   1.00
H271   H     0.35764   0.43577   0.18331   0.00000  Uiso   1.00
O272   O     0.35208   0.41617   0.37992   0.00000  Uiso   1.00
H273   H     0.65191   0.38666   0.39457   0.00000  Uiso   1.00
O274   O     0.39361   0.41758   0.05070   0.00000  Uiso   1.00
H275   H     0.42771   0.40343   0.05929   0.00000  Uiso   1.00
O276   O     0.64628   0.38917   0.48486   0.00000  Uiso   1.00
C277   C     0.64947   0.33576   0.48448   0.00000  Uiso   1.00
H278   H     0.34197   0.66179   0.01388   0.00000  Uiso   1.00
H279   H     0.33765   0.65537   0.44604   0.00000  Uiso   1.00
H280   H     0.60138   0.64493   0.49406   0.00000  Uiso   1.00
O281   O     0.57825   0.44452   0.36308   0.00000  Uiso   1.00
C282   C     0.54697   0.39091   0.36434   0.00000  Uiso   1.00
H283   H     0.54226   0.37308   0.40220   0.00000  Uiso   1.00
H284   H     0.57456   0.36866   0.33538   0.00000  Uiso   1.00
H285   H     0.50030   0.38578   0.35428   0.00000  Uiso   1.00
C286   C     0.84817   0.59996   0.25152   0.00000  Uiso   1.00
C287   C     0.80887   0.46387   0.48295   0.00000  Uiso   1.00
C288   C     0.82781   0.46803   0.42930   0.00000  Uiso   1.00
C289   C     0.85472   0.48490   0.01389   0.00000  Uiso   1.00
C290   C     0.91831   0.50053   0.49012   0.00000  Uiso   1.00
C291   C     0.93597   0.49276   0.43767   0.00000  Uiso   1.00
C292   C     0.89160   0.47006   0.40865   0.00000  Uiso   1.00
C293   C     0.83966   0.49300   0.06702   0.00000  Uiso   1.00
C294   C     0.94904   0.52597   0.07221   0.00000  Uiso   1.00
C295   C     0.78249   0.46491   0.39802   0.00000  Uiso   1.00
C296   C     0.85597   0.65572   0.24979   0.00000  Uiso   1.00
C297   C     0.80008   0.48765   0.34556   0.00000  Uiso   1.00
C298   C     0.80639   0.34416   0.25593   0.00000  Uiso   1.00
C299   C     0.81743   0.40006   0.25048   0.00000  Uiso   1.00
C300   C     0.86685   0.50563   0.15297   0.00000  Uiso   1.00
C301   C     0.96433   0.52106   0.01915   0.00000  Uiso   1.00
C302   C     0.88612   0.50924   0.09684   0.00000  Uiso   1.00
C303   C     0.72296   0.43434   0.41539   0.00000  Uiso   1.00
C304   C     0.70537   0.41888   0.46716   0.00000  Uiso   1.00
C305   C     0.74666   0.43583   0.00157   0.00000  Uiso   1.00
Cu306  Cu    0.77377   0.49439   0.24435   0.00000  Uiso   1.00
Cu307  Cu    0.89290   0.50561   0.25564   0.00000  Uiso   1.00
H308   H     0.67013   0.53894   0.29033   0.00000  Uiso   1.00
H309   H     0.98459   0.50153   0.41961   0.00000  Uiso   1.00
H310   H     0.67939   0.53319   0.00051   0.00000  Uiso   1.00
H311   H     0.79156   0.48729   0.08584   0.00000  Uiso   1.00
H312   H     0.90339   0.34579   0.24197   0.00000  Uiso   1.00
N313   N     0.98241   0.51407   0.26416   0.00000  Uiso   1.00
N314   N     0.68426   0.48593   0.23584   0.00000  Uiso   1.00
O315   O     0.79464   0.57141   0.24633   0.00000  Uiso   1.00
O316   O     0.89524   0.58089   0.25586   0.00000  Uiso   1.00
O317   O     0.75848   0.49293   0.31839   0.00000  Uiso   1.00
O318   O     0.85908   0.50241   0.32793   0.00000  Uiso   1.00
O319   O     0.77142   0.41911   0.24413   0.00000  Uiso   1.00
O320   O     0.87203   0.42859   0.25367   0.00000  Uiso   1.00
O321   O     0.80758   0.49759   0.17207   0.00000  Uiso   1.00
O322   O     0.90819   0.50707   0.18160   0.00000  Uiso   1.00
O323   O     0.99654   0.54808   0.09808   0.00000  Uiso   1.00
H324   H     0.97969   0.56978   0.12704   0.00000  Uiso   1.00
O325   O     0.74614   0.64757   0.26896   0.00000  Uiso   1.00
H326   H     0.71610   0.33749   0.27736   0.00000  Uiso   1.00
O327   O     0.99122   0.45345   0.20138   0.00000  Uiso   1.00
H328   H     0.69098   0.43577   0.18331   0.00000  Uiso   1.00
O329   O     0.68542   0.41617   0.37992   0.00000  Uiso   1.00
H330   H     0.98524   0.38666   0.39457   0.00000  Uiso   1.00
O331   O     0.72694   0.41758   0.05070   0.00000  Uiso   1.00
H332   H     0.76105   0.40343   0.05929   0.00000  Uiso   1.00
O333   O     0.97962   0.38917   0.48486   0.00000  Uiso   1.00
C334   C     0.98281   0.33576   0.48448   0.00000  Uiso   1.00
H335   H     0.67531   0.66179   0.01388   0.00000  Uiso   1.00
H336   H     0.67099   0.65537   0.44604   0.00000  Uiso   1.00
H337   H     0.93471   0.64493   0.49406   0.00000  Uiso   1.00
O338   O     0.91158   0.44452   0.36308   0.00000  Uiso   1.00
C339   C     0.88030   0.39091   0.36434   0.00000  Uiso   1.00
H340   H     0.87559   0.37308   0.40220   0.00000  Uiso   1.00
H341   H     0.90790   0.36866   0.33538   0.00000  Uiso   1.00
H342   H     0.83364   0.38578   0.35428   0.00000  Uiso   1.00
C343   C     0.18151   0.93330   0.25152   0.00000  Uiso   1.00
C344   C     0.14220   0.79720   0.48295   0.00000  Uiso   1.00
C345   C     0.16114   0.80136   0.42930   0.00000  Uiso   1.00
C346   C     0.18805   0.81823   0.01389   0.00000  Uiso   1.00
C347   C     0.25164   0.83386   0.49012   0.00000  Uiso   1.00
C348   C     0.26930   0.82609   0.43767   0.00000  Uiso   1.00
C349   C     0.22493   0.80340   0.40865   0.00000  Uiso   1.00
C350   C     0.17299   0.82633   0.06702   0.00000  Uiso   1.00
C351   C     0.28238   0.85930   0.07221   0.00000  Uiso   1.00
C352   C     0.11582   0.79825   0.39802   0.00000  Uiso   1.00
C353   C     0.18930   0.98906   0.24979   0.00000  Uiso   1.00
C354   C     0.13341   0.82099   0.34556   0.00000  Uiso   1.00
C355   C     0.13973   0.67749   0.25593   0.00000  Uiso   1.00
C356   C     0.15076   0.73340   0.25048   0.00000  Uiso   1.00
C357   C     0.20019   0.83896   0.15297   0.00000  Uiso   1.00
C358   C     0.29766   0.85440   0.01915   0.00000  Uiso   1.00
C359   C     0.21945   0.84257   0.09684   0.00000  Uiso   1.00
C360   C     0.05630   0.76767   0.41539   0.00000  Uiso   1.00
C361   C     0.03870   0.75221   0.46716   0.00000  Uiso   1.00
C362   C     0.08000   0.76916   0.00157   0.00000  Uiso   1.00
Cu363  Cu    0.10710   0.82772   0.24435   0.00000  Uiso   1.00
Cu364  Cu    0.22623   0.83895   0.25564   0.00000  Uiso   1.00
H365   H     0.00347   0.87228   0.29033   0.00000  Uiso   1.00
H366   H     0.31793   0.83486   0.41961   0.00000  Uiso   1.00
H367   H     0.01272   0.86652   0.00051   0.00000  Uiso   1.00
H368   H     0.12490   0.82062   0.08584   0.00000  Uiso   1.00
H369   H     0.23672   0.67912   0.24197   0.00000  Uiso   1.00
N370   N     0.31574   0.84741   0.26416   0.00000  Uiso   1.00
N371   N     0.01759   0.81926   0.23584   0.00000  Uiso   1.00
O372   O     0.12797   0.90474   0.24633   0.00000  Uiso   1.00
O373   O     0.22858   0.91422   0.25586   0.00000  Uiso   1.00
O374   O     0.09181   0.82627   0.31839   0.00000  Uiso   1.00
O375   O     0.19242   0.83575   0.32793   0.00000  Uiso   1.00
O376   O     0.10476   0.75245   0.24413   0.00000  Uiso   1.00
O377   O     0.20536   0.76193   0.25367   0.00000  Uiso   1.00
O378   O     0.14092   0.83092   0.17207   0.00000  Uiso   1.00
O379   O     0.24152   0.84040   0.18160   0.00000  Uiso   1.00
O380   O     0.32987   0.88141   0.09808   0.00000  Uiso   1.00
H381   H     0.31302   0.90311   0.12704   0.00000  Uiso   1.00
O382   O     0.07947   0.98090   0.26896   0.00000  Uiso   1.00
H383   H     0.04943   0.67082   0.27736   0.00000  Uiso   1.00
O384   O     0.32455   0.78679   0.20138   0.00000  Uiso   1.00
H385   H     0.02431   0.76910   0.18331   0.00000  Uiso   1.00
O386   O     0.01875   0.74950   0.37992   0.00000  Uiso   1.00
H387   H     0.31858   0.71999   0.39457   0.00000  Uiso   1.00
O388   O     0.06028   0.75091   0.05070   0.00000  Uiso   1.00
H389   H     0.09438   0.73677   0.05929   0.00000  Uiso   1.00
O390   O     0.31295   0.72250   0.48486   0.00000  Uiso   1.00
C391   C     0.31614   0.66909   0.48448   0.00000  Uiso   1.00
H392   H     0.00864   0.99512   0.01388   0.00000  Uiso   1.00
H393   H     0.00432   0.98870   0.44604   0.00000  Uiso   1.00
H394   H     0.26805   0.97827   0.49406   0.00000  Uiso   1.00
O395   O     0.24491   0.77785   0.36308   0.00000  Uiso   1.00
C396   C     0.21363   0.72425   0.36434   0.00000  Uiso   1.00
H397   H     0.20893   0.70642   0.40220   0.00000  Uiso   1.00
H398   H     0.24123   0.70200   0.33538   0.00000  Uiso   1.00
H399   H     0.16697   0.71911   0.35428   0.00000  Uiso   1.00
C400   C     0.51484   0.93330   0.25152   0.00000  Uiso   1.00
C401   C     0.47553   0.79720   0.48295   0.00000  Uiso   1.00
C402   C     0.49448   0.80136   0.42930   0.00000  Uiso   1.00
C403   C     0.52139   0.81823   0.01389   0.00000  Uiso   1.00
C404   C     0.58497   0.83386   0.49012   0.00000  Uiso   1.00
C405   C     0.60264   0.82609   0.43767   0.00000  Uiso   1.00
C406   C     0.55827   0.80340   0.40865   0.00000  Uiso   1.00
C407   C     0.50632   0.82633   0.06702   0.00000  Uiso   1.00
C408   C     0.61571   0.85930   0.07221   0.00000  Uiso   1.00
C409   C     0.44916   0.79825   0.39802   0.00000  Uiso   1.00
C410   C     0.52263   0.98906   0.24979   0.00000  Uiso   1.00
C411   C     0.46675   0.82099   0.34556   0.00000  Uiso   1.00
C412   C     0.47306   0.67749   0.25593   0.00000  Uiso   1.00
C413   C     0.48409   0.73340   0.25048   0.00000  Uiso   1.00
C414   C     0.53352   0.83896   0.15297   0.00000  Uiso   1.00
C415   C     0.63100   0.85440   0.01915   0.00000  Uiso   1.00
C416   C     0.55279   0.84257   0.09684   0.00000  Uiso   1.00
C417   C     0.38963   0.76767   0.41539   0.00000  Uiso   1.00
C418   C     0.37204   0.75221   0.46716   0.00000  Uiso   1.00
C419   C     0.41333   0.76916   0.00157   0.00000  Uiso   1.00
Cu420  Cu    0.44043   0.82772   0.24435   0.00000  Uiso   1.00
Cu421  Cu    0.55957   0.83895   0.25564   0.00000  Uiso   1.00
H422   H     0.33680   0.87228   0.29033   0.00000  Uiso   1.00
H423   H     0.65126   0.83486   0.41961   0.00000  Uiso   1.00
H424   H     0.34605   0.86652   0.00051   0.00000  Uiso   1.00
H425   H     0.45823   0.82062   0.08584   0.00000  Uiso   1.00
H426   H     0.57006   0.67912   0.24197   0.00000  Uiso   1.00
N427   N     0.64908   0.84741   0.26416   0.00000  Uiso   1.00
N428   N     0.35092   0.81926   0.23584   0.00000  Uiso   1.00
O429   O     0.46131   0.90474   0.24633   0.00000  Uiso   1.00
O430   O     0.56191   0.91422   0.25586   0.00000  Uiso   1.00
O431   O     0.42515   0.82627   0.31839   0.00000  Uiso   1.00
O432   O     0.52575   0.83575   0.32793   0.00000  Uiso   1.00
O433   O     0.43809   0.75245   0.24413   0.00000  Uiso   1.00
O434   O     0.53869   0.76193   0.25367   0.00000  Uiso   1.00
O435   O     0.47425   0.83092   0.17207   0.00000  Uiso   1.00
O436   O     0.57485   0.84040   0.18160   0.00000  Uiso   1.00
O437   O     0.66320   0.88141   0.09808   0.00000  Uiso   1.00
H438   H     0.64635   0.90311   0.12704   0.00000  Uiso   1.00
O439   O     0.41280   0.98090   0.26896   0.00000  Uiso   1.00
H440   H     0.38276   0.67082   0.27736   0.00000  Uiso   1.00
O441   O     0.65788   0.78679   0.20138   0.00000  Uiso   1.00
H442   H     0.35764   0.76910   0.18331   0.00000  Uiso   1.00
O443   O     0.35208   0.74950   0.37992   0.00000  Uiso   1.00
H444   H     0.65191   0.71999   0.39457   0.00000  Uiso   1.00
O445   O     0.39361   0.75091   0.05070   0.00000  Uiso   1.00
H446   H     0.42771   0.73677   0.05929   0.00000  Uiso   1.00
O447   O     0.64628   0.72250   0.48486   0.00000  Uiso   1.00
C448   C     0.64947   0.66909   0.48448   0.00000  Uiso   1.00
H449   H     0.34197   0.99512   0.01388   0.00000  Uiso   1.00
H450   H     0.33765   0.98870   0.44604   0.00000  Uiso   1.00
H451   H     0.60138   0.97827   0.49406   0.00000  Uiso   1.00
O452   O     0.57825   0.77785   0.36308   0.00000  Uiso   1.00
C453   C     0.54697   0.72425   0.36434   0.00000  Uiso   1.00
H454   H     0.54226   0.70642   0.40220   0.00000  Uiso   1.00
H455   H     0.57456   0.70200   0.33538   0.00000  Uiso   1.00
H456   H     0.50030   0.71911   0.35428   0.00000  Uiso   1.00
C457   C     0.84817   0.93330   0.25152   0.00000  Uiso   1.00
C458   C     0.80887   0.79720   0.48295   0.00000  Uiso   1.00
C459   C     0.82781   0.80136   0.42930   0.00000  Uiso   1.00
C460   C     0.85472   0.81823   0.01389   0.00000  Uiso   1.00
C461   C     0.91831   0.83386   0.49012   0.00000  Uiso   1.00
C462   C     0.93597   0.82609   0.43767   0.00000  Uiso   1.00
C463   C     0.89160   0.80340   0.40865   0.00000  Uiso   1.00
C464   C     0.83966   0.82633   0.06702   0.00000  Uiso   1.00
C465   C     0.94904   0.85930   0.07221   0.00000  Uiso   1.00
C466   C     0.78249   0.79825   0.39802   0.00000  Uiso   1.00
C467   C     0.85597   0.98906   0.24979   0.00000  Uiso   1.00
C468   C     0.80008   0.82099   0.34556   0.00000  Uiso   1.00
C469   C     0.80639   0.67749   0.25593   0.00000  Uiso   1.00
C470   C     0.81743   0.73340   0.25048   0.00000  Uiso   1.00
C471   C     0.86685   0.83896   0.15297   0.00000  Uiso   1.00
C472   C     0.96433   0.85440   0.01915   0.00000  Uiso   1.00
C473   C     0.88612   0.84257   0.09684   0.00000  Uiso   1.00
C474   C     0.72296   0.76767   0.41539   0.00000  Uiso   1.00
C475   C     0.70537   0.75221   0.46716   0.00000  Uiso   1.00
C476   C     0.74666   0.76916   0.00157   0.00000  Uiso   1.00
Cu477  Cu    0.77377   0.82772   0.24435   0.00000  Uiso   1.00
Cu478  Cu    0.89290   0.83895   0.25564   0.00000  Uiso   1.00
H479   H     0.67013   0.87228   0.29033   0.00000  Uiso   1.00
H480   H     0.98459   0.83486   0.41961   0.00000  Uiso   1.00
H481   H     0.67939   0.86652   0.00051   0.00000  Uiso   1.00
H482   H     0.79156   0.82062   0.08584   0.00000  Uiso   1.00
H483   H     0.90339   0.67912   0.24197   0.00000  Uiso   1.00
N484   N     0.98241   0.84741   0.26416   0.00000  Uiso   1.00
N485   N     0.68426   0.81926   0.23584   0.00000  Uiso   1.00
O486   O     0.79464   0.90474   0.24633   0.00000  Uiso   1.00
O487   O     0.89524   0.91422   0.25586   0.00000  Uiso   1.00
O488   O     0.75848   0.82627   0.31839   0.00000  Uiso   1.00
O489   O     0.85908   0.83575   0.32793   0.00000  Uiso   1.00
O490   O     0.77142   0.75245   0.24413   0.00000  Uiso   1.00
O491   O     0.87203   0.76193   0.25367   0.00000  Uiso   1.00
O492   O     0.80758   0.83092   0.17207   0.00000  Uiso   1.00
O493   O     0.90819   0.84040   0.18160   0.00000  Uiso   1.00
O494   O     0.99654   0.88141   0.09808   0.00000  Uiso   1.00
H495   H     0.97969   0.90311   0.12704   0.00000  Uiso   1.00
O496   O     0.74614   0.98090   0.26896   0.00000  Uiso   1.00
H497   H     0.71610   0.67082   0.27736   0.00000  Uiso   1.00
O498   O     0.99122   0.78679   0.20138   0.00000  Uiso   1.00
H499   H     0.69098   0.76910   0.18331   0.00000  Uiso   1.00
O500   O     0.68542   0.74950   0.37992   0.00000  Uiso   1.00
H501   H     0.98524   0.71999   0.39457   0.00000  Uiso   1.00
O502   O     0.72694   0.75091   0.05070   0.00000  Uiso   1.00
H503   H     0.76105   0.73677   0.05929   0.00000  Uiso   1.00
O504   O     0.97962   0.72250   0.48486   0.00000  Uiso   1.00
C505   C     0.98281   0.66909   0.48448   0.00000  Uiso   1.00
H506   H     0.67531   0.99512   0.01388   0.00000  Uiso   1.00
H507   H     0.67099   0.98870   0.44604   0.00000  Uiso   1.00
H508   H     0.93471   0.97827   0.49406   0.00000  Uiso   1.00
O509   O     0.91158   0.77785   0.36308   0.00000  Uiso   1.00
C510   C     0.88030   0.72425   0.36434   0.00000  Uiso   1.00
H511   H     0.87559   0.70642   0.40220   0.00000  Uiso   1.00
H512   H     0.90790   0.70200   0.33538   0.00000  Uiso   1.00
H513   H     0.83364   0.71911   0.35428   0.00000  Uiso   1.00
C514   C     0.18151   0.26663   0.75152   0.00000  Uiso   1.00
C515   C     0.14220   0.13053   0.98295   0.00000  Uiso   1.00
C516   C     0.16114   0.13469   0.92930   0.00000  Uiso   1.00
C517   C     0.18805   0.15156   0.51389   0.00000  Uiso   1.00
C518   C     0.25164   0.16719   0.99012   0.00000  Uiso   1.00
C519   C     0.26930   0.15943   0.93767   0.00000  Uiso   1.00
C520   C     0.22493   0.13673   0.90865   0.00000  Uiso   1.00
C521   C     0.17299   0.15967   0.56702   0.00000  Uiso   1.00
C522   C     0.28238   0.19264   0.57221   0.00000  Uiso   1.00
C523   C     0.11582   0.13158   0.89802   0.00000  Uiso   1.00
C524   C     0.18930   0.32239   0.74979   0.00000  Uiso   1.00
C525   C     0.13341   0.15432   0.84556   0.00000  Uiso   1.00
C526   C     0.13973   0.01083   0.75593   0.00000  Uiso   1.00
C527   C     0.15076   0.06673   0.75048   0.00000  Uiso   1.00
C528   C     0.20019   0.17230   0.65297   0.00000  Uiso   1.00
C529   C     0.29766   0.18773   0.51915   0.00000  Uiso   1.00
C530   C     0.21945   0.17591   0.59684   0.00000  Uiso   1.00
C531   C     0.05630   0.10100   0.91539   0.00000  Uiso   1.00
C532   C     0.03870   0.08555   0.96716   0.00000  Uiso   1.00
C533   C     0.08000   0.10249   0.50157   0.00000  Uiso   1.00
Cu534  Cu    0.10710   0.16105   0.74435   0.00000  Uiso   1.00
Cu535  Cu    0.22623   0.17228   0.75564   0.00000  Uiso   1.00
H536   H     0.00347   0.20561   0.79033   0.00000  Uiso   1.00
H537   H     0.31793   0.16819   0.91961   0.00000  Uiso   1.00
H538   H     0.01272   0.19985   0.50051   0.00000  Uiso   1.00
H539   H     0.12490   0.15395   0.58584   0.00000  Uiso   1.00
H540   H     0.23672   0.01245   0.74197   0.00000  Uiso   1.00
N541   N     0.31574   0.18074   0.76416   0.00000  Uiso   1.00
N542   N     0.01759   0.15259   0.73584   0.00000  Uiso   1.00
O543   O     0.12797   0.23807   0.74633   0.00000  Uiso   1.00
O544   O     0.22858   0.24755   0.75586   0.00000  Uiso   1.00
O545   O     0.09181   0.15960   0.81839   0.00000  Uiso   1.00
O546   O     0.19242   0.16908   0.82793   0.00000  Uiso   1.00
O547   O     0.10476   0.08578   0.74413   0.00000  Uiso   1.00
O548   O     0.20536   0.09526   0.75367   0.00000  Uiso   1.00
O549   O     0.14092   0.16425   0.67207   0.00000  Uiso   1.00
O550   O     0.24152   0.17373   0.68160   0.00000  Uiso   1.00
O551   O     0.32987   0.21475   0.59808   0.00000  Uiso   1.00
H552   H     0.31302   0.23645   0.62704   0.00000  Uiso   1.00
O553   O     0.07947   0.31423   0.76896   0.00000  Uiso   1.00
H554   H     0.04943   0.00415   0.77736   0.00000  Uiso   1.00
O555   O     0.32455   0.12012   0.70138   0.00000  Uiso   1.00
H556   H     0.02431   0.10243   0.68331   0.00000  Uiso   1.00
O557   O     0.01875   0.08284   0.87992   0.00000  Uiso   1.00
H558   H     0.31858   0.05333   0.89457   0.00000  Uiso   1.00
O559   O     0.06028   0.08424   0.55070   0.00000  Uiso   1.00
H560   H     0.09438   0.07010   0.55929   0.00000  Uiso   1.00
O561   O     0.31295   0.05583   0.98486   0.00000  Uiso   1.00
C562   C     0.31614   0.00242   0.98448   0.00000  Uiso   1.00
H563   H     0.00864   0.32845   0.51388   0.00000  Uiso   1.00
H564   H     0.00432   0.32203   0.94604   0.00000  Uiso   1.00
H565   H     0.26805   0.31160   0.99406   0.00000  Uiso   1.00
O566   O     0.24491   0.11118   0.86308   0.00000  Uiso   1.00
C567   C     0.21363   0.05758   0.86434   0.00000  Uiso   1.00
H568   H     0.20893   0.03975   0.90220   0.00000  Uiso   1.00
H569   H     0.24123   0.03533   0.83538   0.00000  Uiso   1.00
H570   H     0.16697   0.05244   0.85428   0.00000  Uiso   1.00
C571   C     0.51484   0.26663   0.75152   0.00000  Uiso   1.00
C572   C     0.47553   0.13053   0.98295   0.00000  Uiso   1.00
C573   C     0.49448   0.13469   0.92930   0.00000  Uiso   1.00
C574   C     0.52139   0.15156   0.51389   0.00000  Uiso   1.00
C575   C     0.58497   0.16719   0.99012   0.00000  Uiso   1.00
C576   C     0.60264   0.15943   0.93767   0.00000  Uiso   1.00
C577   C     0.55827   0.13673   0.90865   0.00000  Uiso   1.00
C578   C     0.50632   0.15967   0.56702   0.00000  Uiso   1.00
C579   C     0.61571   0.19264   0.57221   0.00000  Uiso   1.00
C580   C     0.44916   0.13158   0.89802   0.00000  Uiso   1.00
C581   C     0.52263   0.32239   0.74979   0.00000  Uiso   1.00
C582   C     0.46675   0.15432   0.84556   0.00000  Uiso   1.00
C583   C     0.47306   0.01083   0.75593   0.00000  Uiso   1.00
C584   C     0.48409   0.06673   0.75048   0.00000  Uiso   1.00
C585   C     0.53352   0.17230   0.65297   0.00000  Uiso   1.00
C586   C     0.63100   0.18773   0.51915   0.00000  Uiso   1.00
C587   C     0.55279   0.17591   0.59684   0.00000  Uiso   1.00
C588   C     0.38963   0.10100   0.91539   0.00000  Uiso   1.00
C589   C     0.37204   0.08555   0.96716   0.00000  Uiso   1.00
C590   C     0.41333   0.10249   0.50157   0.00000  Uiso   1.00
Cu591  Cu    0.44043   0.16105   0.74435   0.00000  Uiso   1.00
Cu592  Cu    0.55957   0.17228   0.75564   0.00000  Uiso   1.00
H593   H     0.33680   0.20561   0.79033   0.00000  Uiso   1.00
H594   H     0.65126   0.16819   0.91961   0.00000  Uiso   1.00
H595   H     0.34605   0.19985   0.50051   0.00000  Uiso   1.00
H596   H     0.45823   0.15395   0.58584   0.00000  Uiso   1.00
H597   H     0.57006   0.01245   0.74197   0.00000  Uiso   1.00
N598   N     0.64908   0.18074   0.76416   0.00000  Uiso   1.00
N599   N     0.35092   0.15259   0.73584   0.00000  Uiso   1.00
O600   O     0.46131   0.23807   0.74633   0.00000  Uiso   1.00
O601   O     0.56191   0.24755   0.75586   0.00000  Uiso   1.00
O602   O     0.42515   0.15960   0.81839   0.00000  Uiso   1.00
O603   O     0.52575   0.16908   0.82793   0.00000  Uiso   1.00
O604   O     0.43809   0.08578   0.74413   0.00000  Uiso   1.00
O605   O     0.53869   0.09526   0.75367   0.00000  Uiso   1.00
O606   O     0.47425   0.16425   0.67207   0.00000  Uiso   1.00
O607   O     0.57485   0.17373   0.68160   0.00000  Uiso   1.00
O608   O     0.66320   0.21475   0.59808   0.00000  Uiso   1.00
H609   H     0.64635   0.23645   0.62704   0.00000  Uiso   1.00
O610   O     0.41280   0.31423   0.76896   0.00000  Uiso   1.00
H611   H     0.38276   0.00415   0.77736   0.00000  Uiso   1.00
O612   O     0.65788   0.12012   0.70138   0.00000  Uiso   1.00
H613   H     0.35764   0.10243   0.68331   0.00000  Uiso   1.00
O614   O     0.35208   0.08284   0.87992   0.00000  Uiso   1.00
H615   H     0.65191   0.05333   0.89457   0.00000  Uiso   1.00
O616   O     0.39361   0.08424   0.55070   0.00000  Uiso   1.00
H617   H     0.42771   0.07010   0.55929   0.00000  Uiso   1.00
O618   O     0.64628   0.05583   0.98486   0.00000  Uiso   1.00
C619   C     0.64947   0.00242   0.98448   0.00000  Uiso   1.00
H620   H     0.34197   0.32845   0.51388   0.00000  Uiso   1.00
H621   H     0.33765   0.32203   0.94604   0.00000  Uiso   1.00
H622   H     0.60138   0.31160   0.99406   0.00000  Uiso   1.00
O623   O     0.57825   0.11118   0.86308   0.00000  Uiso   1.00
C624   C     0.54697   0.05758   0.86434   0.00000  Uiso   1.00
H625   H     0.54226   0.03975   0.90220   0.00000  Uiso   1.00
H626   H     0.57456   0.03533   0.83538   0.00000  Uiso   1.00
H627   H     0.50030   0.05244   0.85428   0.00000  Uiso   1.00
C628   C     0.84817   0.26663   0.75152   0.00000  Uiso   1.00
C629   C     0.80887   0.13053   0.98295   0.00000  Uiso   1.00
C630   C     0.82781   0.13469   0.92930   0.00000  Uiso   1.00
C631   C     0.85472   0.15156   0.51389   0.00000  Uiso   1.00
C632   C     0.91831   0.16719   0.99012   0.00000  Uiso   1.00
C633   C     0.93597   0.15943   0.93767   0.00000  Uiso   1.00
C634   C     0.89160   0.13673   0.90865   0.00000  Uiso   1.00
C635   C     0.83966   0.15967   0.56702   0.00000  Uiso   1.00
C636   C     0.94904   0.19264   0.57221   0.00000  Uiso   1.00
C637   C     0.78249   0.13158   0.89802   0.00000  Uiso   1.00
C638   C     0.85597   0.32239   0.74979   0.00000  Uiso   1.00
C639   C     0.80008   0.15432   0.84556   0.00000  Uiso   1.00
C640   C     0.80639   0.01083   0.75593   0.00000  Uiso   1.00
C641   C     0.81743   0.06673   0.75048   0.00000  Uiso   1.00
C642   C     0.86685   0.17230   0.65297   0.00000  Uiso   1.00
C643   C     0.96433   0.18773   0.51915   0.00000  Uiso   1.00
C644   C     0.88612   0.17591   0.59684   0.00000  Uiso   1.00
C645   C     0.72296   0.10100   0.91539   0.00000  Uiso   1.00
C646   C     0.70537   0.08555   0.96716   0.00000  Uiso   1.00
C647   C     0.74666   0.10249   0.50157   0.00000  Uiso   1.00
Cu648  Cu    0.77377   0.16105   0.74435   0.00000  Uiso   1.00
Cu649  Cu    0.89290   0.17228   0.75564   0.00000  Uiso   1.00
H650   H     0.67013   0.20561   0.79033   0.00000  Uiso   1.00
H651   H     0.98459   0.16819   0.91961   0.00000  Uiso   1.00
H652   H     0.67939   0.19985   0.50051   0.00000  Uiso   1.00
H653   H     0.79156   0.15395   0.58584   0.00000  Uiso   1.00
H654   H     0.90339   0.01245   0.74197   0.00000  Uiso   1.00
N655   N     0.98241   0.18074   0.76416   0.00000  Uiso   1.00
N656   N     0.68426   0.15259   0.73584   0.00000  Uiso   1.00
O657   O     0.79464   0.23807   0.74633   0.00000  Uiso   1.00
O658   O     0.89524   0.24755   0.75586   0.00000  Uiso   1.00
O659   O     0.75848   0.15960   0.81839   0.00000  Uiso   1.00
O660   O     0.85908   0.16908   0.82793   0.00000  Uiso   1.00
O661   O     0.77142   0.08578   0.74413   0.00000  Uiso   1.00
O662   O     0.87203   0.09526   0.75367   0.00000  Uiso   1.00
O663   O     0.80758   0.16425   0.67207   0.00000  Uiso   1.00
O664   O     0.90819   0.17373   0.68160   0.00000  Uiso   1.00
O665   O     0.99654   0.21475   0.59808   0.00000  Uiso   1.00
H666   H     0.97969   0.23645   0.62704   0.00000  Uiso   1.00
O667   O     0.74614   0.31423   0.76896   0.00000  Uiso   1.00
H668   H     0.71610   0.00415   0.77736   0.00000  Uiso   1.00
O669   O     0.99122   0.12012   0.70138   0.00000  Uiso   1.00
H670   H     0.69098   0.10243   0.68331   0.00000  Uiso   1.00
O671   O     0.68542   0.08284   0.87992   0.00000  Uiso   1.00
H672   H     0.98524   0.05333   0.89457   0.00000  Uiso   1.00
O673   O     0.72694   0.08424   0.55070   0.00000  Uiso   1.00
H674   H     0.76105   0.07010   0.55929   0.00000  Uiso   1.00
O675   O     0.97962   0.05583   0.98486   0.00000  Uiso   1.00
C676   C     0.98281   0.00242   0.98448   0.00000  Uiso   1.00
H677   H     0.67531   0.32845   0.51388   0.00000  Uiso   1.00
H678   H     0.67099   0.32203   0.94604   0.00000  Uiso   1.00
H679   H     0.93471   0.31160   0.99406   0.00000  Uiso   1.00
O680   O     0.91158   0.11118   0.86308   0.00000  Uiso   1.00
C681   C     0.88030   0.05758   0.86434   0.00000  Uiso   1.00
H682   H     0.87559   0.03975   0.90220   0.00000  Uiso   1.00
H683   H     0.90790   0.03533   0.83538   0.00000  Uiso   1.00
H684   H     0.83364   0.05244   0.85428   0.00000  Uiso   1.00
C685   C     0.18151   0.59996   0.75152   0.00000  Uiso   1.00
C686   C     0.14220   0.46387   0.98295   0.00000  Uiso   1.00
C687   C     0.16114   0.46803   0.92930   0.00000  Uiso   1.00
C688   C     0.18805   0.48490   0.51389   0.00000  Uiso   1.00
C689   C     0.25164   0.50053   0.99012   0.00000  Uiso   1.00
C690   C     0.26930   0.49276   0.93767   0.00000  Uiso   1.00
C691   C     0.22493   0.47006   0.90865   0.00000  Uiso   1.00
C692   C     0.17299   0.49300   0.56702   0.00000  Uiso   1.00
C693   C     0.28238   0.52597   0.57221   0.00000  Uiso   1.00
C694   C     0.11582   0.46491   0.89802   0.00000  Uiso   1.00
C695   C     0.18930   0.65572   0.74979   0.00000  Uiso   1.00
C696   C     0.13341   0.48765   0.84556   0.00000  Uiso   1.00
C697   C     0.13973   0.34416   0.75593   0.00000  Uiso   1.00
C698   C     0.15076   0.40006   0.75048   0.00000  Uiso   1.00
C699   C     0.20019   0.50563   0.65297   0.00000  Uiso   1.00
C700   C     0.29766   0.52106   0.51915   0.00000  Uiso   1.00
C701   C     0.21945   0.50924   0.59684   0.00000  Uiso   1.00
C702   C     0.05630   0.43434   0.91539   0.00000  Uiso   1.00
C703   C     0.03870   0.41888   0.96716   0.00000  Uiso   1.00
C704   C     0.08000   0.43583   0.50157   0.00000  Uiso   1.00
Cu705  Cu    0.10710   0.49439   0.74435   0.00000  Uiso   1.00
Cu706  Cu    0.22623   0.50561   0.75564   0.00000  Uiso   1.00
H707   H     0.00347   0.53894   0.79033   0.00000  Uiso   1.00
H708   H     0.31793   0.50153   0.91961   0.00000  Uiso   1.00
H709   H     0.01272   0.53319   0.50051   0.00000  Uiso   1.00
H710   H     0.12490   0.48729   0.58584   0.00000  Uiso   1.00
H711   H     0.23672   0.34579   0.74197   0.00000  Uiso   1.00
N712   N     0.31574   0.51407   0.76416   0.00000  Uiso   1.00
N713   N     0.01759   0.48593   0.73584   0.00000  Uiso   1.00
O714   O     0.12797   0.57141   0.74633   0.00000  Uiso   1.00
O715   O     0.22858   0.58089   0.75586   0.00000  Uiso   1.00
O716   O     0.09181   0.49293   0.81839   0.00000  Uiso   1.00
O717   O     0.19242   0.50241   0.82793   0.00000  Uiso   1.00
O718   O     0.10476   0.41911   0.74413   0.00000  Uiso   1.00
O719   O     0.20536   0.42859   0.75367   0.00000  Uiso   1.00
O720   O     0.14092   0.49759   0.67207   0.00000  Uiso   1.00
O721   O     0.24152   0.50707   0.68160   0.00000  Uiso   1.00
O722   O     0.32987   0.54808   0.59808   0.00000  Uiso   1.00
H723   H     0.31302   0.56978   0.62704   0.00000  Uiso   1.00
O724   O     0.07947   0.64757   0.76896   0.00000  Uiso   1.00
H725   H     0.04943   0.33749   0.77736   0.00000  Uiso   1.00
O726   O     0.32455   0.45345   0.70138   0.00000  Uiso   1.00
H727   H     0.02431   0.43577   0.68331   0.00000  Uiso   1.00
O728   O     0.01875   0.41617   0.87992   0.00000  Uiso   1.00
H729   H     0.31858   0.38666   0.89457   0.00000  Uiso   1.00
O730   O     0.06028   0.41758   0.55070   0.00000  Uiso   1.00
H731   H     0.09438   0.40343   0.55929   0.00000  Uiso   1.00
O732   O     0.31295   0.38917   0.98486   0.00000  Uiso   1.00
C733   C     0.31614   0.33576   0.98448   0.00000  Uiso   1.00
H734   H     0.00864   0.66179   0.51388   0.00000  Uiso   1.00
H735   H     0.00432   0.65537   0.94604   0.00000  Uiso   1.00
H736   H     0.26805   0.64493   0.99406   0.00000  Uiso   1.00
O737   O     0.24491   0.44452   0.86308   0.00000  Uiso   1.00
C738   C     0.21363   0.39091   0.86434   0.00000  Uiso   1.00
H739   H     0.20893   0.37308   0.90220   0.00000  Uiso   1.00
H740   H     0.24123   0.36866   0.83538   0.00000  Uiso   1.00
H741   H     0.16697   0.38578   0.85428   0.00000  Uiso   1.00
C742   C     0.51484   0.59996   0.75152   0.00000  Uiso   1.00
C743   C     0.47553   0.46387   0.98295   0.00000  Uiso   1.00
C744   C     0.49448   0.46803   0.92930   0.00000  Uiso   1.00
C745   C     0.52139   0.48490   0.51389   0.00000  Uiso   1.00
C746   C     0.58497   0.50053   0.99012   0.00000  Uiso   1.00
C747   C     0.60264   0.49276   0.93767   0.00000  Uiso   1.00
C748   C     0.55827   0.47006   0.90865   0.00000  Uiso   1.00
C749   C     0.50632   0.49300   0.56702   0.00000  Uiso   1.00
C750   C     0.61571   0.52597   0.57221   0.00000  Uiso   1.00
C751   C     0.44916   0.46491   0.89802   0.00000  Uiso   1.00
C752   C     0.52263   0.65572   0.74979   0.00000  Uiso   1.00
C753   C     0.46675   0.48765   0.84556   0.00000  Uiso   1.00
C754   C     0.47306   0.34416   0.75593   0.00000  Uiso   1.00
C755   C     0.48409   0.40006   0.75048   0.00000  Uiso   1.00
C756   C     0.53352   0.50563   0.65297   0.00000  Uiso   1.00
C757   C     0.63100   0.52106   0.51915   0.00000  Uiso   1.00
C758   C     0.55279   0.50924   0.59684   0.00000  Uiso   1.00
C759   C     0.38963   0.43434   0.91539   0.00000  Uiso   1.00
C760   C     0.37204   0.41888   0.96716   0.00000  Uiso   1.00
C761   C     0.41333   0.43583   0.50157   0.00000  Uiso   1.00
Cu762  Cu    0.44043   0.49439   0.74435   0.00000  Uiso   1.00
Cu763  Cu    0.55957   0.50561   0.75564   0.00000  Uiso   1.00
H764   H     0.33680   0.53894   0.79033   0.00000  Uiso   1.00
H765   H     0.65126   0.50153   0.91961   0.00000  Uiso   1.00
H766   H     0.34605   0.53319   0.50051   0.00000  Uiso   1.00
H767   H     0.45823   0.48729   0.58584   0.00000  Uiso   1.00
H768   H     0.57006   0.34579   0.74197   0.00000  Uiso   1.00
N769   N     0.64908   0.51407   0.76416   0.00000  Uiso   1.00
N770   N     0.35092   0.48593   0.73584   0.00000  Uiso   1.00
O771   O     0.46131   0.57141   0.74633   0.00000  Uiso   1.00
O772   O     0.56191   0.58089   0.75586   0.00000  Uiso   1.00
O773   O     0.42515   0.49293   0.81839   0.00000  Uiso   1.00
O774   O     0.52575   0.50241   0.82793   0.00000  Uiso   1.00
O775   O     0.43809   0.41911   0.74413   0.00000  Uiso   1.00
O776   O     0.53869   0.42859   0.75367   0.00000  Uiso   1.00
O777   O     0.47425   0.49759   0.67207   0.00000  Uiso   1.00
O778   O     0.57485   0.50707   0.68160   0.00000  Uiso   1.00
O779   O     0.66320   0.54808   0.59808   0.00000  Uiso   1.00
H780   H     0.64635   0.56978   0.62704   0.00000  Uiso   1.00
O781   O     0.41280   0.64757   0.76896   0.00000  Uiso   1.00
H782   H     0.38276   0.33749   0.77736   0.00000  Uiso   1.00
O783   O     0.65788   0.45345   0.70138   0.00000  Uiso   1.00
H784   H     0.35764   0.43577   0.68331   0.00000  Uiso   1.00
O785   O     0.35208   0.41617   0.87992   0.00000  Uiso   1.00
H786   H     0.65191   0.38666   0.89457   0.00000  Uiso   1.00
O787   O     0.39361   0.41758   0.55070   0.00000  Uiso   1.00
H788   H     0.42771   0.40343   0.55929   0.00000  Uiso   1.00
O789   O     0.64628   0.38917   0.98486   0.00000  Uiso   1.00
C790   C     0.64947   0.33576   0.98448   0.00000  Uiso   1.00
H791   H     0.34197   0.66179   0.51388   0.00000  Uiso   1.00
H792   H     0.33765   0.65537   0.94604   0.00000  Uiso   1.00
H793   H     0.60138   0.64493   0.99406   0.00000  Uiso   1.00
O794   O     0.57825   0.44452   0.86308   0.00000  Uiso   1.00
C795   C     0.54697   0.39091   0.86434   0.00000  Uiso   1.00
H796   H     0.54226   0.37308   0.90220   0.00000  Uiso   1.00
H797   H     0.57456   0.36866   0.83538   0.00000  Uiso   1.00
H798   H     0.50030   0.38578   0.85428   0.00000  Uiso   1.00
C799   C     0.84817   0.59996   0.75152   0.00000  Uiso   1.00
C800   C     0.80887   0.46387   0.98295   0.00000  Uiso   1.00
C801   C     0.82781   0.46803   0.92930   0.00000  Uiso   1.00
C802   C     0.85472   0.48490   0.51389   0.00000  Uiso   1.00
C803   C     0.91831   0.50053   0.99012   0.00000  Uiso   1.00
C804   C     0.93597   0.49276   0.93767   0.00000  Uiso   1.00
C805   C     0.89160   0.47006   0.90865   0.00000  Uiso   1.00
C806   C     0.83966   0.49300   0.56702   0.00000  Uiso   1.00
C807   C     0.94904   0.52597   0.57221   0.00000  Uiso   1.00
C808   C     0.78249   0.46491   0.89802   0.00000  Uiso   1.00
C809   C     0.85597   0.65572   0.74979   0.00000  Uiso   1.00
C810   C     0.80008   0.48765   0.84556   0.00000  Uiso   1.00
C811   C     0.80639   0.34416   0.75593   0.00000  Uiso   1.00
C812   C     0.81743   0.40006   0.75048   0.00000  Uiso   1.00
C813   C     0.86685   0.50563   0.65297   0.00000  Uiso   1.00
C814   C     0.96433   0.52106   0.51915   0.00000  Uiso   1.00
C815   C     0.88612   0.50924   0.59684   0.00000  Uiso   1.00
C816   C     0.72296   0.43434   0.91539   0.00000  Uiso   1.00
C817   C     0.70537   0.41888   0.96716   0.00000  Uiso   1.00
C818   C     0.74666   0.43583   0.50157   0.00000  Uiso   1.00
Cu819  Cu    0.77377   0.49439   0.74435   0.00000  Uiso   1.00
Cu820  Cu    0.89290   0.50561   0.75564   0.00000  Uiso   1.00
H821   H     0.67013   0.53894   0.79033   0.00000  Uiso   1.00
H822   H     0.98459   0.50153   0.91961   0.00000  Uiso   1.00
H823   H     0.67939   0.53319   0.50051   0.00000  Uiso   1.00
H824   H     0.79156   0.48729   0.58584   0.00000  Uiso   1.00
H825   H     0.90339   0.34579   0.74197   0.00000  Uiso   1.00
N826   N     0.98241   0.51407   0.76416   0.00000  Uiso   1.00
N827   N     0.68426   0.48593   0.73584   0.00000  Uiso   1.00
O828   O     0.79464   0.57141   0.74633   0.00000  Uiso   1.00
O829   O     0.89524   0.58089   0.75586   0.00000  Uiso   1.00
O830   O     0.75848   0.49293   0.81839   0.00000  Uiso   1.00
O831   O     0.85908   0.50241   0.82793   0.00000  Uiso   1.00
O832   O     0.77142   0.41911   0.74413   0.00000  Uiso   1.00
O833   O     0.87203   0.42859   0.75367   0.00000  Uiso   1.00
O834   O     0.80758   0.49759   0.67207   0.00000  Uiso   1.00
O835   O     0.90819   0.50707   0.68160   0.00000  Uiso   1.00
O836   O     0.99654   0.54808   0.59808   0.00000  Uiso   1.00
H837   H     0.97969   0.56978   0.62704   0.00000  Uiso   1.00
O838   O     0.74614   0.64757   0.76896   0.00000  Uiso   1.00
H839   H     0.71610   0.33749   0.77736   0.00000  Uiso   1.00
O840   O     0.99122   0.45345   0.70138   0.00000  Uiso   1.00
H841   H     0.69098   0.43577   0.68331   0.00000  Uiso   1.00
O842   O     0.68542   0.41617   0.87992   0.00000  Uiso   1.00
H843   H     0.98524   0.38666   0.89457   0.00000  Uiso   1.00
O844   O     0.72694   0.41758   0.55070   0.00000  Uiso   1.00
H845   H     0.76105   0.40343   0.55929   0.00000  Uiso   1.00
O846   O     0.97962   0.38917   0.98486   0.00000  Uiso   1.00
C847   C     0.98281   0.33576   0.98448   0.00000  Uiso   1.00
H848   H     0.67531   0.66179   0.51388   0.00000  Uiso   1.00
H849   H     0.67099   0.65537   0.94604   0.00000  Uiso   1.00
H850   H     0.93471   0.64493   0.99406   0.00000  Uiso   1.00
O851   O     0.91158   0.44452   0.86308   0.00000  Uiso   1.00
C852   C     0.88030   0.39091   0.86434   0.00000  Uiso   1.00
H853   H     0.87559   0.37308   0.90220   0.00000  Uiso   1.00
H854   H     0.90790   0.36866   0.83538   0.00000  Uiso   1.00
H855   H     0.83364   0.38578   0.85428   0.00000  Uiso   1.00
C856   C     0.18151   0.93330   0.75152   0.00000  Uiso   1.00
C857   C     0.14220   0.79720   0.98295   0.00000  Uiso   1.00
C858   C     0.16114   0.80136   0.92930   0.00000  Uiso   1.00
C859   C     0.18805   0.81823   0.51389   0.00000  Uiso   1.00
C860   C     0.25164   0.83386   0.99012   0.00000  Uiso   1.00
C861   C     0.26930   0.82609   0.93767   0.00000  Uiso   1.00
C862   C     0.22493   0.80340   0.90865   0.00000  Uiso   1.00
C863   C     0.17299   0.82633   0.56702   0.00000  Uiso   1.00
C864   C     0.28238   0.85930   0.57221   0.00000  Uiso   1.00
C865   C     0.11582   0.79825   0.89802   0.00000  Uiso   1.00
C866   C     0.18930   0.98906   0.74979   0.00000  Uiso   1.00
C867   C     0.13341   0.82099   0.84556   0.00000  Uiso   1.00
C868   C     0.13973   0.67749   0.75593   0.00000  Uiso   1.00
C869   C     0.15076   0.73340   0.75048   0.00000  Uiso   1.00
C870   C     0.20019   0.83896   0.65297   0.00000  Uiso   1.00
C871   C     0.29766   0.85440   0.51915   0.00000  Uiso   1.00
C872   C     0.21945   0.84257   0.59684   0.00000  Uiso   1.00
C873   C     0.05630   0.76767   0.91539   0.00000  Uiso   1.00
C874   C     0.03870   0.75221   0.96716   0.00000  Uiso   1.00
C875   C     0.08000   0.76916   0.50157   0.00000  Uiso   1.00
Cu876  Cu    0.10710   0.82772   0.74435   0.00000  Uiso   1.00
Cu877  Cu    0.22623   0.83895   0.75564   0.00000  Uiso   1.00
H878   H     0.00347   0.87228   0.79033   0.00000  Uiso   1.00
H879   H     0.31793   0.83486   0.91961   0.00000  Uiso   1.00
H880   H     0.01272   0.86652   0.50051   0.00000  Uiso   1.00
H881   H     0.12490   0.82062   0.58584   0.00000  Uiso   1.00
H882   H     0.23672   0.67912   0.74197   0.00000  Uiso   1.00
N883   N     0.31574   0.84741   0.76416   0.00000  Uiso   1.00
N884   N     0.01759   0.81926   0.73584   0.00000  Uiso   1.00
O885   O     0.12797   0.90474   0.74633   0.00000  Uiso   1.00
O886   O     0.22858   0.91422   0.75586   0.00000  Uiso   1.00
O887   O     0.09181   0.82627   0.81839   0.00000  Uiso   1.00
O888   O     0.19242   0.83575   0.82793   0.00000  Uiso   1.00
O889   O     0.10476   0.75245   0.74413   0.00000  Uiso   1.00
O890   O     0.20536   0.76193   0.75367   0.00000  Uiso   1.00
O891   O     0.14092   0.83092   0.67207   0.00000  Uiso   1.00
O892   O     0.24152   0.84040   0.68160   0.00000  Uiso   1.00
O893   O     0.32987   0.88141   0.59808   0.00000  Uiso   1.00
H894   H     0.31302   0.90311   0.62704   0.00000  Uiso   1.00
O895   O     0.07947   0.98090   0.76896   0.00000  Uiso   1.00
H896   H     0.04943   0.67082   0.77736   0.00000  Uiso   1.00
O897   O     0.32455   0.78679   0.70138   0.00000  Uiso   1.00
H898   H     0.02431   0.76910   0.68331   0.00000  Uiso   1.00
O899   O     0.01875   0.74950   0.87992   0.00000  Uiso   1.00
H900   H     0.31858   0.71999   0.89457   0.00000  Uiso   1.00
O901   O     0.06028   0.75091   0.55070   0.00000  Uiso   1.00
H902   H     0.09438   0.73677   0.55929   0.00000  Uiso   1.00
O903   O     0.31295   0.72250   0.98486   0.00000  Uiso   1.00
C904   C     0.31614   0.66909   0.98448   0.00000  Uiso   1.00
H905   H     0.00864   0.99512   0.51388   0.00000  Uiso   1.00
H906   H     0.00432   0.98870   0.94604   0.00000  Uiso   1.00
H907   H     0.26805   0.97827   0.99406   0.00000  Uiso   1.00
O908   O     0.24491   0.77785   0.86308   0.00000  Uiso   1.00
C909   C     0.21363   0.72425   0.86434   0.00000  Uiso   1.00
H910   H     0.20893   0.70642   0.90220   0.00000  Uiso   1.00
H911   H     0.24123   0.70200   0.83538   0.00000  Uiso   1.00
H912   H     0.16697   0.71911   0.85428   0.00000  Uiso   1.00
C913   C     0.51484   0.93330   0.75152   0.00000  Uiso   1.00
C914   C     0.47553   0.79720   0.98295   0.00000  Uiso   1.00
C915   C     0.49448   0.80136   0.92930   0.00000  Uiso   1.00
C916   C     0.52139   0.81823   0.51389   0.00000  Uiso   1.00
C917   C     0.58497   0.83386   0.99012   0.00000  Uiso   1.00
C918   C     0.60264   0.82609   0.93767   0.00000  Uiso   1.00
C919   C     0.55827   0.80340   0.90865   0.00000  Uiso   1.00
C920   C     0.50632   0.82633   0.56702   0.00000  Uiso   1.00
C921   C     0.61571   0.85930   0.57221   0.00000  Uiso   1.00
C922   C     0.44916   0.79825   0.89802   0.00000  Uiso   1.00
C923   C     0.52263   0.98906   0.74979   0.00000  Uiso   1.00
C924   C     0.46675   0.82099   0.84556   0.00000  Uiso   1.00
C925   C     0.47306   0.67749   0.75593   0.00000  Uiso   1.00
C926   C     0.48409   0.73340   0.75048   0.00000  Uiso   1.00
C927   C     0.53352   0.83896   0.65297   0.00000  Uiso   1.00
C928   C     0.63100   0.85440   0.51915   0.00000  Uiso   1.00
C929   C     0.55279   0.84257   0.59684   0.00000  Uiso   1.00
C930   C     0.38963   0.76767   0.91539   0.00000  Uiso   1.00
C931   C     0.37204   0.75221   0.96716   0.00000  Uiso   1.00
C932   C     0.41333   0.76916   0.50157   0.00000  Uiso   1.00
Cu933  Cu    0.44043   0.82772   0.74435   0.00000  Uiso   1.00
Cu934  Cu    0.55957   0.83895   0.75564   0.00000  Uiso   1.00
H935   H     0.33680   0.87228   0.79033   0.00000  Uiso   1.00
H936   H     0.65126   0.83486   0.91961   0.00000  Uiso   1.00
H937   H     0.34605   0.86652   0.50051   0.00000  Uiso   1.00
H938   H     0.45823   0.82062   0.58584   0.00000  Uiso   1.00
H939   H     0.57006   0.67912   0.74197   0.00000  Uiso   1.00
N940   N     0.64908   0.84741   0.76416   0.00000  Uiso   1.00
N941   N     0.35092   0.81926   0.73584   0.00000  Uiso   1.00
O942   O     0.46131   0.90474   0.74633   0.00000  Uiso   1.00
O943   O     0.56191   0.91422   0.75586   0.00000  Uiso   1.00
O944   O     0.42515   0.82627   0.81839   0.00000  Uiso   1.00
O945   O     0.52575   0.83575   0.82793   0.00000  Uiso   1.00
O946   O     0.43809   0.75245   0.74413   0.00000  Uiso   1.00
O947   O     0.53869   0.76193   0.75367   0.00000  Uiso   1.00
O948   O     0.47425   0.83092   0.67207   0.00000  Uiso   1.00
O949   O     0.57485   0.84040   0.68160   0.00000  Uiso   1.00
O950   O     0.66320   0.88141   0.59808   0.00000  Uiso   1.00
H951   H     0.64635   0.90311   0.62704   0.00000  Uiso   1.00
O952   O     0.41280   0.98090   0.76896   0.00000  Uiso   1.00
H953   H     0.38276   0.67082   0.77736   0.00000  Uiso   1.00
O954   O     0.65788   0.78679   0.70138   0.00000  Uiso   1.00
H955   H     0.35764   0.76910   0.68331   0.00000  Uiso   1.00
O956   O     0.35208   0.74950   0.87992   0.00000  Uiso   1.00
H957   H     0.65191   0.71999   0.89457   0.00000  Uiso   1.00
O958   O     0.39361   0.75091   0.55070   0.00000  Uiso   1.00
H959   H     0.42771   0.73677   0.55929   0.00000  Uiso   1.00
O960   O     0.64628   0.72250   0.98486   0.00000  Uiso   1.00
C961   C     0.64947   0.66909   0.98448   0.00000  Uiso   1.00
H962   H     0.34197   0.99512   0.51388   0.00000  Uiso   1.00
H963   H     0.33765   0.98870   0.94604   0.00000  Uiso   1.00
H964   H     0.60138   0.97827   0.99406   0.00000  Uiso   1.00
O965   O     0.57825   0.77785   0.86308   0.00000  Uiso   1.00
C966   C     0.54697   0.72425   0.86434   0.00000  Uiso   1.00
H967   H     0.54226   0.70642   0.90220   0.00000  Uiso   1.00
H968   H     0.57456   0.70200   0.83538   0.00000  Uiso   1.00
H969   H     0.50030   0.71911   0.85428   0.00000  Uiso   1.00
C970   C     0.84817   0.93330   0.75152   0.00000  Uiso   1.00
C971   C     0.80887   0.79720   0.98295   0.00000  Uiso   1.00
C972   C     0.82781   0.80136   0.92930   0.00000  Uiso   1.00
C973   C     0.85472   0.81823   0.51389   0.00000  Uiso   1.00
C974   C     0.91831   0.83386   0.99012   0.00000  Uiso   1.00
C975   C     0.93597   0.82609   0.93767   0.00000  Uiso   1.00
C976   C     0.89160   0.80340   0.90865   0.00000  Uiso   1.00
C977   C     0.83966   0.82633   0.56702   0.00000  Uiso   1.00
C978   C     0.94904   0.85930   0.57221   0.00000  Uiso   1.00
C979   C     0.78249   0.79825   0.89802   0.00000  Uiso   1.00
C980   C     0.85597   0.98906   0.74979   0.00000  Uiso   1.00
C981   C     0.80008   0.82099   0.84556   0.00000  Uiso   1.00
C982   C     0.80639   0.67749   0.75593   0.00000  Uiso   1.00
C983   C     0.81743   0.73340   0.75048   0.00000  Uiso   1.00
C984   C     0.86685   0.83896   0.65297   0.00000  Uiso   1.00
C985   C     0.96433   0.85440   0.51915   0.00000  Uiso   1.00
C986   C     0.88612   0.84257   0.59684   0.00000  Uiso   1.00
C987   C     0.72296   0.76767   0.91539   0.00000  Uiso   1.00
C988   C     0.70537   0.75221   0.96716   0.00000  Uiso   1.00
C989   C     0.74666   0.76916   0.50157   0.00000  Uiso   1.00
Cu990  Cu    0.77377   0.82772   0.74435   0.00000  Uiso   1.00
Cu991  Cu    0.89290   0.83895   0.75564   0.00000  Uiso   1.00
H992   H     0.67013   0.87228   0.79033   0.00000  Uiso   1.00
H993   H     0.98459   0.83486   0.91961   0.00000  Uiso   1.00
H994   H     0.67939   0.86652   0.50051   0.00000  Uiso   1.00
H995   H     0.79156   0.82062   0.58584   0.00000  Uiso   1.00
H996   H     0.90339   0.67912   0.74197   0.00000  Uiso   1.00
N997   N     0.98241   0.84741   0.76416   0.00000  Uiso   1.00
N998   N     0.68426   0.81926   0.73584   0.00000  Uiso   1.00
O999   O     0.79464   0.90474   0.74633   0.00000  Uiso   1.00
O1000  O     0.89524   0.91422   0.75586   0.00000  Uiso   1.00
O1001  O     0.75848   0.82627   0.81839   0.00000  Uiso   1.00
O1002  O     0.85908   0.83575   0.82793   0.00000  Uiso   1.00
O1003  O     0.77142   0.75245   0.74413   0.00000  Uiso   1.00
O1004  O     0.87203   0.76193   0.75367   0.00000  Uiso   1.00
O1005  O     0.80758   0.83092   0.67207   0.00000  Uiso   1.00
O1006  O     0.90819   0.84040   0.68160   0.00000  Uiso   1.00
O1007  O     0.99654   0.88141   0.59808   0.00000  Uiso   1.00
H1008  H     0.97969   0.90311   0.62704   0.00000  Uiso   1.00
O1009  O     0.74614   0.98090   0.76896   0.00000  Uiso   1.00
H1010  H     0.71610   0.67082   0.77736   0.00000  Uiso   1.00
O1011  O     0.99122   0.78679   0.70138   0.00000  Uiso   1.00
H1012  H     0.69098   0.76910   0.68331   0.00000  Uiso   1.00
O1013  O     0.68542   0.74950   0.87992   0.00000  Uiso   1.00
H1014  H     0.98524   0.71999   0.89457   0.00000  Uiso   1.00
O1015  O     0.72694   0.75091   0.55070   0.00000  Uiso   1.00
H1016  H     0.76105   0.73677   0.55929   0.00000  Uiso   1.00
O1017  O     0.97962   0.72250   0.98486   0.00000  Uiso   1.00
C1018  C     0.98281   0.66909   0.98448   0.00000  Uiso   1.00
H1019  H     0.67531   0.99512   0.51388   0.00000  Uiso   1.00
H1020  H     0.67099   0.98870   0.94604   0.00000  Uiso   1.00
H1021  H     0.93471   0.97827   0.99406   0.00000  Uiso   1.00
O1022  O     0.91158   0.77785   0.86308   0.00000  Uiso   1.00
C1023  C     0.88030   0.72425   0.86434   0.00000  Uiso   1.00
H1024  H     0.87559   0.70642   0.90220   0.00000  Uiso   1.00
H1025  H     0.90790   0.70200   0.83538   0.00000  Uiso   1.00
H1026  H     0.83364   0.71911   0.85428   0.00000  Uiso   1.00
loop_
_geom_bond_atom_site_label_1
_geom_bond_atom_site_label_2
_geom_bond_distance
_geom_bond_site_symmetry_2
_ccdc_geom_bond_type
C1     C11     1.430   .     S
C1     O30     1.289   .     A
C1     O31     1.293   .     A
C2     C3      1.411   .     A
C2     C517    1.434   .     S
C2     C533    1.429   .     S
C3     C10     1.422   .     A
C3     C7      1.418   .     A
C4     C8      1.400   .     A
C4     C515    1.434   1_554 S
C4     C518    1.420   1_554 S
C5     C6      1.388   .     A
C5     C517    1.420   .     S
C5     C529    1.399   .     S
C6     C7      1.383   .     A
C6     H24     1.081   .     S
C7     O53     1.388   .     S
C8     H26     1.077   .     S
C8     C17     1.406   .     A
C9     C17     1.416   .     A
C9     C16     1.390   .     A
C9     O38     1.378   .     S
C10    C12     1.500   .     S
C10    C18     1.399   .     A
C11    C184    1.338   .     S
C11    H198    1.088   .     S
C12    O32     1.324   .     A
C12    O33     1.291   .     A
C13    C14     1.437   .     S
C13    C353    1.338   1_545 S
C13    O382    1.389   1_545 S
C14    O34     1.287   .     A
C14    O35     1.296   .     A
C15    O36     1.300   .     A
C15    O37     1.305   .     A
C15    C17     1.474   .     S
C16    C518    1.399   1_554 S
C16    H82     1.085   .     S
C18    O44     1.378   .     S
C18    C19     1.417   .     A
C19    C533    1.410   .     S
C19    O162    1.385   1_455 S
C20    O46     1.377   .     S
C20    C532    1.410   1_554 S
C20    C515    1.429   1_554 S
Cu21   O30     1.959   .     S
Cu21   O36     1.924   .     S
Cu21   O32     1.934   .     S
Cu21   O34     1.955   .     S
Cu21   Cu22    2.696   .     S
Cu21   N29     2.026   .     S
Cu22   N28     2.026   .     S
Cu22   O35     1.959   .     S
Cu22   O31     1.955   .     S
Cu22   O33     1.924   .     S
Cu22   O37     1.934   .     S
H23    N142    1.029   1_455 S
H25    C130    1.085   1_455 S
H27    C353    1.088   1_545 S
N28    H80     1.029   .     S
N28    N86     1.297   .     S
N29    N142    1.297   1_455 S
N29    O156    1.338   1_455 S
O38    H39     0.990   .     S
O40    C184    1.389   .     S
O40    H212    0.990   .     S
H41    O382    0.990   1_545 S
O42    N86     1.338   .     S
O42    H100    0.990   .     S
H43    O156    0.990   1_455 S
O44    H159    0.987   1_455 S
H45    O101    0.987   .     S
O46    H47     0.992   .     S
O48    C49     1.412   .     S
O48    C76     1.385   .     S
C49    H962    1.111   1_545 S
C49    H450    1.114   1_545 S
C49    H394    1.110   1_545 S
H50    C847    1.111   1_454 S
H51    C334    1.114   1_455 S
H52    C220    1.110   .     S
O53    C54     1.416   .     S
C54    H56     1.108   .     S
C54    H55     1.115   .     S
C54    H57     1.108   .     S
C58    C68     1.430   .     S
C58    O87     1.289   .     A
C58    O88     1.293   .     A
C59    C60     1.411   .     A
C59    C574    1.434   .     S
C59    C590    1.429   .     S
C60    C67     1.422   .     A
C60    C64     1.418   .     A
C61    C65     1.400   .     A
C61    C572    1.434   1_554 S
C61    C575    1.420   1_554 S
C62    C63     1.388   .     A
C62    C574    1.420   .     S
C62    C586    1.399   .     S
C63    C64     1.383   .     A
C63    H81     1.081   .     S
C64    O110    1.388   .     S
C65    H83     1.077   .     S
C65    C74     1.406   .     A
C66    C74     1.416   .     A
C66    C73     1.390   .     A
C66    O95     1.378   .     S
C67    C69     1.500   .     S
C67    C75     1.399   .     A
C68    C241    1.338   .     S
C68    H255    1.088   .     S
C69    O89     1.324   .     A
C69    O90     1.291   .     A
C70    C71     1.437   .     S
C70    C410    1.338   1_545 S
C70    O439    1.389   1_545 S
C71    O91     1.287   .     A
C71    O92     1.296   .     A
C72    O93     1.300   .     A
C72    O94     1.305   .     A
C72    C74     1.474   .     S
C73    C575    1.399   1_554 S
C73    H139    1.085   .     S
C75    O101    1.378   .     S
C75    C76     1.417   .     A
C76    C590    1.410   .     S
C77    O103    1.377   .     S
C77    C589    1.410   1_554 S
C77    C572    1.429   1_554 S
Cu78   O87     1.959   .     S
Cu78   O93     1.924   .     S
Cu78   O89     1.934   .     S
Cu78   O91     1.955   .     S
Cu78   Cu79    2.696   .     S
Cu78   N86     2.026   .     S
Cu79   N85     2.026   .     S
Cu79   O92     1.959   .     S
Cu79   O88     1.955   .     S
Cu79   O90     1.924   .     S
Cu79   O94     1.934   .     S
H84    C410    1.088   1_545 S
N85    H137    1.029   .     S
N85    N143    1.297   .     S
O95    H96     0.990   .     S
O97    C241    1.389   .     S
O97    H269    0.990   .     S
H98    O439    0.990   1_545 S
O99    N143    1.338   .     S
O99    H157    0.990   .     S
H102   O158    0.987   .     S
O103   H104    0.992   .     S
O105   C106    1.412   .     S
O105   C133    1.385   .     S
C106   H1019   1.111   1_545 S
C106   H507    1.114   1_545 S
C106   H451    1.110   1_545 S
H107   C733    1.111   1_554 S
H108   C220    1.114   .     S
H109   C277    1.110   .     S
O110   C111    1.416   .     S
C111   H113    1.108   .     S
C111   H112    1.115   .     S
C111   H114    1.108   .     S
C115   C125    1.430   .     S
C115   O144    1.289   .     A
C115   O145    1.293   .     A
C116   C117    1.411   .     A
C116   C631    1.434   .     S
C116   C647    1.429   .     S
C117   C124    1.422   .     A
C117   C121    1.418   .     A
C118   C122    1.400   .     A
C118   C629    1.434   1_554 S
C118   C632    1.420   1_554 S
C119   C120    1.388   .     A
C119   C631    1.420   .     S
C119   C643    1.399   .     S
C120   C121    1.383   .     A
C120   H138    1.081   .     S
C121   O167    1.388   .     S
C122   H140    1.077   .     S
C122   C131    1.406   .     A
C123   C131    1.416   .     A
C123   C130    1.390   .     A
C123   O152    1.378   .     S
C124   C126    1.500   .     S
C124   C132    1.399   .     A
C125   C298    1.338   .     S
C125   H312    1.088   .     S
C126   O146    1.324   .     A
C126   O147    1.291   .     A
C127   C128    1.437   .     S
C127   C467    1.338   1_545 S
C127   O496    1.389   1_545 S
C128   O148    1.287   .     A
C128   O149    1.296   .     A
C129   O150    1.300   .     A
C129   O151    1.305   .     A
C129   C131    1.474   .     S
C130   C632    1.399   1_554 S
C130   H25     1.085   1_655 S
C132   O158    1.378   .     S
C132   C133    1.417   .     A
C133   C647    1.410   .     S
C134   O160    1.377   .     S
C134   C646    1.410   1_554 S
C134   C629    1.429   1_554 S
Cu135  O144    1.959   .     S
Cu135  O150    1.924   .     S
Cu135  O146    1.934   .     S
Cu135  O148    1.955   .     S
Cu135  Cu136   2.696   .     S
Cu135  N143    2.026   .     S
Cu136  N142    2.026   .     S
Cu136  O149    1.959   .     S
Cu136  O145    1.955   .     S
Cu136  O147    1.924   .     S
Cu136  O151    1.934   .     S
H141   C467    1.088   1_545 S
N142   H23     1.029   1_655 S
N142   N29     1.297   1_655 S
O152   H153    0.990   .     S
O154   C298    1.389   .     S
O154   H326    0.990   .     S
H155   O496    0.990   1_545 S
O156   N29     1.338   1_655 S
O156   H43     0.990   1_655 S
H159   O44     0.987   1_655 S
O160   H161    0.992   .     S
O162   C163    1.412   .     S
O162   C19     1.385   1_655 S
C163   H905    1.111   1_645 S
C163   H393    1.114   1_645 S
C163   H508    1.110   1_545 S
H164   C790    1.111   1_554 S
H165   C277    1.114   .     S
H166   C334    1.110   .     S
O167   C168    1.416   .     S
C168   H170    1.108   .     S
C168   H169    1.115   .     S
C168   H171    1.108   .     S
C172   C182    1.430   .     S
C172   O201    1.289   .     A
C172   O202    1.293   .     A
C173   C174    1.411   .     A
C173   C688    1.434   .     S
C173   C704    1.429   .     S
C174   C181    1.422   .     A
C174   C178    1.418   .     A
C175   C179    1.400   .     A
C175   C686    1.434   1_554 S
C175   C689    1.420   1_554 S
C176   C177    1.388   .     A
C176   C688    1.420   .     S
C176   C700    1.399   .     S
C177   C178    1.383   .     A
C177   H195    1.081   .     S
C178   O224    1.388   .     S
C179   H197    1.077   .     S
C179   C188    1.406   .     A
C180   C188    1.416   .     A
C180   C187    1.390   .     A
C180   O209    1.378   .     S
C181   C183    1.500   .     S
C181   C189    1.399   .     A
C182   C355    1.338   .     S
C182   H369    1.088   .     S
C183   O203    1.324   .     A
C183   O204    1.291   .     A
C184   C185    1.437   .     S
C185   O205    1.287   .     A
C185   O206    1.296   .     A
C186   O207    1.300   .     A
C186   O208    1.305   .     A
C186   C188    1.474   .     S
C187   C689    1.399   1_554 S
C187   H253    1.085   .     S
C189   O215    1.378   .     S
C189   C190    1.417   .     A
C190   C704    1.410   .     S
C190   O333    1.385   1_455 S
C191   O217    1.377   .     S
C191   C703    1.410   1_554 S
C191   C686    1.429   1_554 S
Cu192  O201    1.959   .     S
Cu192  O207    1.924   .     S
Cu192  O203    1.934   .     S
Cu192  O205    1.955   .     S
Cu192  Cu193   2.696   .     S
Cu192  N200    2.026   .     S
Cu193  N199    2.026   .     S
Cu193  O206    1.959   .     S
Cu193  O202    1.955   .     S
Cu193  O204    1.924   .     S
Cu193  O208    1.934   .     S
H194   N313    1.029   1_455 S
H196   C301    1.085   1_455 S
N199   H251    1.029   .     S
N199   N257    1.297   .     S
N200   N313    1.297   1_455 S
N200   O327    1.338   1_455 S
O209   H210    0.990   .     S
O211   C355    1.389   .     S
O211   H383    0.990   .     S
O213   N257    1.338   .     S
O213   H271    0.990   .     S
H214   O327    0.990   1_455 S
O215   H330    0.987   1_455 S
H216   O272    0.987   .     S
O217   H218    0.992   .     S
O219   C220    1.412   .     S
O219   C247    1.385   .     S
C220   H620    1.111   .     S
H221   C1018   1.111   1_454 S
H222   C505    1.114   1_455 S
H223   C391    1.110   .     S
O224   C225    1.416   .     S
C225   H227    1.108   .     S
C225   H226    1.115   .     S
C225   H228    1.108   .     S
C229   C239    1.430   .     S
C229   O258    1.289   .     A
C229   O259    1.293   .     A
C230   C231    1.411   .     A
C230   C745    1.434   .     S
C230   C761    1.429   .     S
C231   C238    1.422   .     A
C231   C235    1.418   .     A
C232   C236    1.400   .     A
C232   C743    1.434   1_554 S
C232   C746    1.420   1_554 S
C233   C234    1.388   .     A
C233   C745    1.420   .     S
C233   C757    1.399   .     S
C234   C235    1.383   .     A
C234   H252    1.081   .     S
C235   O281    1.388   .     S
C236   H254    1.077   .     S
C236   C245    1.406   .     A
C237   C245    1.416   .     A
C237   C244    1.390   .     A
C237   O266    1.378   .     S
C238   C240    1.500   .     S
C238   C246    1.399   .     A
C239   C412    1.338   .     S
C239   H426    1.088   .     S
C240   O260    1.324   .     A
C240   O261    1.291   .     A
C241   C242    1.437   .     S
C242   O262    1.287   .     A
C242   O263    1.296   .     A
C243   O264    1.300   .     A
C243   O265    1.305   .     A
C243   C245    1.474   .     S
C244   C746    1.399   1_554 S
C244   H310    1.085   .     S
C246   O272    1.378   .     S
C246   C247    1.417   .     A
C247   C761    1.410   .     S
C248   O274    1.377   .     S
C248   C760    1.410   1_554 S
C248   C743    1.429   1_554 S
Cu249  O258    1.959   .     S
Cu249  O264    1.924   .     S
Cu249  O260    1.934   .     S
Cu249  O262    1.955   .     S
Cu249  Cu250   2.696   .     S
Cu249  N257    2.026   .     S
Cu250  N256    2.026   .     S
Cu250  O263    1.959   .     S
Cu250  O259    1.955   .     S
Cu250  O261    1.924   .     S
Cu250  O265    1.934   .     S
N256   H308    1.029   .     S
N256   N314    1.297   .     S
O266   H267    0.990   .     S
O268   C412    1.389   .     S
O268   H440    0.990   .     S
O270   N314    1.338   .     S
O270   H328    0.990   .     S
H273   O329    0.987   .     S
O274   H275    0.992   .     S
O276   C277    1.412   .     S
O276   C304    1.385   .     S
C277   H677    1.111   .     S
H278   C904    1.111   1_554 S
H279   C391    1.114   .     S
H280   C448    1.110   .     S
O281   C282    1.416   .     S
C282   H284    1.108   .     S
C282   H283    1.115   .     S
C282   H285    1.108   .     S
C286   C296    1.430   .     S
C286   O315    1.289   .     A
C286   O316    1.293   .     A
C287   C288    1.411   .     A
C287   C802    1.434   .     S
C287   C818    1.429   .     S
C288   C295    1.422   .     A
C288   C292    1.418   .     A
C289   C293    1.400   .     A
C289   C800    1.434   1_554 S
C289   C803    1.420   1_554 S
C290   C291    1.388   .     A
C290   C802    1.420   .     S
C290   C814    1.399   .     S
C291   C292    1.383   .     A
C291   H309    1.081   .     S
C292   O338    1.388   .     S
C293   H311    1.077   .     S
C293   C302    1.406   .     A
C294   C302    1.416   .     A
C294   C301    1.390   .     A
C294   O323    1.378   .     S
C295   C297    1.500   .     S
C295   C303    1.399   .     A
C296   C469    1.338   .     S
C296   H483    1.088   .     S
C297   O317    1.324   .     A
C297   O318    1.291   .     A
C298   C299    1.437   .     S
C299   O319    1.287   .     A
C299   O320    1.296   .     A
C300   O321    1.300   .     A
C300   O322    1.305   .     A
C300   C302    1.474   .     S
C301   C803    1.399   1_554 S
C301   H196    1.085   1_655 S
C303   O329    1.378   .     S
C303   C304    1.417   .     A
C304   C818    1.410   .     S
C305   O331    1.377   .     S
C305   C817    1.410   1_554 S
C305   C800    1.429   1_554 S
Cu306  O315    1.959   .     S
Cu306  O321    1.924   .     S
Cu306  O317    1.934   .     S
Cu306  O319    1.955   .     S
Cu306  Cu307   2.696   .     S
Cu306  N314    2.026   .     S
Cu307  N313    2.026   .     S
Cu307  O320    1.959   .     S
Cu307  O316    1.955   .     S
Cu307  O318    1.924   .     S
Cu307  O322    1.934   .     S
N313   H194    1.029   1_655 S
N313   N200    1.297   1_655 S
O323   H324    0.990   .     S
O325   C469    1.389   .     S
O325   H497    0.990   .     S
O327   N200    1.338   1_655 S
O327   H214    0.990   1_655 S
H330   O215    0.987   1_655 S
O331   H332    0.992   .     S
O333   C334    1.412   .     S
O333   C190    1.385   1_655 S
C334   H563    1.111   1_655 S
C334   H51     1.114   1_655 S
H335   C961    1.111   1_554 S
H336   C448    1.114   .     S
H337   C505    1.110   .     S
O338   C339    1.416   .     S
C339   H341    1.108   .     S
C339   H340    1.115   .     S
C339   H342    1.108   .     S
C343   C353    1.430   .     S
C343   O372    1.289   .     A
C343   O373    1.293   .     A
C344   C345    1.411   .     A
C344   C859    1.434   .     S
C344   C875    1.429   .     S
C345   C352    1.422   .     A
C345   C349    1.418   .     A
C346   C350    1.400   .     A
C346   C857    1.434   1_554 S
C346   C860    1.420   1_554 S
C347   C348    1.388   .     A
C347   C859    1.420   .     S
C347   C871    1.399   .     S
C348   C349    1.383   .     A
C348   H366    1.081   .     S
C349   O395    1.388   .     S
C350   H368    1.077   .     S
C350   C359    1.406   .     A
C351   C359    1.416   .     A
C351   C358    1.390   .     A
C351   O380    1.378   .     S
C352   C354    1.500   .     S
C352   C360    1.399   .     A
C353   C13     1.338   1_565 S
C353   H27     1.088   1_565 S
C354   O374    1.324   .     A
C354   O375    1.291   .     A
C355   C356    1.437   .     S
C356   O376    1.287   .     A
C356   O377    1.296   .     A
C357   O378    1.300   .     A
C357   O379    1.305   .     A
C357   C359    1.474   .     S
C358   C860    1.399   1_554 S
C358   H424    1.085   .     S
C360   O386    1.378   .     S
C360   C361    1.417   .     A
C361   C875    1.410   .     S
C361   O504    1.385   1_455 S
C362   O388    1.377   .     S
C362   C874    1.410   1_554 S
C362   C857    1.429   1_554 S
Cu363  O372    1.959   .     S
Cu363  O378    1.924   .     S
Cu363  O374    1.934   .     S
Cu363  O376    1.955   .     S
Cu363  Cu364   2.696   .     S
Cu363  N371    2.026   .     S
Cu364  N370    2.026   .     S
Cu364  O377    1.959   .     S
Cu364  O373    1.955   .     S
Cu364  O375    1.924   .     S
Cu364  O379    1.934   .     S
H365   N484    1.029   1_455 S
H367   C472    1.085   1_455 S
N370   H422    1.029   .     S
N370   N428    1.297   .     S
N371   N484    1.297   1_455 S
N371   O498    1.338   1_455 S
O380   H381    0.990   .     S
O382   C13     1.389   1_565 S
O382   H41     0.990   1_565 S
O384   N428    1.338   .     S
O384   H442    0.990   .     S
H385   O498    0.990   1_455 S
O386   H501    0.987   1_455 S
H387   O443    0.987   .     S
O388   H389    0.992   .     S
O390   C391    1.412   .     S
O390   C418    1.385   .     S
C391   H791    1.111   .     S
H392   C676    1.111   1_464 S
H393   C163    1.114   1_465 S
H394   C49     1.110   1_565 S
O395   C396    1.416   .     S
C396   H398    1.108   .     S
C396   H397    1.115   .     S
C396   H399    1.108   .     S
C400   C410    1.430   .     S
C400   O429    1.289   .     A
C400   O430    1.293   .     A
C401   C402    1.411   .     A
C401   C916    1.434   .     S
C401   C932    1.429   .     S
C402   C409    1.422   .     A
C402   C406    1.418   .     A
C403   C407    1.400   .     A
C403   C914    1.434   1_554 S
C403   C917    1.420   1_554 S
C404   C405    1.388   .     A
C404   C916    1.420   .     S
C404   C928    1.399   .     S
C405   C406    1.383   .     A
C405   H423    1.081   .     S
C406   O452    1.388   .     S
C407   H425    1.077   .     S
C407   C416    1.406   .     A
C408   C416    1.416   .     A
C408   C415    1.390   .     A
C408   O437    1.378   .     S
C409   C411    1.500   .     S
C409   C417    1.399   .     A
C410   C70     1.338   1_565 S
C410   H84     1.088   1_565 S
C411   O431    1.324   .     A
C411   O432    1.291   .     A
C412   C413    1.437   .     S
C413   O433    1.287   .     A
C413   O434    1.296   .     A
C414   O435    1.300   .     A
C414   O436    1.305   .     A
C414   C416    1.474   .     S
C415   C917    1.399   1_554 S
C415   H481    1.085   .     S
C417   O443    1.378   .     S
C417   C418    1.417   .     A
C418   C932    1.410   .     S
C419   O445    1.377   .     S
C419   C931    1.410   1_554 S
C419   C914    1.429   1_554 S
Cu420  O429    1.959   .     S
Cu420  O435    1.924   .     S
Cu420  O431    1.934   .     S
Cu420  O433    1.955   .     S
Cu420  Cu421   2.696   .     S
Cu420  N428    2.026   .     S
Cu421  N427    2.026   .     S
Cu421  O434    1.959   .     S
Cu421  O430    1.955   .     S
Cu421  O432    1.924   .     S
Cu421  O436    1.934   .     S
N427   H479    1.029   .     S
N427   N485    1.297   .     S
O437   H438    0.990   .     S
O439   C70     1.389   1_565 S
O439   H98     0.990   1_565 S
O441   N485    1.338   .     S
O441   H499    0.990   .     S
H444   O500    0.987   .     S
O445   H446    0.992   .     S
O447   C448    1.412   .     S
O447   C475    1.385   .     S
C448   H848    1.111   .     S
H449   C562    1.111   1_564 S
H450   C49     1.114   1_565 S
H451   C106    1.110   1_565 S
O452   C453    1.416   .     S
C453   H455    1.108   .     S
C453   H454    1.115   .     S
C453   H456    1.108   .     S
C457   C467    1.430   .     S
C457   O486    1.289   .     A
C457   O487    1.293   .     A
C458   C459    1.411   .     A
C458   C973    1.434   .     S
C458   C989    1.429   .     S
C459   C466    1.422   .     A
C459   C463    1.418   .     A
C460   C464    1.400   .     A
C460   C971    1.434   1_554 S
C460   C974    1.420   1_554 S
C461   C462    1.388   .     A
C461   C973    1.420   .     S
C461   C985    1.399   .     S
C462   C463    1.383   .     A
C462   H480    1.081   .     S
C463   O509    1.388   .     S
C464   H482    1.077   .     S
C464   C473    1.406   .     A
C465   C473    1.416   .     A
C465   C472    1.390   .     A
C465   O494    1.378   .     S
C466   C468    1.500   .     S
C466   C474    1.399   .     A
C467   C127    1.338   1_565 S
C467   H141    1.088   1_565 S
C468   O488    1.324   .     A
C468   O489    1.291   .     A
C469   C470    1.437   .     S
C470   O490    1.287   .     A
C470   O491    1.296   .     A
C471   O492    1.300   .     A
C471   O493    1.305   .     A
C471   C473    1.474   .     S
C472   C974    1.399   1_554 S
C472   H367    1.085   1_655 S
C474   O500    1.378   .     S
C474   C475    1.417   .     A
C475   C989    1.410   .     S
C476   O502    1.377   .     S
C476   C988    1.410   1_554 S
C476   C971    1.429   1_554 S
Cu477  O486    1.959   .     S
Cu477  O492    1.924   .     S
Cu477  O488    1.934   .     S
Cu477  O490    1.955   .     S
Cu477  Cu478   2.696   .     S
Cu477  N485    2.026   .     S
Cu478  N484    2.026   .     S
Cu478  O491    1.959   .     S
Cu478  O487    1.955   .     S
Cu478  O489    1.924   .     S
Cu478  O493    1.934   .     S
N484   H365    1.029   1_655 S
N484   N371    1.297   1_655 S
O494   H495    0.990   .     S
O496   C127    1.389   1_565 S
O496   H155    0.990   1_565 S
O498   N371    1.338   1_655 S
O498   H385    0.990   1_655 S
H501   O386    0.987   1_655 S
O502   H503    0.992   .     S
O504   C505    1.412   .     S
O504   C361    1.385   1_655 S
C505   H734    1.111   1_655 S
C505   H222    1.114   1_655 S
H506   C619    1.111   1_564 S
H507   C106    1.114   1_565 S
H508   C163    1.110   1_565 S
O509   C510    1.416   .     S
C510   H512    1.108   .     S
C510   H511    1.115   .     S
C510   H513    1.108   .     S
C514   C524    1.430   .     S
C514   O543    1.289   .     A
C514   O544    1.293   .     A
C515   C516    1.411   .     A
C515   C4      1.434   1_556 S
C515   C20     1.429   1_556 S
C516   C523    1.422   .     A
C516   C520    1.418   .     A
C517   C521    1.400   .     A
C518   C519    1.388   .     A
C518   C4      1.420   1_556 S
C518   C16     1.399   1_556 S
C519   C520    1.383   .     A
C519   H537    1.081   .     S
C520   O566    1.388   .     S
C521   H539    1.077   .     S
C521   C530    1.406   .     A
C522   C530    1.416   .     A
C522   C529    1.390   .     A
C522   O551    1.378   .     S
C523   C525    1.500   .     S
C523   C531    1.399   .     A
C524   C697    1.338   .     S
C524   H711    1.088   .     S
C525   O545    1.324   .     A
C525   O546    1.291   .     A
C526   C527    1.437   .     S
C526   C866    1.338   1_545 S
C526   O895    1.389   1_545 S
C527   O547    1.287   .     A
C527   O548    1.296   .     A
C528   O549    1.300   .     A
C528   O550    1.305   .     A
C528   C530    1.474   .     S
C529   H595    1.085   .     S
C531   O557    1.378   .     S
C531   C532    1.417   .     A
C532   C20     1.410   1_556 S
C532   O675    1.385   1_455 S
C533   O559    1.377   .     S
Cu534  O543    1.959   .     S
Cu534  O549    1.924   .     S
Cu534  O545    1.934   .     S
Cu534  O547    1.955   .     S
Cu534  Cu535   2.696   .     S
Cu534  N542    2.026   .     S
Cu535  N541    2.026   .     S
Cu535  O548    1.959   .     S
Cu535  O544    1.955   .     S
Cu535  O546    1.924   .     S
Cu535  O550    1.934   .     S
H536   N655    1.029   1_455 S
H538   C643    1.085   1_455 S
H540   C866    1.088   1_545 S
N541   H593    1.029   .     S
N541   N599    1.297   .     S
N542   N655    1.297   1_455 S
N542   O669    1.338   1_455 S
O551   H552    0.990   .     S
O553   C697    1.389   .     S
O553   H725    0.990   .     S
H554   O895    0.990   1_545 S
O555   N599    1.338   .     S
O555   H613    0.990   .     S
H556   O669    0.990   1_455 S
O557   H672    0.987   1_455 S
H558   O614    0.987   .     S
O559   H560    0.992   .     S
O561   C562    1.412   .     S
O561   C589    1.385   .     S
C562   H449    1.111   1_546 S
C562   H963    1.114   1_545 S
C562   H907    1.110   1_545 S
H563   C334    1.111   1_455 S
H564   C847    1.114   1_455 S
H565   C733    1.110   .     S
O566   C567    1.416   .     S
C567   H569    1.108   .     S
C567   H568    1.115   .     S
C567   H570    1.108   .     S
C571   C581    1.430   .     S
C571   O600    1.289   .     A
C571   O601    1.293   .     A
C572   C573    1.411   .     A
C572   C61     1.434   1_556 S
C572   C77     1.429   1_556 S
C573   C580    1.422   .     A
C573   C577    1.418   .     A
C574   C578    1.400   .     A
C575   C576    1.388   .     A
C575   C61     1.420   1_556 S
C575   C73     1.399   1_556 S
C576   C577    1.383   .     A
C576   H594    1.081   .     S
C577   O623    1.388   .     S
C578   H596    1.077   .     S
C578   C587    1.406   .     A
C579   C587    1.416   .     A
C579   C586    1.390   .     A
C579   O608    1.378   .     S
C580   C582    1.500   .     S
C580   C588    1.399   .     A
C581   C754    1.338   .     S
C581   H768    1.088   .     S
C582   O602    1.324   .     A
C582   O603    1.291   .     A
C583   C584    1.437   .     S
C583   C923    1.338   1_545 S
C583   O952    1.389   1_545 S
C584   O604    1.287   .     A
C584   O605    1.296   .     A
C585   O606    1.300   .     A
C585   O607    1.305   .     A
C585   C587    1.474   .     S
C586   H652    1.085   .     S
C588   O614    1.378   .     S
C588   C589    1.417   .     A
C589   C77     1.410   1_556 S
C590   O616    1.377   .     S
Cu591  O600    1.959   .     S
Cu591  O606    1.924   .     S
Cu591  O602    1.934   .     S
Cu591  O604    1.955   .     S
Cu591  Cu592   2.696   .     S
Cu591  N599    2.026   .     S
Cu592  N598    2.026   .     S
Cu592  O605    1.959   .     S
Cu592  O601    1.955   .     S
Cu592  O603    1.924   .     S
Cu592  O607    1.934   .     S
H597   C923    1.088   1_545 S
N598   H650    1.029   .     S
N598   N656    1.297   .     S
O608   H609    0.990   .     S
O610   C754    1.389   .     S
O610   H782    0.990   .     S
H611   O952    0.990   1_545 S
O612   N656    1.338   .     S
O612   H670    0.990   .     S
H615   O671    0.987   .     S
O616   H617    0.992   .     S
O618   C619    1.412   .     S
O618   C646    1.385   .     S
C619   H506    1.111   1_546 S
C619   H1020   1.114   1_545 S
C619   H964    1.110   1_545 S
H621   C733    1.114   .     S
H622   C790    1.110   .     S
O623   C624    1.416   .     S
C624   H626    1.108   .     S
C624   H625    1.115   .     S
C624   H627    1.108   .     S
C628   C638    1.430   .     S
C628   O657    1.289   .     A
C628   O658    1.293   .     A
C629   C630    1.411   .     A
C629   C118    1.434   1_556 S
C629   C134    1.429   1_556 S
C630   C637    1.422   .     A
C630   C634    1.418   .     A
C631   C635    1.400   .     A
C632   C633    1.388   .     A
C632   C118    1.420   1_556 S
C632   C130    1.399   1_556 S
C633   C634    1.383   .     A
C633   H651    1.081   .     S
C634   O680    1.388   .     S
C635   H653    1.077   .     S
C635   C644    1.406   .     A
C636   C644    1.416   .     A
C636   C643    1.390   .     A
C636   O665    1.378   .     S
C637   C639    1.500   .     S
C637   C645    1.399   .     A
C638   C811    1.338   .     S
C638   H825    1.088   .     S
C639   O659    1.324   .     A
C639   O660    1.291   .     A
C640   C641    1.437   .     S
C640   C980    1.338   1_545 S
C640   O1009   1.389   1_545 S
C641   O661    1.287   .     A
C641   O662    1.296   .     A
C642   O663    1.300   .     A
C642   O664    1.305   .     A
C642   C644    1.474   .     S
C643   H538    1.085   1_655 S
C645   O671    1.378   .     S
C645   C646    1.417   .     A
C646   C134    1.410   1_556 S
C647   O673    1.377   .     S
Cu648  O657    1.959   .     S
Cu648  O663    1.924   .     S
Cu648  O659    1.934   .     S
Cu648  O661    1.955   .     S
Cu648  Cu649   2.696   .     S
Cu648  N656    2.026   .     S
Cu649  N655    2.026   .     S
Cu649  O662    1.959   .     S
Cu649  O658    1.955   .     S
Cu649  O660    1.924   .     S
Cu649  O664    1.934   .     S
H654   C980    1.088   1_545 S
N655   H536    1.029   1_655 S
N655   N542    1.297   1_655 S
O665   H666    0.990   .     S
O667   C811    1.389   .     S
O667   H839    0.990   .     S
H668   O1009   0.990   1_545 S
O669   N542    1.338   1_655 S
O669   H556    0.990   1_655 S
H672   O557    0.987   1_655 S
O673   H674    0.992   .     S
O675   C676    1.412   .     S
O675   C532    1.385   1_655 S
C676   H392    1.111   1_646 S
C676   H906    1.114   1_645 S
C676   H1021   1.110   1_545 S
H678   C790    1.114   .     S
H679   C847    1.110   .     S
O680   C681    1.416   .     S
C681   H683    1.108   .     S
C681   H682    1.115   .     S
C681   H684    1.108   .     S
C685   C695    1.430   .     S
C685   O714    1.289   .     A
C685   O715    1.293   .     A
C686   C687    1.411   .     A
C686   C175    1.434   1_556 S
C686   C191    1.429   1_556 S
C687   C694    1.422   .     A
C687   C691    1.418   .     A
C688   C692    1.400   .     A
C689   C690    1.388   .     A
C689   C175    1.420   1_556 S
C689   C187    1.399   1_556 S
C690   C691    1.383   .     A
C690   H708    1.081   .     S
C691   O737    1.388   .     S
C692   H710    1.077   .     S
C692   C701    1.406   .     A
C693   C701    1.416   .     A
C693   C700    1.390   .     A
C693   O722    1.378   .     S
C694   C696    1.500   .     S
C694   C702    1.399   .     A
C695   C868    1.338   .     S
C695   H882    1.088   .     S
C696   O716    1.324   .     A
C696   O717    1.291   .     A
C697   C698    1.437   .     S
C698   O718    1.287   .     A
C698   O719    1.296   .     A
C699   O720    1.300   .     A
C699   O721    1.305   .     A
C699   C701    1.474   .     S
C700   H766    1.085   .     S
C702   O728    1.378   .     S
C702   C703    1.417   .     A
C703   C191    1.410   1_556 S
C703   O846    1.385   1_455 S
C704   O730    1.377   .     S
Cu705  O714    1.959   .     S
Cu705  O720    1.924   .     S
Cu705  O716    1.934   .     S
Cu705  O718    1.955   .     S
Cu705  Cu706   2.696   .     S
Cu705  N713    2.026   .     S
Cu706  N712    2.026   .     S
Cu706  O719    1.959   .     S
Cu706  O715    1.955   .     S
Cu706  O717    1.924   .     S
Cu706  O721    1.934   .     S
H707   N826    1.029   1_455 S
H709   C814    1.085   1_455 S
N712   H764    1.029   .     S
N712   N770    1.297   .     S
N713   N826    1.297   1_455 S
N713   O840    1.338   1_455 S
O722   H723    0.990   .     S
O724   C868    1.389   .     S
O724   H896    0.990   .     S
O726   N770    1.338   .     S
O726   H784    0.990   .     S
H727   O840    0.990   1_455 S
O728   H843    0.987   1_455 S
H729   O785    0.987   .     S
O730   H731    0.992   .     S
O732   C733    1.412   .     S
O732   C760    1.385   .     S
C733   H107    1.111   1_556 S
H734   C505    1.111   1_455 S
H735   C1018   1.114   1_455 S
H736   C904    1.110   .     S
O737   C738    1.416   .     S
C738   H740    1.108   .     S
C738   H739    1.115   .     S
C738   H741    1.108   .     S
C742   C752    1.430   .     S
C742   O771    1.289   .     A
C742   O772    1.293   .     A
C743   C744    1.411   .     A
C743   C232    1.434   1_556 S
C743   C248    1.429   1_556 S
C744   C751    1.422   .     A
C744   C748    1.418   .     A
C745   C749    1.400   .     A
C746   C747    1.388   .     A
C746   C232    1.420   1_556 S
C746   C244    1.399   1_556 S
C747   C748    1.383   .     A
C747   H765    1.081   .     S
C748   O794    1.388   .     S
C749   H767    1.077   .     S
C749   C758    1.406   .     A
C750   C758    1.416   .     A
C750   C757    1.390   .     A
C750   O779    1.378   .     S
C751   C753    1.500   .     S
C751   C759    1.399   .     A
C752   C925    1.338   .     S
C752   H939    1.088   .     S
C753   O773    1.324   .     A
C753   O774    1.291   .     A
C754   C755    1.437   .     S
C755   O775    1.287   .     A
C755   O776    1.296   .     A
C756   O777    1.300   .     A
C756   O778    1.305   .     A
C756   C758    1.474   .     S
C757   H823    1.085   .     S
C759   O785    1.378   .     S
C759   C760    1.417   .     A
C760   C248    1.410   1_556 S
C761   O787    1.377   .     S
Cu762  O771    1.959   .     S
Cu762  O777    1.924   .     S
Cu762  O773    1.934   .     S
Cu762  O775    1.955   .     S
Cu762  Cu763   2.696   .     S
Cu762  N770    2.026   .     S
Cu763  N769    2.026   .     S
Cu763  O776    1.959   .     S
Cu763  O772    1.955   .     S
Cu763  O774    1.924   .     S
Cu763  O778    1.934   .     S
N769   H821    1.029   .     S
N769   N827    1.297   .     S
O779   H780    0.990   .     S
O781   C925    1.389   .     S
O781   H953    0.990   .     S
O783   N827    1.338   .     S
O783   H841    0.990   .     S
H786   O842    0.987   .     S
O787   H788    0.992   .     S
O789   C790    1.412   .     S
O789   C817    1.385   .     S
C790   H164    1.111   1_556 S
H792   C904    1.114   .     S
H793   C961    1.110   .     S
O794   C795    1.416   .     S
C795   H797    1.108   .     S
C795   H796    1.115   .     S
C795   H798    1.108   .     S
C799   C809    1.430   .     S
C799   O828    1.289   .     A
C799   O829    1.293   .     A
C800   C801    1.411   .     A
C800   C289    1.434   1_556 S
C800   C305    1.429   1_556 S
C801   C808    1.422   .     A
C801   C805    1.418   .     A
C802   C806    1.400   .     A
C803   C804    1.388   .     A
C803   C289    1.420   1_556 S
C803   C301    1.399   1_556 S
C804   C805    1.383   .     A
C804   H822    1.081   .     S
C805   O851    1.388   .     S
C806   H824    1.077   .     S
C806   C815    1.406   .     A
C807   C815    1.416   .     A
C807   C814    1.390   .     A
C807   O836    1.378   .     S
C808   C810    1.500   .     S
C808   C816    1.399   .     A
C809   C982    1.338   .     S
C809   H996    1.088   .     S
C810   O830    1.324   .     A
C810   O831    1.291   .     A
C811   C812    1.437   .     S
C812   O832    1.287   .     A
C812   O833    1.296   .     A
C813   O834    1.300   .     A
C813   O835    1.305   .     A
C813   C815    1.474   .     S
C814   H709    1.085   1_655 S
C816   O842    1.378   .     S
C816   C817    1.417   .     A
C817   C305    1.410   1_556 S
C818   O844    1.377   .     S
Cu819  O828    1.959   .     S
Cu819  O834    1.924   .     S
Cu819  O830    1.934   .     S
Cu819  O832    1.955   .     S
Cu819  Cu820   2.696   .     S
Cu819  N827    2.026   .     S
Cu820  N826    2.026   .     S
Cu820  O833    1.959   .     S
Cu820  O829    1.955   .     S
Cu820  O831    1.924   .     S
Cu820  O835    1.934   .     S
N826   H707    1.029   1_655 S
N826   N713    1.297   1_655 S
O836   H837    0.990   .     S
O838   C982    1.389   .     S
O838   H1010   0.990   .     S
O840   N713    1.338   1_655 S
O840   H727    0.990   1_655 S
H843   O728    0.987   1_655 S
O844   H845    0.992   .     S
O846   C847    1.412   .     S
O846   C703    1.385   1_655 S
C847   H50     1.111   1_656 S
C847   H564    1.114   1_655 S
H849   C961    1.114   .     S
H850   C1018   1.110   .     S
O851   C852    1.416   .     S
C852   H854    1.108   .     S
C852   H853    1.115   .     S
C852   H855    1.108   .     S
C856   C866    1.430   .     S
C856   O885    1.289   .     A
C856   O886    1.293   .     A
C857   C858    1.411   .     A
C857   C346    1.434   1_556 S
C857   C362    1.429   1_556 S
C858   C865    1.422   .     A
C858   C862    1.418   .     A
C859   C863    1.400   .     A
C860   C861    1.388   .     A
C860   C346    1.420   1_556 S
C860   C358    1.399   1_556 S
C861   C862    1.383   .     A
C861   H879    1.081   .     S
C862   O908    1.388   .     S
C863   H881    1.077   .     S
C863   C872    1.406   .     A
C864   C872    1.416   .     A
C864   C871    1.390   .     A
C864   O893    1.378   .     S
C865   C867    1.500   .     S
C865   C873    1.399   .     A
C866   C526    1.338   1_565 S
C866   H540    1.088   1_565 S
C867   O887    1.324   .     A
C867   O888    1.291   .     A
C868   C869    1.437   .     S
C869   O889    1.287   .     A
C869   O890    1.296   .     A
C870   O891    1.300   .     A
C870   O892    1.305   .     A
C870   C872    1.474   .     S
C871   H937    1.085   .     S
C873   O899    1.378   .     S
C873   C874    1.417   .     A
C874   C362    1.410   1_556 S
C874   O1017   1.385   1_455 S
C875   O901    1.377   .     S
Cu876  O885    1.959   .     S
Cu876  O891    1.924   .     S
Cu876  O887    1.934   .     S
Cu876  O889    1.955   .     S
Cu876  Cu877   2.696   .     S
Cu876  N884    2.026   .     S
Cu877  N883    2.026   .     S
Cu877  O890    1.959   .     S
Cu877  O886    1.955   .     S
Cu877  O888    1.924   .     S
Cu877  O892    1.934   .     S
H878   N997    1.029   1_455 S
H880   C985    1.085   1_455 S
N883   H935    1.029   .     S
N883   N941    1.297   .     S
N884   N997    1.297   1_455 S
N884   O1011   1.338   1_455 S
O893   H894    0.990   .     S
O895   C526    1.389   1_565 S
O895   H554    0.990   1_565 S
O897   N941    1.338   .     S
O897   H955    0.990   .     S
H898   O1011   0.990   1_455 S
O899   H1014   0.987   1_455 S
H900   O956    0.987   .     S
O901   H902    0.992   .     S
O903   C904    1.412   .     S
O903   C931    1.385   .     S
C904   H278    1.111   1_556 S
H905   C163    1.111   1_465 S
H906   C676    1.114   1_465 S
H907   C562    1.110   1_565 S
O908   C909    1.416   .     S
C909   H911    1.108   .     S
C909   H910    1.115   .     S
C909   H912    1.108   .     S
C913   C923    1.430   .     S
C913   O942    1.289   .     A
C913   O943    1.293   .     A
C914   C915    1.411   .     A
C914   C403    1.434   1_556 S
C914   C419    1.429   1_556 S
C915   C922    1.422   .     A
C915   C919    1.418   .     A
C916   C920    1.400   .     A
C917   C918    1.388   .     A
C917   C403    1.420   1_556 S
C917   C415    1.399   1_556 S
C918   C919    1.383   .     A
C918   H936    1.081   .     S
C919   O965    1.388   .     S
C920   H938    1.077   .     S
C920   C929    1.406   .     A
C921   C929    1.416   .     A
C921   C928    1.390   .     A
C921   O950    1.378   .     S
C922   C924    1.500   .     S
C922   C930    1.399   .     A
C923   C583    1.338   1_565 S
C923   H597    1.088   1_565 S
C924   O944    1.324   .     A
C924   O945    1.291   .     A
C925   C926    1.437   .     S
C926   O946    1.287   .     A
C926   O947    1.296   .     A
C927   O948    1.300   .     A
C927   O949    1.305   .     A
C927   C929    1.474   .     S
C928   H994    1.085   .     S
C930   O956    1.378   .     S
C930   C931    1.417   .     A
C931   C419    1.410   1_556 S
C932   O958    1.377   .     S
Cu933  O942    1.959   .     S
Cu933  O948    1.924   .     S
Cu933  O944    1.934   .     S
Cu933  O946    1.955   .     S
Cu933  Cu934   2.696   .     S
Cu933  N941    2.026   .     S
Cu934  N940    2.026   .     S
Cu934  O947    1.959   .     S
Cu934  O943    1.955   .     S
Cu934  O945    1.924   .     S
Cu934  O949    1.934   .     S
N940   H992    1.029   .     S
N940   N998    1.297   .     S
O950   H951    0.990   .     S
O952   C583    1.389   1_565 S
O952   H611    0.990   1_565 S
O954   N998    1.338   .     S
O954   H1012   0.990   .     S
H957   O1013   0.987   .     S
O958   H959    0.992   .     S
O960   C961    1.412   .     S
O960   C988    1.385   .     S
C961   H335    1.111   1_556 S
H962   C49     1.111   1_565 S
H963   C562    1.114   1_565 S
H964   C619    1.110   1_565 S
O965   C966    1.416   .     S
C966   H968    1.108   .     S
C966   H967    1.115   .     S
C966   H969    1.108   .     S
C970   C980    1.430   .     S
C970   O999    1.289   .     A
C970   O1000   1.293   .     A
C971   C972    1.411   .     A
C971   C460    1.434   1_556 S
C971   C476    1.429   1_556 S
C972   C979    1.422   .     A
C972   C976    1.418   .     A
C973   C977    1.400   .     A
C974   C975    1.388   .     A
C974   C460    1.420   1_556 S
C974   C472    1.399   1_556 S
C975   C976    1.383   .     A
C975   H993    1.081   .     S
C976   O1022   1.388   .     S
C977   H995    1.077   .     S
C977   C986    1.406   .     A
C978   C986    1.416   .     A
C978   C985    1.390   .     A
C978   O1007   1.378   .     S
C979   C981    1.500   .     S
C979   C987    1.399   .     A
C980   C640    1.338   1_565 S
C980   H654    1.088   1_565 S
C981   O1001   1.324   .     A
C981   O1002   1.291   .     A
C982   C983    1.437   .     S
C983   O1003   1.287   .     A
C983   O1004   1.296   .     A
C984   O1005   1.300   .     A
C984   O1006   1.305   .     A
C984   C986    1.474   .     S
C985   H880    1.085   1_655 S
C987   O1013   1.378   .     S
C987   C988    1.417   .     A
C988   C476    1.410   1_556 S
C989   O1015   1.377   .     S
Cu990  O999    1.959   .     S
Cu990  O1005   1.924   .     S
Cu990  O1001   1.934   .     S
Cu990  O1003   1.955   .     S
Cu990  Cu991   2.696   .     S
Cu990  N998    2.026   .     S
Cu991  N997    2.026   .     S
Cu991  O1004   1.959   .     S
Cu991  O1000   1.955   .     S
Cu991  O1002   1.924   .     S
Cu991  O1006   1.934   .     S
N997   H878    1.029   1_655 S
N997   N884    1.297   1_655 S
O1007  H1008   0.990   .     S
O1009  C640    1.389   1_565 S
O1009  H668    0.990   1_565 S
O1011  N884    1.338   1_655 S
O1011  H898    0.990   1_655 S
H1014  O899    0.987   1_655 S
O1015  H1016   0.992   .     S
O1017  C1018   1.412   .     S
O1017  C874    1.385   1_655 S
C1018  H221    1.111   1_656 S
C1018  H735    1.114   1_655 S
H1019  C106    1.111   1_565 S
H1020  C619    1.114   1_565 S
H1021  C676    1.110   1_565 S
O1022  C1023   1.416   .     S
C1023  H1025   1.108   .     S
C1023  H1024   1.115   .     S
C1023  H1026   1.108   .     S
