data_str_m3_o2_o5_pcu_sym.45
_audit_creation_date              2020-01-03
_audit_creation_method            'Materials Studio'
_symmetry_space_group_name_H-M    'P1'
_symmetry_Int_Tables_number       1
_symmetry_cell_setting            triclinic
loop_
_symmetry_equiv_pos_as_xyz
  x,y,z
_cell_length_a                    30.1015
_cell_length_b                    28.2669
_cell_length_c                    26.7118
_cell_angle_alpha                 89.9991
_cell_angle_beta                  90.0026
_cell_angle_gamma                 89.9988
loop_
_atom_site_label
_atom_site_type_symbol
_atom_site_fract_x
_atom_site_fract_y
_atom_site_fract_z
_atom_site_U_iso_or_equiv
_atom_site_adp_type
_atom_site_occupancy
C1     C     0.16376   0.25000   0.16667   0.00000  Uiso   1.00
C2     C     0.23016   0.44760   0.12744   0.00000  Uiso   1.00
C3     C     0.25000   0.25000   0.07282   0.00000  Uiso   1.00
C4     C     0.25000   0.25000   0.26052   0.00000  Uiso   1.00
C5     C     0.24999   0.02662   0.16666   0.00000  Uiso   1.00
C6     C     0.24999   0.47338   0.16667   0.00000  Uiso   1.00
C7     C     0.25000   0.25000   0.02178   0.00000  Uiso   1.00
C8     C     0.25000   0.25000   0.31155   0.00000  Uiso   1.00
C9     C     0.04599   0.28285   0.19577   0.00000  Uiso   1.00
C10    C     0.45402   0.21716   0.19576   0.00000  Uiso   1.00
C11    C     0.45401   0.28284   0.13757   0.00000  Uiso   1.00
C12    C     0.33624   0.25000   0.16666   0.00000  Uiso   1.00
C13    C     0.04598   0.21717   0.13757   0.00000  Uiso   1.00
C14    C     0.09207   0.28330   0.19688   0.00000  Uiso   1.00
C15    C     0.40794   0.21670   0.19687   0.00000  Uiso   1.00
C16    C     0.40793   0.28330   0.13645   0.00000  Uiso   1.00
C17    C     0.09206   0.21670   0.13646   0.00000  Uiso   1.00
C18    C     0.11557   0.25000   0.16667   0.00000  Uiso   1.00
C19    C     0.38443   0.25000   0.16666   0.00000  Uiso   1.00
C20    C     0.02372   0.25001   0.16667   0.00000  Uiso   1.00
C21    C     0.47628   0.25001   0.16667   0.00000  Uiso   1.00
C22    C     0.11395   0.31851   0.23230   0.00000  Uiso   1.00
C23    C     0.26863   0.10218   0.12771   0.00000  Uiso   1.00
C24    C     0.13302   0.29365   0.27853   0.00000  Uiso   1.00
C25    C     0.15600   0.32875   0.31339   0.00000  Uiso   1.00
C26    C     0.38606   0.18148   0.23227   0.00000  Uiso   1.00
C27    C     0.36697   0.20631   0.27849   0.00000  Uiso   1.00
C28    C     0.34397   0.17120   0.31333   0.00000  Uiso   1.00
C29    C     0.38604   0.31850   0.10103   0.00000  Uiso   1.00
C30    C     0.36698   0.29365   0.05481   0.00000  Uiso   1.00
C31    C     0.34400   0.32874   0.01993   0.00000  Uiso   1.00
C32    C     0.11395   0.18148   0.10106   0.00000  Uiso   1.00
C33    C     0.13303   0.20631   0.05484   0.00000  Uiso   1.00
C34    C     0.26958   0.39782   0.20502   0.00000  Uiso   1.00
C35    C     0.15603   0.17121   0.02001   0.00000  Uiso   1.00
C36    C     0.23136   0.10218   0.20562   0.00000  Uiso   1.00
C37    C     0.23042   0.39782   0.12831   0.00000  Uiso   1.00
C38    C     0.26885   0.05239   0.12683   0.00000  Uiso   1.00
C39    C     0.26982   0.44760   0.20590   0.00000  Uiso   1.00
C40    C     0.23113   0.05239   0.20650   0.00000  Uiso   1.00
F41    F     0.28820   0.02963   0.08777   0.00000  Uiso   1.00
F42    F     0.29013   0.47037   0.24433   0.00000  Uiso   1.00
F43    F     0.21176   0.02963   0.24554   0.00000  Uiso   1.00
F44    F     0.20985   0.47036   0.08901   0.00000  Uiso   1.00
H45    H     0.28354   0.12163   0.09715   0.00000  Uiso   1.00
H46    H     0.13231   0.35657   0.32563   0.00000  Uiso   1.00
H47    H     0.16841   0.30996   0.01375   0.00000  Uiso   1.00
H48    H     0.10547   0.27624   0.29912   0.00000  Uiso   1.00
H49    H     0.15718   0.26602   0.26735   0.00000  Uiso   1.00
H50    H     0.13938   0.34008   0.21293   0.00000  Uiso   1.00
H51    H     0.08916   0.34485   0.24563   0.00000  Uiso   1.00
H52    H     0.33155   0.18998   0.01369   0.00000  Uiso   1.00
H53    H     0.36765   0.14338   0.32557   0.00000  Uiso   1.00
H54    H     0.31537   0.15437   0.29400   0.00000  Uiso   1.00
H55    H     0.39450   0.22372   0.29912   0.00000  Uiso   1.00
H56    H     0.28522   0.37835   0.23510   0.00000  Uiso   1.00
H57    H     0.34281   0.23395   0.26731   0.00000  Uiso   1.00
H58    H     0.36064   0.15990   0.21288   0.00000  Uiso   1.00
H59    H     0.41086   0.15515   0.24561   0.00000  Uiso   1.00
H60    H     0.31539   0.34558   0.03923   0.00000  Uiso   1.00
H61    H     0.36769   0.35656   0.00770   0.00000  Uiso   1.00
H62    H     0.33159   0.30995   0.31957   0.00000  Uiso   1.00
H63    H     0.39453   0.27623   0.03422   0.00000  Uiso   1.00
H64    H     0.34282   0.26602   0.06598   0.00000  Uiso   1.00
H65    H     0.36061   0.34008   0.12040   0.00000  Uiso   1.00
H66    H     0.41084   0.34484   0.08770   0.00000  Uiso   1.00
H67    H     0.21645   0.12163   0.23618   0.00000  Uiso   1.00
H68    H     0.16846   0.18998   0.31964   0.00000  Uiso   1.00
H69    H     0.18464   0.15438   0.03934   0.00000  Uiso   1.00
H70    H     0.13236   0.14338   0.00777   0.00000  Uiso   1.00
H71    H     0.10549   0.22372   0.03422   0.00000  Uiso   1.00
H72    H     0.15719   0.23395   0.06602   0.00000  Uiso   1.00
H73    H     0.13936   0.15990   0.12045   0.00000  Uiso   1.00
H74    H     0.08914   0.15515   0.08773   0.00000  Uiso   1.00
H75    H     0.21478   0.37834   0.09823   0.00000  Uiso   1.00
H76    H     0.02702   0.30751   0.21838   0.00000  Uiso   1.00
H77    H     0.47299   0.19250   0.21838   0.00000  Uiso   1.00
H78    H     0.47298   0.30751   0.11496   0.00000  Uiso   1.00
H79    H     0.02701   0.19250   0.11496   0.00000  Uiso   1.00
H80    H     0.18461   0.34559   0.29409   0.00000  Uiso   1.00
N81    N     0.25000   0.12623   0.16667   0.00000  Uiso   1.00
N82    N     0.25000   0.37377   0.16667   0.00000  Uiso   1.00
O83    O     0.18453   0.28974   0.16667   0.00000  Uiso   1.00
O84    O     0.31547   0.21026   0.16666   0.00000  Uiso   1.00
O85    O     0.31547   0.28974   0.16666   0.00000  Uiso   1.00
O86    O     0.18453   0.21026   0.16667   0.00000  Uiso   1.00
O87    O     0.25000   0.28973   0.09511   0.00000  Uiso   1.00
O88    O     0.25000   0.21027   0.23822   0.00000  Uiso   1.00
O89    O     0.25000   0.28973   0.23822   0.00000  Uiso   1.00
O90    O     0.25000   0.21027   0.09511   0.00000  Uiso   1.00
Zn91   Zn    0.25000   0.30307   0.16667   0.00000  Uiso   1.00
Zn92   Zn    0.25000   0.19693   0.16667   0.00000  Uiso   1.00
C93    C     0.66376   0.25000   0.16667   0.00000  Uiso   1.00
C94    C     0.73016   0.44760   0.12744   0.00000  Uiso   1.00
C95    C     0.75000   0.25000   0.07282   0.00000  Uiso   1.00
C96    C     0.75000   0.25000   0.26052   0.00000  Uiso   1.00
C97    C     0.74999   0.02662   0.16666   0.00000  Uiso   1.00
C98    C     0.74999   0.47338   0.16667   0.00000  Uiso   1.00
C99    C     0.75000   0.25000   0.02178   0.00000  Uiso   1.00
C100   C     0.75000   0.25000   0.31155   0.00000  Uiso   1.00
C101   C     0.54599   0.28285   0.19577   0.00000  Uiso   1.00
C102   C     0.95402   0.21716   0.19576   0.00000  Uiso   1.00
C103   C     0.95401   0.28284   0.13757   0.00000  Uiso   1.00
C104   C     0.83624   0.25000   0.16666   0.00000  Uiso   1.00
C105   C     0.54598   0.21717   0.13757   0.00000  Uiso   1.00
C106   C     0.59207   0.28330   0.19688   0.00000  Uiso   1.00
C107   C     0.90794   0.21670   0.19687   0.00000  Uiso   1.00
C108   C     0.90793   0.28330   0.13645   0.00000  Uiso   1.00
C109   C     0.59206   0.21670   0.13646   0.00000  Uiso   1.00
C110   C     0.61557   0.25000   0.16667   0.00000  Uiso   1.00
C111   C     0.88443   0.25000   0.16666   0.00000  Uiso   1.00
C112   C     0.52372   0.25001   0.16667   0.00000  Uiso   1.00
C113   C     0.97628   0.25001   0.16667   0.00000  Uiso   1.00
C114   C     0.61395   0.31851   0.23230   0.00000  Uiso   1.00
C115   C     0.76863   0.10218   0.12771   0.00000  Uiso   1.00
C116   C     0.63302   0.29365   0.27853   0.00000  Uiso   1.00
C117   C     0.65600   0.32875   0.31339   0.00000  Uiso   1.00
C118   C     0.88606   0.18148   0.23227   0.00000  Uiso   1.00
C119   C     0.86697   0.20631   0.27849   0.00000  Uiso   1.00
C120   C     0.84397   0.17120   0.31333   0.00000  Uiso   1.00
C121   C     0.88604   0.31850   0.10103   0.00000  Uiso   1.00
C122   C     0.86698   0.29365   0.05481   0.00000  Uiso   1.00
C123   C     0.84400   0.32874   0.01993   0.00000  Uiso   1.00
C124   C     0.61395   0.18148   0.10106   0.00000  Uiso   1.00
C125   C     0.63303   0.20631   0.05484   0.00000  Uiso   1.00
C126   C     0.76958   0.39782   0.20502   0.00000  Uiso   1.00
C127   C     0.65603   0.17121   0.02001   0.00000  Uiso   1.00
C128   C     0.73136   0.10218   0.20562   0.00000  Uiso   1.00
C129   C     0.73042   0.39782   0.12831   0.00000  Uiso   1.00
C130   C     0.76885   0.05239   0.12683   0.00000  Uiso   1.00
C131   C     0.76982   0.44760   0.20590   0.00000  Uiso   1.00
C132   C     0.73113   0.05239   0.20650   0.00000  Uiso   1.00
F133   F     0.78820   0.02963   0.08777   0.00000  Uiso   1.00
F134   F     0.79013   0.47037   0.24433   0.00000  Uiso   1.00
F135   F     0.71176   0.02963   0.24554   0.00000  Uiso   1.00
F136   F     0.70985   0.47036   0.08901   0.00000  Uiso   1.00
H137   H     0.78354   0.12163   0.09715   0.00000  Uiso   1.00
H138   H     0.63231   0.35657   0.32563   0.00000  Uiso   1.00
H139   H     0.66841   0.30996   0.01375   0.00000  Uiso   1.00
H140   H     0.60547   0.27624   0.29912   0.00000  Uiso   1.00
H141   H     0.65718   0.26602   0.26735   0.00000  Uiso   1.00
H142   H     0.63938   0.34008   0.21293   0.00000  Uiso   1.00
H143   H     0.58916   0.34485   0.24563   0.00000  Uiso   1.00
H144   H     0.83155   0.18998   0.01369   0.00000  Uiso   1.00
H145   H     0.86765   0.14338   0.32557   0.00000  Uiso   1.00
H146   H     0.81537   0.15437   0.29400   0.00000  Uiso   1.00
H147   H     0.89450   0.22372   0.29912   0.00000  Uiso   1.00
H148   H     0.78522   0.37835   0.23510   0.00000  Uiso   1.00
H149   H     0.84281   0.23395   0.26731   0.00000  Uiso   1.00
H150   H     0.86064   0.15990   0.21288   0.00000  Uiso   1.00
H151   H     0.91086   0.15515   0.24561   0.00000  Uiso   1.00
H152   H     0.81539   0.34558   0.03923   0.00000  Uiso   1.00
H153   H     0.86769   0.35656   0.00770   0.00000  Uiso   1.00
H154   H     0.83159   0.30995   0.31957   0.00000  Uiso   1.00
H155   H     0.89453   0.27623   0.03422   0.00000  Uiso   1.00
H156   H     0.84282   0.26602   0.06598   0.00000  Uiso   1.00
H157   H     0.86061   0.34008   0.12040   0.00000  Uiso   1.00
H158   H     0.91084   0.34484   0.08770   0.00000  Uiso   1.00
H159   H     0.71645   0.12163   0.23618   0.00000  Uiso   1.00
H160   H     0.66846   0.18998   0.31964   0.00000  Uiso   1.00
H161   H     0.68464   0.15438   0.03934   0.00000  Uiso   1.00
H162   H     0.63236   0.14338   0.00777   0.00000  Uiso   1.00
H163   H     0.60549   0.22372   0.03422   0.00000  Uiso   1.00
H164   H     0.65719   0.23395   0.06602   0.00000  Uiso   1.00
H165   H     0.63936   0.15990   0.12045   0.00000  Uiso   1.00
H166   H     0.58914   0.15515   0.08773   0.00000  Uiso   1.00
H167   H     0.71478   0.37834   0.09823   0.00000  Uiso   1.00
H168   H     0.52702   0.30751   0.21838   0.00000  Uiso   1.00
H169   H     0.97299   0.19250   0.21838   0.00000  Uiso   1.00
H170   H     0.97298   0.30751   0.11496   0.00000  Uiso   1.00
H171   H     0.52701   0.19250   0.11496   0.00000  Uiso   1.00
H172   H     0.68461   0.34559   0.29409   0.00000  Uiso   1.00
N173   N     0.75000   0.12623   0.16667   0.00000  Uiso   1.00
N174   N     0.75000   0.37377   0.16667   0.00000  Uiso   1.00
O175   O     0.68453   0.28974   0.16667   0.00000  Uiso   1.00
O176   O     0.81547   0.21026   0.16666   0.00000  Uiso   1.00
O177   O     0.81547   0.28974   0.16666   0.00000  Uiso   1.00
O178   O     0.68453   0.21026   0.16667   0.00000  Uiso   1.00
O179   O     0.75000   0.28973   0.09511   0.00000  Uiso   1.00
O180   O     0.75000   0.21027   0.23822   0.00000  Uiso   1.00
O181   O     0.75000   0.28973   0.23822   0.00000  Uiso   1.00
O182   O     0.75000   0.21027   0.09511   0.00000  Uiso   1.00
Zn183  Zn    0.75000   0.30307   0.16667   0.00000  Uiso   1.00
Zn184  Zn    0.75000   0.19693   0.16667   0.00000  Uiso   1.00
C185   C     0.16376   0.75000   0.16667   0.00000  Uiso   1.00
C186   C     0.23016   0.94760   0.12744   0.00000  Uiso   1.00
C187   C     0.25000   0.75000   0.07282   0.00000  Uiso   1.00
C188   C     0.25000   0.75000   0.26052   0.00000  Uiso   1.00
C189   C     0.24999   0.52662   0.16666   0.00000  Uiso   1.00
C190   C     0.24999   0.97338   0.16667   0.00000  Uiso   1.00
C191   C     0.25000   0.75000   0.02178   0.00000  Uiso   1.00
C192   C     0.25000   0.75000   0.31155   0.00000  Uiso   1.00
C193   C     0.04599   0.78285   0.19577   0.00000  Uiso   1.00
C194   C     0.45402   0.71716   0.19576   0.00000  Uiso   1.00
C195   C     0.45401   0.78284   0.13757   0.00000  Uiso   1.00
C196   C     0.33624   0.75000   0.16666   0.00000  Uiso   1.00
C197   C     0.04598   0.71717   0.13757   0.00000  Uiso   1.00
C198   C     0.09207   0.78330   0.19688   0.00000  Uiso   1.00
C199   C     0.40794   0.71670   0.19687   0.00000  Uiso   1.00
C200   C     0.40793   0.78330   0.13645   0.00000  Uiso   1.00
C201   C     0.09206   0.71670   0.13646   0.00000  Uiso   1.00
C202   C     0.11557   0.75000   0.16667   0.00000  Uiso   1.00
C203   C     0.38443   0.75000   0.16666   0.00000  Uiso   1.00
C204   C     0.02372   0.75001   0.16667   0.00000  Uiso   1.00
C205   C     0.47628   0.75001   0.16667   0.00000  Uiso   1.00
C206   C     0.11395   0.81851   0.23230   0.00000  Uiso   1.00
C207   C     0.26863   0.60218   0.12771   0.00000  Uiso   1.00
C208   C     0.13302   0.79365   0.27853   0.00000  Uiso   1.00
C209   C     0.15600   0.82875   0.31339   0.00000  Uiso   1.00
C210   C     0.38606   0.68148   0.23227   0.00000  Uiso   1.00
C211   C     0.36697   0.70631   0.27849   0.00000  Uiso   1.00
C212   C     0.34397   0.67120   0.31333   0.00000  Uiso   1.00
C213   C     0.38604   0.81850   0.10103   0.00000  Uiso   1.00
C214   C     0.36698   0.79365   0.05481   0.00000  Uiso   1.00
C215   C     0.34400   0.82874   0.01993   0.00000  Uiso   1.00
C216   C     0.11395   0.68148   0.10106   0.00000  Uiso   1.00
C217   C     0.13303   0.70631   0.05484   0.00000  Uiso   1.00
C218   C     0.26958   0.89782   0.20502   0.00000  Uiso   1.00
C219   C     0.15603   0.67121   0.02001   0.00000  Uiso   1.00
C220   C     0.23136   0.60218   0.20562   0.00000  Uiso   1.00
C221   C     0.23042   0.89782   0.12831   0.00000  Uiso   1.00
C222   C     0.26885   0.55239   0.12683   0.00000  Uiso   1.00
C223   C     0.26982   0.94760   0.20590   0.00000  Uiso   1.00
C224   C     0.23113   0.55239   0.20650   0.00000  Uiso   1.00
F225   F     0.28820   0.52963   0.08777   0.00000  Uiso   1.00
F226   F     0.29013   0.97037   0.24433   0.00000  Uiso   1.00
F227   F     0.21176   0.52963   0.24554   0.00000  Uiso   1.00
F228   F     0.20985   0.97036   0.08901   0.00000  Uiso   1.00
H229   H     0.28354   0.62163   0.09715   0.00000  Uiso   1.00
H230   H     0.13231   0.85657   0.32563   0.00000  Uiso   1.00
H231   H     0.16841   0.80996   0.01375   0.00000  Uiso   1.00
H232   H     0.10547   0.77624   0.29912   0.00000  Uiso   1.00
H233   H     0.15718   0.76602   0.26735   0.00000  Uiso   1.00
H234   H     0.13938   0.84008   0.21293   0.00000  Uiso   1.00
H235   H     0.08916   0.84485   0.24563   0.00000  Uiso   1.00
H236   H     0.33155   0.68998   0.01369   0.00000  Uiso   1.00
H237   H     0.36765   0.64338   0.32557   0.00000  Uiso   1.00
H238   H     0.31537   0.65437   0.29400   0.00000  Uiso   1.00
H239   H     0.39450   0.72372   0.29912   0.00000  Uiso   1.00
H240   H     0.28522   0.87835   0.23510   0.00000  Uiso   1.00
H241   H     0.34281   0.73395   0.26731   0.00000  Uiso   1.00
H242   H     0.36064   0.65990   0.21288   0.00000  Uiso   1.00
H243   H     0.41086   0.65515   0.24561   0.00000  Uiso   1.00
H244   H     0.31539   0.84558   0.03923   0.00000  Uiso   1.00
H245   H     0.36769   0.85656   0.00770   0.00000  Uiso   1.00
H246   H     0.33159   0.80995   0.31957   0.00000  Uiso   1.00
H247   H     0.39453   0.77623   0.03422   0.00000  Uiso   1.00
H248   H     0.34282   0.76602   0.06598   0.00000  Uiso   1.00
H249   H     0.36061   0.84008   0.12040   0.00000  Uiso   1.00
H250   H     0.41084   0.84484   0.08770   0.00000  Uiso   1.00
H251   H     0.21645   0.62163   0.23618   0.00000  Uiso   1.00
H252   H     0.16846   0.68998   0.31964   0.00000  Uiso   1.00
H253   H     0.18464   0.65438   0.03934   0.00000  Uiso   1.00
H254   H     0.13236   0.64338   0.00777   0.00000  Uiso   1.00
H255   H     0.10549   0.72372   0.03422   0.00000  Uiso   1.00
H256   H     0.15719   0.73395   0.06602   0.00000  Uiso   1.00
H257   H     0.13936   0.65990   0.12045   0.00000  Uiso   1.00
H258   H     0.08914   0.65515   0.08773   0.00000  Uiso   1.00
H259   H     0.21478   0.87834   0.09823   0.00000  Uiso   1.00
H260   H     0.02702   0.80751   0.21838   0.00000  Uiso   1.00
H261   H     0.47299   0.69250   0.21838   0.00000  Uiso   1.00
H262   H     0.47298   0.80751   0.11496   0.00000  Uiso   1.00
H263   H     0.02701   0.69250   0.11496   0.00000  Uiso   1.00
H264   H     0.18461   0.84559   0.29409   0.00000  Uiso   1.00
N265   N     0.25000   0.62623   0.16667   0.00000  Uiso   1.00
N266   N     0.25000   0.87377   0.16667   0.00000  Uiso   1.00
O267   O     0.18453   0.78974   0.16667   0.00000  Uiso   1.00
O268   O     0.31547   0.71026   0.16666   0.00000  Uiso   1.00
O269   O     0.31547   0.78974   0.16666   0.00000  Uiso   1.00
O270   O     0.18453   0.71026   0.16667   0.00000  Uiso   1.00
O271   O     0.25000   0.78973   0.09511   0.00000  Uiso   1.00
O272   O     0.25000   0.71027   0.23822   0.00000  Uiso   1.00
O273   O     0.25000   0.78973   0.23822   0.00000  Uiso   1.00
O274   O     0.25000   0.71027   0.09511   0.00000  Uiso   1.00
Zn275  Zn    0.25000   0.80307   0.16667   0.00000  Uiso   1.00
Zn276  Zn    0.25000   0.69693   0.16667   0.00000  Uiso   1.00
C277   C     0.66376   0.75000   0.16667   0.00000  Uiso   1.00
C278   C     0.73016   0.94760   0.12744   0.00000  Uiso   1.00
C279   C     0.75000   0.75000   0.07282   0.00000  Uiso   1.00
C280   C     0.75000   0.75000   0.26052   0.00000  Uiso   1.00
C281   C     0.74999   0.52662   0.16666   0.00000  Uiso   1.00
C282   C     0.74999   0.97338   0.16667   0.00000  Uiso   1.00
C283   C     0.75000   0.75000   0.02178   0.00000  Uiso   1.00
C284   C     0.75000   0.75000   0.31155   0.00000  Uiso   1.00
C285   C     0.54599   0.78285   0.19577   0.00000  Uiso   1.00
C286   C     0.95402   0.71716   0.19576   0.00000  Uiso   1.00
C287   C     0.95401   0.78284   0.13757   0.00000  Uiso   1.00
C288   C     0.83624   0.75000   0.16666   0.00000  Uiso   1.00
C289   C     0.54598   0.71717   0.13757   0.00000  Uiso   1.00
C290   C     0.59207   0.78330   0.19688   0.00000  Uiso   1.00
C291   C     0.90794   0.71670   0.19687   0.00000  Uiso   1.00
C292   C     0.90793   0.78330   0.13645   0.00000  Uiso   1.00
C293   C     0.59206   0.71670   0.13646   0.00000  Uiso   1.00
C294   C     0.61557   0.75000   0.16667   0.00000  Uiso   1.00
C295   C     0.88443   0.75000   0.16666   0.00000  Uiso   1.00
C296   C     0.52372   0.75001   0.16667   0.00000  Uiso   1.00
C297   C     0.97628   0.75001   0.16667   0.00000  Uiso   1.00
C298   C     0.61395   0.81851   0.23230   0.00000  Uiso   1.00
C299   C     0.76863   0.60218   0.12771   0.00000  Uiso   1.00
C300   C     0.63302   0.79365   0.27853   0.00000  Uiso   1.00
C301   C     0.65600   0.82875   0.31339   0.00000  Uiso   1.00
C302   C     0.88606   0.68148   0.23227   0.00000  Uiso   1.00
C303   C     0.86697   0.70631   0.27849   0.00000  Uiso   1.00
C304   C     0.84397   0.67120   0.31333   0.00000  Uiso   1.00
C305   C     0.88604   0.81850   0.10103   0.00000  Uiso   1.00
C306   C     0.86698   0.79365   0.05481   0.00000  Uiso   1.00
C307   C     0.84400   0.82874   0.01993   0.00000  Uiso   1.00
C308   C     0.61395   0.68148   0.10106   0.00000  Uiso   1.00
C309   C     0.63303   0.70631   0.05484   0.00000  Uiso   1.00
C310   C     0.76958   0.89782   0.20502   0.00000  Uiso   1.00
C311   C     0.65603   0.67121   0.02001   0.00000  Uiso   1.00
C312   C     0.73136   0.60218   0.20562   0.00000  Uiso   1.00
C313   C     0.73042   0.89782   0.12831   0.00000  Uiso   1.00
C314   C     0.76885   0.55239   0.12683   0.00000  Uiso   1.00
C315   C     0.76982   0.94760   0.20590   0.00000  Uiso   1.00
C316   C     0.73113   0.55239   0.20650   0.00000  Uiso   1.00
F317   F     0.78820   0.52963   0.08777   0.00000  Uiso   1.00
F318   F     0.79013   0.97037   0.24433   0.00000  Uiso   1.00
F319   F     0.71176   0.52963   0.24554   0.00000  Uiso   1.00
F320   F     0.70985   0.97036   0.08901   0.00000  Uiso   1.00
H321   H     0.78354   0.62163   0.09715   0.00000  Uiso   1.00
H322   H     0.63231   0.85657   0.32563   0.00000  Uiso   1.00
H323   H     0.66841   0.80996   0.01375   0.00000  Uiso   1.00
H324   H     0.60547   0.77624   0.29912   0.00000  Uiso   1.00
H325   H     0.65718   0.76602   0.26735   0.00000  Uiso   1.00
H326   H     0.63938   0.84008   0.21293   0.00000  Uiso   1.00
H327   H     0.58916   0.84485   0.24563   0.00000  Uiso   1.00
H328   H     0.83155   0.68998   0.01369   0.00000  Uiso   1.00
H329   H     0.86765   0.64338   0.32557   0.00000  Uiso   1.00
H330   H     0.81537   0.65437   0.29400   0.00000  Uiso   1.00
H331   H     0.89450   0.72372   0.29912   0.00000  Uiso   1.00
H332   H     0.78522   0.87835   0.23510   0.00000  Uiso   1.00
H333   H     0.84281   0.73395   0.26731   0.00000  Uiso   1.00
H334   H     0.86064   0.65990   0.21288   0.00000  Uiso   1.00
H335   H     0.91086   0.65515   0.24561   0.00000  Uiso   1.00
H336   H     0.81539   0.84558   0.03923   0.00000  Uiso   1.00
H337   H     0.86769   0.85656   0.00770   0.00000  Uiso   1.00
H338   H     0.83159   0.80995   0.31957   0.00000  Uiso   1.00
H339   H     0.89453   0.77623   0.03422   0.00000  Uiso   1.00
H340   H     0.84282   0.76602   0.06598   0.00000  Uiso   1.00
H341   H     0.86061   0.84008   0.12040   0.00000  Uiso   1.00
H342   H     0.91084   0.84484   0.08770   0.00000  Uiso   1.00
H343   H     0.71645   0.62163   0.23618   0.00000  Uiso   1.00
H344   H     0.66846   0.68998   0.31964   0.00000  Uiso   1.00
H345   H     0.68464   0.65438   0.03934   0.00000  Uiso   1.00
H346   H     0.63236   0.64338   0.00777   0.00000  Uiso   1.00
H347   H     0.60549   0.72372   0.03422   0.00000  Uiso   1.00
H348   H     0.65719   0.73395   0.06602   0.00000  Uiso   1.00
H349   H     0.63936   0.65990   0.12045   0.00000  Uiso   1.00
H350   H     0.58914   0.65515   0.08773   0.00000  Uiso   1.00
H351   H     0.71478   0.87834   0.09823   0.00000  Uiso   1.00
H352   H     0.52702   0.80751   0.21838   0.00000  Uiso   1.00
H353   H     0.97299   0.69250   0.21838   0.00000  Uiso   1.00
H354   H     0.97298   0.80751   0.11496   0.00000  Uiso   1.00
H355   H     0.52701   0.69250   0.11496   0.00000  Uiso   1.00
H356   H     0.68461   0.84559   0.29409   0.00000  Uiso   1.00
N357   N     0.75000   0.62623   0.16667   0.00000  Uiso   1.00
N358   N     0.75000   0.87377   0.16667   0.00000  Uiso   1.00
O359   O     0.68453   0.78974   0.16667   0.00000  Uiso   1.00
O360   O     0.81547   0.71026   0.16666   0.00000  Uiso   1.00
O361   O     0.81547   0.78974   0.16666   0.00000  Uiso   1.00
O362   O     0.68453   0.71026   0.16667   0.00000  Uiso   1.00
O363   O     0.75000   0.78973   0.09511   0.00000  Uiso   1.00
O364   O     0.75000   0.71027   0.23822   0.00000  Uiso   1.00
O365   O     0.75000   0.78973   0.23822   0.00000  Uiso   1.00
O366   O     0.75000   0.71027   0.09511   0.00000  Uiso   1.00
Zn367  Zn    0.75000   0.80307   0.16667   0.00000  Uiso   1.00
Zn368  Zn    0.75000   0.69693   0.16667   0.00000  Uiso   1.00
C369   C     0.16376   0.25000   0.50001   0.00000  Uiso   1.00
C370   C     0.23016   0.44760   0.46077   0.00000  Uiso   1.00
C371   C     0.25000   0.25000   0.40615   0.00000  Uiso   1.00
C372   C     0.25000   0.25000   0.59385   0.00000  Uiso   1.00
C373   C     0.24999   0.02662   0.50000   0.00000  Uiso   1.00
C374   C     0.24999   0.47338   0.50000   0.00000  Uiso   1.00
C375   C     0.25000   0.25000   0.35511   0.00000  Uiso   1.00
C376   C     0.25000   0.25000   0.64489   0.00000  Uiso   1.00
C377   C     0.04599   0.28285   0.52910   0.00000  Uiso   1.00
C378   C     0.45402   0.21716   0.52910   0.00000  Uiso   1.00
C379   C     0.45401   0.28284   0.47090   0.00000  Uiso   1.00
C380   C     0.33624   0.25000   0.49999   0.00000  Uiso   1.00
C381   C     0.04598   0.21717   0.47091   0.00000  Uiso   1.00
C382   C     0.09207   0.28330   0.53022   0.00000  Uiso   1.00
C383   C     0.40794   0.21670   0.53021   0.00000  Uiso   1.00
C384   C     0.40793   0.28330   0.46978   0.00000  Uiso   1.00
C385   C     0.09206   0.21670   0.46979   0.00000  Uiso   1.00
C386   C     0.11557   0.25000   0.50001   0.00000  Uiso   1.00
C387   C     0.38443   0.25000   0.49999   0.00000  Uiso   1.00
C388   C     0.02372   0.25001   0.50000   0.00000  Uiso   1.00
C389   C     0.47628   0.25001   0.50000   0.00000  Uiso   1.00
C390   C     0.11395   0.31851   0.56563   0.00000  Uiso   1.00
C391   C     0.26863   0.10218   0.46105   0.00000  Uiso   1.00
C392   C     0.13302   0.29365   0.61186   0.00000  Uiso   1.00
C393   C     0.15600   0.32875   0.64673   0.00000  Uiso   1.00
C394   C     0.38606   0.18148   0.56560   0.00000  Uiso   1.00
C395   C     0.36697   0.20631   0.61183   0.00000  Uiso   1.00
C396   C     0.34397   0.17120   0.64666   0.00000  Uiso   1.00
C397   C     0.38604   0.31850   0.43437   0.00000  Uiso   1.00
C398   C     0.36698   0.29365   0.38814   0.00000  Uiso   1.00
C399   C     0.34400   0.32874   0.35327   0.00000  Uiso   1.00
C400   C     0.11395   0.18148   0.43440   0.00000  Uiso   1.00
C401   C     0.13303   0.20631   0.38817   0.00000  Uiso   1.00
C402   C     0.26958   0.39782   0.53835   0.00000  Uiso   1.00
C403   C     0.15603   0.17121   0.35334   0.00000  Uiso   1.00
C404   C     0.23136   0.10218   0.53895   0.00000  Uiso   1.00
C405   C     0.23042   0.39782   0.46165   0.00000  Uiso   1.00
C406   C     0.26885   0.05239   0.46016   0.00000  Uiso   1.00
C407   C     0.26982   0.44760   0.53923   0.00000  Uiso   1.00
C408   C     0.23113   0.05239   0.53984   0.00000  Uiso   1.00
F409   F     0.28820   0.02963   0.42111   0.00000  Uiso   1.00
F410   F     0.29013   0.47037   0.57766   0.00000  Uiso   1.00
F411   F     0.21176   0.02963   0.57887   0.00000  Uiso   1.00
F412   F     0.20985   0.47036   0.42234   0.00000  Uiso   1.00
H413   H     0.28354   0.12163   0.43049   0.00000  Uiso   1.00
H414   H     0.13231   0.35657   0.65896   0.00000  Uiso   1.00
H415   H     0.16841   0.30996   0.34709   0.00000  Uiso   1.00
H416   H     0.10547   0.27624   0.63245   0.00000  Uiso   1.00
H417   H     0.15718   0.26602   0.60068   0.00000  Uiso   1.00
H418   H     0.13938   0.34008   0.54626   0.00000  Uiso   1.00
H419   H     0.08916   0.34485   0.57896   0.00000  Uiso   1.00
H420   H     0.33155   0.18998   0.34702   0.00000  Uiso   1.00
H421   H     0.36765   0.14338   0.65890   0.00000  Uiso   1.00
H422   H     0.31537   0.15437   0.62733   0.00000  Uiso   1.00
H423   H     0.39450   0.22372   0.63245   0.00000  Uiso   1.00
H424   H     0.28522   0.37835   0.56844   0.00000  Uiso   1.00
H425   H     0.34281   0.23395   0.60065   0.00000  Uiso   1.00
H426   H     0.36064   0.15990   0.54621   0.00000  Uiso   1.00
H427   H     0.41086   0.15515   0.57894   0.00000  Uiso   1.00
H428   H     0.31539   0.34558   0.37256   0.00000  Uiso   1.00
H429   H     0.36769   0.35656   0.34103   0.00000  Uiso   1.00
H430   H     0.33159   0.30995   0.65291   0.00000  Uiso   1.00
H431   H     0.39453   0.27623   0.36755   0.00000  Uiso   1.00
H432   H     0.34282   0.26602   0.39932   0.00000  Uiso   1.00
H433   H     0.36061   0.34008   0.45373   0.00000  Uiso   1.00
H434   H     0.41084   0.34484   0.42103   0.00000  Uiso   1.00
H435   H     0.21645   0.12163   0.56951   0.00000  Uiso   1.00
H436   H     0.16846   0.18998   0.65298   0.00000  Uiso   1.00
H437   H     0.18464   0.15438   0.37267   0.00000  Uiso   1.00
H438   H     0.13236   0.14338   0.34110   0.00000  Uiso   1.00
H439   H     0.10549   0.22372   0.36755   0.00000  Uiso   1.00
H440   H     0.15719   0.23395   0.39935   0.00000  Uiso   1.00
H441   H     0.13936   0.15990   0.45379   0.00000  Uiso   1.00
H442   H     0.08914   0.15515   0.42106   0.00000  Uiso   1.00
H443   H     0.21478   0.37834   0.43157   0.00000  Uiso   1.00
H444   H     0.02702   0.30751   0.55171   0.00000  Uiso   1.00
H445   H     0.47299   0.19250   0.55171   0.00000  Uiso   1.00
H446   H     0.47298   0.30751   0.44829   0.00000  Uiso   1.00
H447   H     0.02701   0.19250   0.44829   0.00000  Uiso   1.00
H448   H     0.18461   0.34559   0.62743   0.00000  Uiso   1.00
N449   N     0.25000   0.12623   0.50000   0.00000  Uiso   1.00
N450   N     0.25000   0.37377   0.50000   0.00000  Uiso   1.00
O451   O     0.18453   0.28974   0.50000   0.00000  Uiso   1.00
O452   O     0.31547   0.21026   0.50000   0.00000  Uiso   1.00
O453   O     0.31547   0.28974   0.50000   0.00000  Uiso   1.00
O454   O     0.18453   0.21026   0.50000   0.00000  Uiso   1.00
O455   O     0.25000   0.28973   0.42845   0.00000  Uiso   1.00
O456   O     0.25000   0.21027   0.57155   0.00000  Uiso   1.00
O457   O     0.25000   0.28973   0.57155   0.00000  Uiso   1.00
O458   O     0.25000   0.21027   0.42845   0.00000  Uiso   1.00
Zn459  Zn    0.25000   0.30307   0.50000   0.00000  Uiso   1.00
Zn460  Zn    0.25000   0.19693   0.50000   0.00000  Uiso   1.00
C461   C     0.66376   0.25000   0.50001   0.00000  Uiso   1.00
C462   C     0.73016   0.44760   0.46077   0.00000  Uiso   1.00
C463   C     0.75000   0.25000   0.40615   0.00000  Uiso   1.00
C464   C     0.75000   0.25000   0.59385   0.00000  Uiso   1.00
C465   C     0.74999   0.02662   0.50000   0.00000  Uiso   1.00
C466   C     0.74999   0.47338   0.50000   0.00000  Uiso   1.00
C467   C     0.75000   0.25000   0.35511   0.00000  Uiso   1.00
C468   C     0.75000   0.25000   0.64489   0.00000  Uiso   1.00
C469   C     0.54599   0.28285   0.52910   0.00000  Uiso   1.00
C470   C     0.95402   0.21716   0.52910   0.00000  Uiso   1.00
C471   C     0.95401   0.28284   0.47090   0.00000  Uiso   1.00
C472   C     0.83624   0.25000   0.49999   0.00000  Uiso   1.00
C473   C     0.54598   0.21717   0.47091   0.00000  Uiso   1.00
C474   C     0.59207   0.28330   0.53022   0.00000  Uiso   1.00
C475   C     0.90794   0.21670   0.53021   0.00000  Uiso   1.00
C476   C     0.90793   0.28330   0.46978   0.00000  Uiso   1.00
C477   C     0.59206   0.21670   0.46979   0.00000  Uiso   1.00
C478   C     0.61557   0.25000   0.50001   0.00000  Uiso   1.00
C479   C     0.88443   0.25000   0.49999   0.00000  Uiso   1.00
C480   C     0.52372   0.25001   0.50000   0.00000  Uiso   1.00
C481   C     0.97628   0.25001   0.50000   0.00000  Uiso   1.00
C482   C     0.61395   0.31851   0.56563   0.00000  Uiso   1.00
C483   C     0.76863   0.10218   0.46105   0.00000  Uiso   1.00
C484   C     0.63302   0.29365   0.61186   0.00000  Uiso   1.00
C485   C     0.65600   0.32875   0.64673   0.00000  Uiso   1.00
C486   C     0.88606   0.18148   0.56560   0.00000  Uiso   1.00
C487   C     0.86697   0.20631   0.61183   0.00000  Uiso   1.00
C488   C     0.84397   0.17120   0.64666   0.00000  Uiso   1.00
C489   C     0.88604   0.31850   0.43437   0.00000  Uiso   1.00
C490   C     0.86698   0.29365   0.38814   0.00000  Uiso   1.00
C491   C     0.84400   0.32874   0.35327   0.00000  Uiso   1.00
C492   C     0.61395   0.18148   0.43440   0.00000  Uiso   1.00
C493   C     0.63303   0.20631   0.38817   0.00000  Uiso   1.00
C494   C     0.76958   0.39782   0.53835   0.00000  Uiso   1.00
C495   C     0.65603   0.17121   0.35334   0.00000  Uiso   1.00
C496   C     0.73136   0.10218   0.53895   0.00000  Uiso   1.00
C497   C     0.73042   0.39782   0.46165   0.00000  Uiso   1.00
C498   C     0.76885   0.05239   0.46016   0.00000  Uiso   1.00
C499   C     0.76982   0.44760   0.53923   0.00000  Uiso   1.00
C500   C     0.73113   0.05239   0.53984   0.00000  Uiso   1.00
F501   F     0.78820   0.02963   0.42111   0.00000  Uiso   1.00
F502   F     0.79013   0.47037   0.57766   0.00000  Uiso   1.00
F503   F     0.71176   0.02963   0.57887   0.00000  Uiso   1.00
F504   F     0.70985   0.47036   0.42234   0.00000  Uiso   1.00
H505   H     0.78354   0.12163   0.43049   0.00000  Uiso   1.00
H506   H     0.63231   0.35657   0.65896   0.00000  Uiso   1.00
H507   H     0.66841   0.30996   0.34709   0.00000  Uiso   1.00
H508   H     0.60547   0.27624   0.63245   0.00000  Uiso   1.00
H509   H     0.65718   0.26602   0.60068   0.00000  Uiso   1.00
H510   H     0.63938   0.34008   0.54626   0.00000  Uiso   1.00
H511   H     0.58916   0.34485   0.57896   0.00000  Uiso   1.00
H512   H     0.83155   0.18998   0.34702   0.00000  Uiso   1.00
H513   H     0.86765   0.14338   0.65890   0.00000  Uiso   1.00
H514   H     0.81537   0.15437   0.62733   0.00000  Uiso   1.00
H515   H     0.89450   0.22372   0.63245   0.00000  Uiso   1.00
H516   H     0.78522   0.37835   0.56844   0.00000  Uiso   1.00
H517   H     0.84281   0.23395   0.60065   0.00000  Uiso   1.00
H518   H     0.86064   0.15990   0.54621   0.00000  Uiso   1.00
H519   H     0.91086   0.15515   0.57894   0.00000  Uiso   1.00
H520   H     0.81539   0.34558   0.37256   0.00000  Uiso   1.00
H521   H     0.86769   0.35656   0.34103   0.00000  Uiso   1.00
H522   H     0.83159   0.30995   0.65291   0.00000  Uiso   1.00
H523   H     0.89453   0.27623   0.36755   0.00000  Uiso   1.00
H524   H     0.84282   0.26602   0.39932   0.00000  Uiso   1.00
H525   H     0.86061   0.34008   0.45373   0.00000  Uiso   1.00
H526   H     0.91084   0.34484   0.42103   0.00000  Uiso   1.00
H527   H     0.71645   0.12163   0.56951   0.00000  Uiso   1.00
H528   H     0.66846   0.18998   0.65298   0.00000  Uiso   1.00
H529   H     0.68464   0.15438   0.37267   0.00000  Uiso   1.00
H530   H     0.63236   0.14338   0.34110   0.00000  Uiso   1.00
H531   H     0.60549   0.22372   0.36755   0.00000  Uiso   1.00
H532   H     0.65719   0.23395   0.39935   0.00000  Uiso   1.00
H533   H     0.63936   0.15990   0.45379   0.00000  Uiso   1.00
H534   H     0.58914   0.15515   0.42106   0.00000  Uiso   1.00
H535   H     0.71478   0.37834   0.43157   0.00000  Uiso   1.00
H536   H     0.52702   0.30751   0.55171   0.00000  Uiso   1.00
H537   H     0.97299   0.19250   0.55171   0.00000  Uiso   1.00
H538   H     0.97298   0.30751   0.44829   0.00000  Uiso   1.00
H539   H     0.52701   0.19250   0.44829   0.00000  Uiso   1.00
H540   H     0.68461   0.34559   0.62743   0.00000  Uiso   1.00
N541   N     0.75000   0.12623   0.50000   0.00000  Uiso   1.00
N542   N     0.75000   0.37377   0.50000   0.00000  Uiso   1.00
O543   O     0.68453   0.28974   0.50000   0.00000  Uiso   1.00
O544   O     0.81547   0.21026   0.50000   0.00000  Uiso   1.00
O545   O     0.81547   0.28974   0.50000   0.00000  Uiso   1.00
O546   O     0.68453   0.21026   0.50000   0.00000  Uiso   1.00
O547   O     0.75000   0.28973   0.42845   0.00000  Uiso   1.00
O548   O     0.75000   0.21027   0.57155   0.00000  Uiso   1.00
O549   O     0.75000   0.28973   0.57155   0.00000  Uiso   1.00
O550   O     0.75000   0.21027   0.42845   0.00000  Uiso   1.00
Zn551  Zn    0.75000   0.30307   0.50000   0.00000  Uiso   1.00
Zn552  Zn    0.75000   0.19693   0.50000   0.00000  Uiso   1.00
C553   C     0.16376   0.75000   0.50001   0.00000  Uiso   1.00
C554   C     0.23016   0.94760   0.46077   0.00000  Uiso   1.00
C555   C     0.25000   0.75000   0.40615   0.00000  Uiso   1.00
C556   C     0.25000   0.75000   0.59385   0.00000  Uiso   1.00
C557   C     0.24999   0.52662   0.50000   0.00000  Uiso   1.00
C558   C     0.24999   0.97338   0.50000   0.00000  Uiso   1.00
C559   C     0.25000   0.75000   0.35511   0.00000  Uiso   1.00
C560   C     0.25000   0.75000   0.64489   0.00000  Uiso   1.00
C561   C     0.04599   0.78285   0.52910   0.00000  Uiso   1.00
C562   C     0.45402   0.71716   0.52910   0.00000  Uiso   1.00
C563   C     0.45401   0.78284   0.47090   0.00000  Uiso   1.00
C564   C     0.33624   0.75000   0.49999   0.00000  Uiso   1.00
C565   C     0.04598   0.71717   0.47091   0.00000  Uiso   1.00
C566   C     0.09207   0.78330   0.53022   0.00000  Uiso   1.00
C567   C     0.40794   0.71670   0.53021   0.00000  Uiso   1.00
C568   C     0.40793   0.78330   0.46978   0.00000  Uiso   1.00
C569   C     0.09206   0.71670   0.46979   0.00000  Uiso   1.00
C570   C     0.11557   0.75000   0.50001   0.00000  Uiso   1.00
C571   C     0.38443   0.75000   0.49999   0.00000  Uiso   1.00
C572   C     0.02372   0.75001   0.50000   0.00000  Uiso   1.00
C573   C     0.47628   0.75001   0.50000   0.00000  Uiso   1.00
C574   C     0.11395   0.81851   0.56563   0.00000  Uiso   1.00
C575   C     0.26863   0.60218   0.46105   0.00000  Uiso   1.00
C576   C     0.13302   0.79365   0.61186   0.00000  Uiso   1.00
C577   C     0.15600   0.82875   0.64673   0.00000  Uiso   1.00
C578   C     0.38606   0.68148   0.56560   0.00000  Uiso   1.00
C579   C     0.36697   0.70631   0.61183   0.00000  Uiso   1.00
C580   C     0.34397   0.67120   0.64666   0.00000  Uiso   1.00
C581   C     0.38604   0.81850   0.43437   0.00000  Uiso   1.00
C582   C     0.36698   0.79365   0.38814   0.00000  Uiso   1.00
C583   C     0.34400   0.82874   0.35327   0.00000  Uiso   1.00
C584   C     0.11395   0.68148   0.43440   0.00000  Uiso   1.00
C585   C     0.13303   0.70631   0.38817   0.00000  Uiso   1.00
C586   C     0.26958   0.89782   0.53835   0.00000  Uiso   1.00
C587   C     0.15603   0.67121   0.35334   0.00000  Uiso   1.00
C588   C     0.23136   0.60218   0.53895   0.00000  Uiso   1.00
C589   C     0.23042   0.89782   0.46165   0.00000  Uiso   1.00
C590   C     0.26885   0.55239   0.46016   0.00000  Uiso   1.00
C591   C     0.26982   0.94760   0.53923   0.00000  Uiso   1.00
C592   C     0.23113   0.55239   0.53984   0.00000  Uiso   1.00
F593   F     0.28820   0.52963   0.42111   0.00000  Uiso   1.00
F594   F     0.29013   0.97037   0.57766   0.00000  Uiso   1.00
F595   F     0.21176   0.52963   0.57887   0.00000  Uiso   1.00
F596   F     0.20985   0.97036   0.42234   0.00000  Uiso   1.00
H597   H     0.28354   0.62163   0.43049   0.00000  Uiso   1.00
H598   H     0.13231   0.85657   0.65896   0.00000  Uiso   1.00
H599   H     0.16841   0.80996   0.34709   0.00000  Uiso   1.00
H600   H     0.10547   0.77624   0.63245   0.00000  Uiso   1.00
H601   H     0.15718   0.76602   0.60068   0.00000  Uiso   1.00
H602   H     0.13938   0.84008   0.54626   0.00000  Uiso   1.00
H603   H     0.08916   0.84485   0.57896   0.00000  Uiso   1.00
H604   H     0.33155   0.68998   0.34702   0.00000  Uiso   1.00
H605   H     0.36765   0.64338   0.65890   0.00000  Uiso   1.00
H606   H     0.31537   0.65437   0.62733   0.00000  Uiso   1.00
H607   H     0.39450   0.72372   0.63245   0.00000  Uiso   1.00
H608   H     0.28522   0.87835   0.56844   0.00000  Uiso   1.00
H609   H     0.34281   0.73395   0.60065   0.00000  Uiso   1.00
H610   H     0.36064   0.65990   0.54621   0.00000  Uiso   1.00
H611   H     0.41086   0.65515   0.57894   0.00000  Uiso   1.00
H612   H     0.31539   0.84558   0.37256   0.00000  Uiso   1.00
H613   H     0.36769   0.85656   0.34103   0.00000  Uiso   1.00
H614   H     0.33159   0.80995   0.65291   0.00000  Uiso   1.00
H615   H     0.39453   0.77623   0.36755   0.00000  Uiso   1.00
H616   H     0.34282   0.76602   0.39932   0.00000  Uiso   1.00
H617   H     0.36061   0.84008   0.45373   0.00000  Uiso   1.00
H618   H     0.41084   0.84484   0.42103   0.00000  Uiso   1.00
H619   H     0.21645   0.62163   0.56951   0.00000  Uiso   1.00
H620   H     0.16846   0.68998   0.65298   0.00000  Uiso   1.00
H621   H     0.18464   0.65438   0.37267   0.00000  Uiso   1.00
H622   H     0.13236   0.64338   0.34110   0.00000  Uiso   1.00
H623   H     0.10549   0.72372   0.36755   0.00000  Uiso   1.00
H624   H     0.15719   0.73395   0.39935   0.00000  Uiso   1.00
H625   H     0.13936   0.65990   0.45379   0.00000  Uiso   1.00
H626   H     0.08914   0.65515   0.42106   0.00000  Uiso   1.00
H627   H     0.21478   0.87834   0.43157   0.00000  Uiso   1.00
H628   H     0.02702   0.80751   0.55171   0.00000  Uiso   1.00
H629   H     0.47299   0.69250   0.55171   0.00000  Uiso   1.00
H630   H     0.47298   0.80751   0.44829   0.00000  Uiso   1.00
H631   H     0.02701   0.69250   0.44829   0.00000  Uiso   1.00
H632   H     0.18461   0.84559   0.62743   0.00000  Uiso   1.00
N633   N     0.25000   0.62623   0.50000   0.00000  Uiso   1.00
N634   N     0.25000   0.87377   0.50000   0.00000  Uiso   1.00
O635   O     0.18453   0.78974   0.50000   0.00000  Uiso   1.00
O636   O     0.31547   0.71026   0.50000   0.00000  Uiso   1.00
O637   O     0.31547   0.78974   0.50000   0.00000  Uiso   1.00
O638   O     0.18453   0.71026   0.50000   0.00000  Uiso   1.00
O639   O     0.25000   0.78973   0.42845   0.00000  Uiso   1.00
O640   O     0.25000   0.71027   0.57155   0.00000  Uiso   1.00
O641   O     0.25000   0.78973   0.57155   0.00000  Uiso   1.00
O642   O     0.25000   0.71027   0.42845   0.00000  Uiso   1.00
Zn643  Zn    0.25000   0.80307   0.50000   0.00000  Uiso   1.00
Zn644  Zn    0.25000   0.69693   0.50000   0.00000  Uiso   1.00
C645   C     0.66376   0.75000   0.50001   0.00000  Uiso   1.00
C646   C     0.73016   0.94760   0.46077   0.00000  Uiso   1.00
C647   C     0.75000   0.75000   0.40615   0.00000  Uiso   1.00
C648   C     0.75000   0.75000   0.59385   0.00000  Uiso   1.00
C649   C     0.74999   0.52662   0.50000   0.00000  Uiso   1.00
C650   C     0.74999   0.97338   0.50000   0.00000  Uiso   1.00
C651   C     0.75000   0.75000   0.35511   0.00000  Uiso   1.00
C652   C     0.75000   0.75000   0.64489   0.00000  Uiso   1.00
C653   C     0.54599   0.78285   0.52910   0.00000  Uiso   1.00
C654   C     0.95402   0.71716   0.52910   0.00000  Uiso   1.00
C655   C     0.95401   0.78284   0.47090   0.00000  Uiso   1.00
C656   C     0.83624   0.75000   0.49999   0.00000  Uiso   1.00
C657   C     0.54598   0.71717   0.47091   0.00000  Uiso   1.00
C658   C     0.59207   0.78330   0.53022   0.00000  Uiso   1.00
C659   C     0.90794   0.71670   0.53021   0.00000  Uiso   1.00
C660   C     0.90793   0.78330   0.46978   0.00000  Uiso   1.00
C661   C     0.59206   0.71670   0.46979   0.00000  Uiso   1.00
C662   C     0.61557   0.75000   0.50001   0.00000  Uiso   1.00
C663   C     0.88443   0.75000   0.49999   0.00000  Uiso   1.00
C664   C     0.52372   0.75001   0.50000   0.00000  Uiso   1.00
C665   C     0.97628   0.75001   0.50000   0.00000  Uiso   1.00
C666   C     0.61395   0.81851   0.56563   0.00000  Uiso   1.00
C667   C     0.76863   0.60218   0.46105   0.00000  Uiso   1.00
C668   C     0.63302   0.79365   0.61186   0.00000  Uiso   1.00
C669   C     0.65600   0.82875   0.64673   0.00000  Uiso   1.00
C670   C     0.88606   0.68148   0.56560   0.00000  Uiso   1.00
C671   C     0.86697   0.70631   0.61183   0.00000  Uiso   1.00
C672   C     0.84397   0.67120   0.64666   0.00000  Uiso   1.00
C673   C     0.88604   0.81850   0.43437   0.00000  Uiso   1.00
C674   C     0.86698   0.79365   0.38814   0.00000  Uiso   1.00
C675   C     0.84400   0.82874   0.35327   0.00000  Uiso   1.00
C676   C     0.61395   0.68148   0.43440   0.00000  Uiso   1.00
C677   C     0.63303   0.70631   0.38817   0.00000  Uiso   1.00
C678   C     0.76958   0.89782   0.53835   0.00000  Uiso   1.00
C679   C     0.65603   0.67121   0.35334   0.00000  Uiso   1.00
C680   C     0.73136   0.60218   0.53895   0.00000  Uiso   1.00
C681   C     0.73042   0.89782   0.46165   0.00000  Uiso   1.00
C682   C     0.76885   0.55239   0.46016   0.00000  Uiso   1.00
C683   C     0.76982   0.94760   0.53923   0.00000  Uiso   1.00
C684   C     0.73113   0.55239   0.53984   0.00000  Uiso   1.00
F685   F     0.78820   0.52963   0.42111   0.00000  Uiso   1.00
F686   F     0.79013   0.97037   0.57766   0.00000  Uiso   1.00
F687   F     0.71176   0.52963   0.57887   0.00000  Uiso   1.00
F688   F     0.70985   0.97036   0.42234   0.00000  Uiso   1.00
H689   H     0.78354   0.62163   0.43049   0.00000  Uiso   1.00
H690   H     0.63231   0.85657   0.65896   0.00000  Uiso   1.00
H691   H     0.66841   0.80996   0.34709   0.00000  Uiso   1.00
H692   H     0.60547   0.77624   0.63245   0.00000  Uiso   1.00
H693   H     0.65718   0.76602   0.60068   0.00000  Uiso   1.00
H694   H     0.63938   0.84008   0.54626   0.00000  Uiso   1.00
H695   H     0.58916   0.84485   0.57896   0.00000  Uiso   1.00
H696   H     0.83155   0.68998   0.34702   0.00000  Uiso   1.00
H697   H     0.86765   0.64338   0.65890   0.00000  Uiso   1.00
H698   H     0.81537   0.65437   0.62733   0.00000  Uiso   1.00
H699   H     0.89450   0.72372   0.63245   0.00000  Uiso   1.00
H700   H     0.78522   0.87835   0.56844   0.00000  Uiso   1.00
H701   H     0.84281   0.73395   0.60065   0.00000  Uiso   1.00
H702   H     0.86064   0.65990   0.54621   0.00000  Uiso   1.00
H703   H     0.91086   0.65515   0.57894   0.00000  Uiso   1.00
H704   H     0.81539   0.84558   0.37256   0.00000  Uiso   1.00
H705   H     0.86769   0.85656   0.34103   0.00000  Uiso   1.00
H706   H     0.83159   0.80995   0.65291   0.00000  Uiso   1.00
H707   H     0.89453   0.77623   0.36755   0.00000  Uiso   1.00
H708   H     0.84282   0.76602   0.39932   0.00000  Uiso   1.00
H709   H     0.86061   0.84008   0.45373   0.00000  Uiso   1.00
H710   H     0.91084   0.84484   0.42103   0.00000  Uiso   1.00
H711   H     0.71645   0.62163   0.56951   0.00000  Uiso   1.00
H712   H     0.66846   0.68998   0.65298   0.00000  Uiso   1.00
H713   H     0.68464   0.65438   0.37267   0.00000  Uiso   1.00
H714   H     0.63236   0.64338   0.34110   0.00000  Uiso   1.00
H715   H     0.60549   0.72372   0.36755   0.00000  Uiso   1.00
H716   H     0.65719   0.73395   0.39935   0.00000  Uiso   1.00
H717   H     0.63936   0.65990   0.45379   0.00000  Uiso   1.00
H718   H     0.58914   0.65515   0.42106   0.00000  Uiso   1.00
H719   H     0.71478   0.87834   0.43157   0.00000  Uiso   1.00
H720   H     0.52702   0.80751   0.55171   0.00000  Uiso   1.00
H721   H     0.97299   0.69250   0.55171   0.00000  Uiso   1.00
H722   H     0.97298   0.80751   0.44829   0.00000  Uiso   1.00
H723   H     0.52701   0.69250   0.44829   0.00000  Uiso   1.00
H724   H     0.68461   0.84559   0.62743   0.00000  Uiso   1.00
N725   N     0.75000   0.62623   0.50000   0.00000  Uiso   1.00
N726   N     0.75000   0.87377   0.50000   0.00000  Uiso   1.00
O727   O     0.68453   0.78974   0.50000   0.00000  Uiso   1.00
O728   O     0.81547   0.71026   0.50000   0.00000  Uiso   1.00
O729   O     0.81547   0.78974   0.50000   0.00000  Uiso   1.00
O730   O     0.68453   0.71026   0.50000   0.00000  Uiso   1.00
O731   O     0.75000   0.78973   0.42845   0.00000  Uiso   1.00
O732   O     0.75000   0.71027   0.57155   0.00000  Uiso   1.00
O733   O     0.75000   0.78973   0.57155   0.00000  Uiso   1.00
O734   O     0.75000   0.71027   0.42845   0.00000  Uiso   1.00
Zn735  Zn    0.75000   0.80307   0.50000   0.00000  Uiso   1.00
Zn736  Zn    0.75000   0.69693   0.50000   0.00000  Uiso   1.00
C737   C     0.16376   0.25000   0.83334   0.00000  Uiso   1.00
C738   C     0.23016   0.44760   0.79410   0.00000  Uiso   1.00
C739   C     0.25000   0.25000   0.73948   0.00000  Uiso   1.00
C740   C     0.25000   0.25000   0.92718   0.00000  Uiso   1.00
C741   C     0.24999   0.02662   0.83333   0.00000  Uiso   1.00
C742   C     0.24999   0.47338   0.83333   0.00000  Uiso   1.00
C743   C     0.25000   0.25000   0.68845   0.00000  Uiso   1.00
C744   C     0.25000   0.25000   0.97822   0.00000  Uiso   1.00
C745   C     0.04599   0.28285   0.86243   0.00000  Uiso   1.00
C746   C     0.45402   0.21716   0.86243   0.00000  Uiso   1.00
C747   C     0.45401   0.28284   0.80424   0.00000  Uiso   1.00
C748   C     0.33624   0.25000   0.83333   0.00000  Uiso   1.00
C749   C     0.04598   0.21717   0.80424   0.00000  Uiso   1.00
C750   C     0.09207   0.28330   0.86355   0.00000  Uiso   1.00
C751   C     0.40794   0.21670   0.86354   0.00000  Uiso   1.00
C752   C     0.40793   0.28330   0.80312   0.00000  Uiso   1.00
C753   C     0.09206   0.21670   0.80313   0.00000  Uiso   1.00
C754   C     0.11557   0.25000   0.83334   0.00000  Uiso   1.00
C755   C     0.38443   0.25000   0.83333   0.00000  Uiso   1.00
C756   C     0.02372   0.25001   0.83334   0.00000  Uiso   1.00
C757   C     0.47628   0.25001   0.83334   0.00000  Uiso   1.00
C758   C     0.11395   0.31851   0.89896   0.00000  Uiso   1.00
C759   C     0.26863   0.10218   0.79438   0.00000  Uiso   1.00
C760   C     0.13302   0.29365   0.94519   0.00000  Uiso   1.00
C761   C     0.15600   0.32875   0.98006   0.00000  Uiso   1.00
C762   C     0.38606   0.18148   0.89894   0.00000  Uiso   1.00
C763   C     0.36697   0.20631   0.94516   0.00000  Uiso   1.00
C764   C     0.34397   0.17120   0.98000   0.00000  Uiso   1.00
C765   C     0.38604   0.31850   0.76770   0.00000  Uiso   1.00
C766   C     0.36698   0.29365   0.72147   0.00000  Uiso   1.00
C767   C     0.34400   0.32874   0.68660   0.00000  Uiso   1.00
C768   C     0.11395   0.18148   0.76773   0.00000  Uiso   1.00
C769   C     0.13303   0.20631   0.72150   0.00000  Uiso   1.00
C770   C     0.26958   0.39782   0.87169   0.00000  Uiso   1.00
C771   C     0.15603   0.17121   0.68667   0.00000  Uiso   1.00
C772   C     0.23136   0.10218   0.87228   0.00000  Uiso   1.00
C773   C     0.23042   0.39782   0.79498   0.00000  Uiso   1.00
C774   C     0.26885   0.05239   0.79349   0.00000  Uiso   1.00
C775   C     0.26982   0.44760   0.87256   0.00000  Uiso   1.00
C776   C     0.23113   0.05239   0.87317   0.00000  Uiso   1.00
F777   F     0.28820   0.02963   0.75444   0.00000  Uiso   1.00
F778   F     0.29013   0.47037   0.91099   0.00000  Uiso   1.00
F779   F     0.21176   0.02963   0.91221   0.00000  Uiso   1.00
F780   F     0.20985   0.47036   0.75567   0.00000  Uiso   1.00
H781   H     0.28354   0.12163   0.76382   0.00000  Uiso   1.00
H782   H     0.13231   0.35657   0.99229   0.00000  Uiso   1.00
H783   H     0.16841   0.30996   0.68042   0.00000  Uiso   1.00
H784   H     0.10547   0.27624   0.96578   0.00000  Uiso   1.00
H785   H     0.15718   0.26602   0.93402   0.00000  Uiso   1.00
H786   H     0.13938   0.34008   0.87959   0.00000  Uiso   1.00
H787   H     0.08916   0.34485   0.91229   0.00000  Uiso   1.00
H788   H     0.33155   0.18998   0.68036   0.00000  Uiso   1.00
H789   H     0.36765   0.14338   0.99223   0.00000  Uiso   1.00
H790   H     0.31537   0.15437   0.96067   0.00000  Uiso   1.00
H791   H     0.39450   0.22372   0.96578   0.00000  Uiso   1.00
H792   H     0.28522   0.37835   0.90177   0.00000  Uiso   1.00
H793   H     0.34281   0.23395   0.93398   0.00000  Uiso   1.00
H794   H     0.36064   0.15990   0.87955   0.00000  Uiso   1.00
H795   H     0.41086   0.15515   0.91228   0.00000  Uiso   1.00
H796   H     0.31539   0.34558   0.70590   0.00000  Uiso   1.00
H797   H     0.36769   0.35656   0.67437   0.00000  Uiso   1.00
H798   H     0.33159   0.30995   0.98624   0.00000  Uiso   1.00
H799   H     0.39453   0.27623   0.70088   0.00000  Uiso   1.00
H800   H     0.34282   0.26602   0.73265   0.00000  Uiso   1.00
H801   H     0.36061   0.34008   0.78707   0.00000  Uiso   1.00
H802   H     0.41084   0.34484   0.75437   0.00000  Uiso   1.00
H803   H     0.21645   0.12163   0.90284   0.00000  Uiso   1.00
H804   H     0.16846   0.18998   0.98631   0.00000  Uiso   1.00
H805   H     0.18464   0.15438   0.70600   0.00000  Uiso   1.00
H806   H     0.13236   0.14338   0.67444   0.00000  Uiso   1.00
H807   H     0.10549   0.22372   0.70088   0.00000  Uiso   1.00
H808   H     0.15719   0.23395   0.73268   0.00000  Uiso   1.00
H809   H     0.13936   0.15990   0.78712   0.00000  Uiso   1.00
H810   H     0.08914   0.15515   0.75439   0.00000  Uiso   1.00
H811   H     0.21478   0.37834   0.76490   0.00000  Uiso   1.00
H812   H     0.02702   0.30751   0.88505   0.00000  Uiso   1.00
H813   H     0.47299   0.19250   0.88504   0.00000  Uiso   1.00
H814   H     0.47298   0.30751   0.78162   0.00000  Uiso   1.00
H815   H     0.02701   0.19250   0.78163   0.00000  Uiso   1.00
H816   H     0.18461   0.34559   0.96076   0.00000  Uiso   1.00
N817   N     0.25000   0.12623   0.83333   0.00000  Uiso   1.00
N818   N     0.25000   0.37377   0.83333   0.00000  Uiso   1.00
O819   O     0.18453   0.28974   0.83334   0.00000  Uiso   1.00
O820   O     0.31547   0.21026   0.83333   0.00000  Uiso   1.00
O821   O     0.31547   0.28974   0.83333   0.00000  Uiso   1.00
O822   O     0.18453   0.21026   0.83334   0.00000  Uiso   1.00
O823   O     0.25000   0.28973   0.76178   0.00000  Uiso   1.00
O824   O     0.25000   0.21027   0.90489   0.00000  Uiso   1.00
O825   O     0.25000   0.28973   0.90489   0.00000  Uiso   1.00
O826   O     0.25000   0.21027   0.76178   0.00000  Uiso   1.00
Zn827  Zn    0.25000   0.30307   0.83333   0.00000  Uiso   1.00
Zn828  Zn    0.25000   0.19693   0.83333   0.00000  Uiso   1.00
C829   C     0.66376   0.25000   0.83334   0.00000  Uiso   1.00
C830   C     0.73016   0.44760   0.79410   0.00000  Uiso   1.00
C831   C     0.75000   0.25000   0.73948   0.00000  Uiso   1.00
C832   C     0.75000   0.25000   0.92718   0.00000  Uiso   1.00
C833   C     0.74999   0.02662   0.83333   0.00000  Uiso   1.00
C834   C     0.74999   0.47338   0.83333   0.00000  Uiso   1.00
C835   C     0.75000   0.25000   0.68845   0.00000  Uiso   1.00
C836   C     0.75000   0.25000   0.97822   0.00000  Uiso   1.00
C837   C     0.54599   0.28285   0.86243   0.00000  Uiso   1.00
C838   C     0.95402   0.21716   0.86243   0.00000  Uiso   1.00
C839   C     0.95401   0.28284   0.80424   0.00000  Uiso   1.00
C840   C     0.83624   0.25000   0.83333   0.00000  Uiso   1.00
C841   C     0.54598   0.21717   0.80424   0.00000  Uiso   1.00
C842   C     0.59207   0.28330   0.86355   0.00000  Uiso   1.00
C843   C     0.90794   0.21670   0.86354   0.00000  Uiso   1.00
C844   C     0.90793   0.28330   0.80312   0.00000  Uiso   1.00
C845   C     0.59206   0.21670   0.80313   0.00000  Uiso   1.00
C846   C     0.61557   0.25000   0.83334   0.00000  Uiso   1.00
C847   C     0.88443   0.25000   0.83333   0.00000  Uiso   1.00
C848   C     0.52372   0.25001   0.83334   0.00000  Uiso   1.00
C849   C     0.97628   0.25001   0.83334   0.00000  Uiso   1.00
C850   C     0.61395   0.31851   0.89896   0.00000  Uiso   1.00
C851   C     0.76863   0.10218   0.79438   0.00000  Uiso   1.00
C852   C     0.63302   0.29365   0.94519   0.00000  Uiso   1.00
C853   C     0.65600   0.32875   0.98006   0.00000  Uiso   1.00
C854   C     0.88606   0.18148   0.89894   0.00000  Uiso   1.00
C855   C     0.86697   0.20631   0.94516   0.00000  Uiso   1.00
C856   C     0.84397   0.17120   0.98000   0.00000  Uiso   1.00
C857   C     0.88604   0.31850   0.76770   0.00000  Uiso   1.00
C858   C     0.86698   0.29365   0.72147   0.00000  Uiso   1.00
C859   C     0.84400   0.32874   0.68660   0.00000  Uiso   1.00
C860   C     0.61395   0.18148   0.76773   0.00000  Uiso   1.00
C861   C     0.63303   0.20631   0.72150   0.00000  Uiso   1.00
C862   C     0.76958   0.39782   0.87169   0.00000  Uiso   1.00
C863   C     0.65603   0.17121   0.68667   0.00000  Uiso   1.00
C864   C     0.73136   0.10218   0.87228   0.00000  Uiso   1.00
C865   C     0.73042   0.39782   0.79498   0.00000  Uiso   1.00
C866   C     0.76885   0.05239   0.79349   0.00000  Uiso   1.00
C867   C     0.76982   0.44760   0.87256   0.00000  Uiso   1.00
C868   C     0.73113   0.05239   0.87317   0.00000  Uiso   1.00
F869   F     0.78820   0.02963   0.75444   0.00000  Uiso   1.00
F870   F     0.79013   0.47037   0.91099   0.00000  Uiso   1.00
F871   F     0.71176   0.02963   0.91221   0.00000  Uiso   1.00
F872   F     0.70985   0.47036   0.75567   0.00000  Uiso   1.00
H873   H     0.78354   0.12163   0.76382   0.00000  Uiso   1.00
H874   H     0.63231   0.35657   0.99229   0.00000  Uiso   1.00
H875   H     0.66841   0.30996   0.68042   0.00000  Uiso   1.00
H876   H     0.60547   0.27624   0.96578   0.00000  Uiso   1.00
H877   H     0.65718   0.26602   0.93402   0.00000  Uiso   1.00
H878   H     0.63938   0.34008   0.87959   0.00000  Uiso   1.00
H879   H     0.58916   0.34485   0.91229   0.00000  Uiso   1.00
H880   H     0.83155   0.18998   0.68036   0.00000  Uiso   1.00
H881   H     0.86765   0.14338   0.99223   0.00000  Uiso   1.00
H882   H     0.81537   0.15437   0.96067   0.00000  Uiso   1.00
H883   H     0.89450   0.22372   0.96578   0.00000  Uiso   1.00
H884   H     0.78522   0.37835   0.90177   0.00000  Uiso   1.00
H885   H     0.84281   0.23395   0.93398   0.00000  Uiso   1.00
H886   H     0.86064   0.15990   0.87955   0.00000  Uiso   1.00
H887   H     0.91086   0.15515   0.91228   0.00000  Uiso   1.00
H888   H     0.81539   0.34558   0.70590   0.00000  Uiso   1.00
H889   H     0.86769   0.35656   0.67437   0.00000  Uiso   1.00
H890   H     0.83159   0.30995   0.98624   0.00000  Uiso   1.00
H891   H     0.89453   0.27623   0.70088   0.00000  Uiso   1.00
H892   H     0.84282   0.26602   0.73265   0.00000  Uiso   1.00
H893   H     0.86061   0.34008   0.78707   0.00000  Uiso   1.00
H894   H     0.91084   0.34484   0.75437   0.00000  Uiso   1.00
H895   H     0.71645   0.12163   0.90284   0.00000  Uiso   1.00
H896   H     0.66846   0.18998   0.98631   0.00000  Uiso   1.00
H897   H     0.68464   0.15438   0.70600   0.00000  Uiso   1.00
H898   H     0.63236   0.14338   0.67444   0.00000  Uiso   1.00
H899   H     0.60549   0.22372   0.70088   0.00000  Uiso   1.00
H900   H     0.65719   0.23395   0.73268   0.00000  Uiso   1.00
H901   H     0.63936   0.15990   0.78712   0.00000  Uiso   1.00
H902   H     0.58914   0.15515   0.75439   0.00000  Uiso   1.00
H903   H     0.71478   0.37834   0.76490   0.00000  Uiso   1.00
H904   H     0.52702   0.30751   0.88505   0.00000  Uiso   1.00
H905   H     0.97299   0.19250   0.88504   0.00000  Uiso   1.00
H906   H     0.97298   0.30751   0.78162   0.00000  Uiso   1.00
H907   H     0.52701   0.19250   0.78163   0.00000  Uiso   1.00
H908   H     0.68461   0.34559   0.96076   0.00000  Uiso   1.00
N909   N     0.75000   0.12623   0.83333   0.00000  Uiso   1.00
N910   N     0.75000   0.37377   0.83333   0.00000  Uiso   1.00
O911   O     0.68453   0.28974   0.83334   0.00000  Uiso   1.00
O912   O     0.81547   0.21026   0.83333   0.00000  Uiso   1.00
O913   O     0.81547   0.28974   0.83333   0.00000  Uiso   1.00
O914   O     0.68453   0.21026   0.83334   0.00000  Uiso   1.00
O915   O     0.75000   0.28973   0.76178   0.00000  Uiso   1.00
O916   O     0.75000   0.21027   0.90489   0.00000  Uiso   1.00
O917   O     0.75000   0.28973   0.90489   0.00000  Uiso   1.00
O918   O     0.75000   0.21027   0.76178   0.00000  Uiso   1.00
Zn919  Zn    0.75000   0.30307   0.83333   0.00000  Uiso   1.00
Zn920  Zn    0.75000   0.19693   0.83333   0.00000  Uiso   1.00
C921   C     0.16376   0.75000   0.83334   0.00000  Uiso   1.00
C922   C     0.23016   0.94760   0.79410   0.00000  Uiso   1.00
C923   C     0.25000   0.75000   0.73948   0.00000  Uiso   1.00
C924   C     0.25000   0.75000   0.92718   0.00000  Uiso   1.00
C925   C     0.24999   0.52662   0.83333   0.00000  Uiso   1.00
C926   C     0.24999   0.97338   0.83333   0.00000  Uiso   1.00
C927   C     0.25000   0.75000   0.68845   0.00000  Uiso   1.00
C928   C     0.25000   0.75000   0.97822   0.00000  Uiso   1.00
C929   C     0.04599   0.78285   0.86243   0.00000  Uiso   1.00
C930   C     0.45402   0.71716   0.86243   0.00000  Uiso   1.00
C931   C     0.45401   0.78284   0.80424   0.00000  Uiso   1.00
C932   C     0.33624   0.75000   0.83333   0.00000  Uiso   1.00
C933   C     0.04598   0.71717   0.80424   0.00000  Uiso   1.00
C934   C     0.09207   0.78330   0.86355   0.00000  Uiso   1.00
C935   C     0.40794   0.71670   0.86354   0.00000  Uiso   1.00
C936   C     0.40793   0.78330   0.80312   0.00000  Uiso   1.00
C937   C     0.09206   0.71670   0.80313   0.00000  Uiso   1.00
C938   C     0.11557   0.75000   0.83334   0.00000  Uiso   1.00
C939   C     0.38443   0.75000   0.83333   0.00000  Uiso   1.00
C940   C     0.02372   0.75001   0.83334   0.00000  Uiso   1.00
C941   C     0.47628   0.75001   0.83334   0.00000  Uiso   1.00
C942   C     0.11395   0.81851   0.89896   0.00000  Uiso   1.00
C943   C     0.26863   0.60218   0.79438   0.00000  Uiso   1.00
C944   C     0.13302   0.79365   0.94519   0.00000  Uiso   1.00
C945   C     0.15600   0.82875   0.98006   0.00000  Uiso   1.00
C946   C     0.38606   0.68148   0.89894   0.00000  Uiso   1.00
C947   C     0.36697   0.70631   0.94516   0.00000  Uiso   1.00
C948   C     0.34397   0.67120   0.98000   0.00000  Uiso   1.00
C949   C     0.38604   0.81850   0.76770   0.00000  Uiso   1.00
C950   C     0.36698   0.79365   0.72147   0.00000  Uiso   1.00
C951   C     0.34400   0.82874   0.68660   0.00000  Uiso   1.00
C952   C     0.11395   0.68148   0.76773   0.00000  Uiso   1.00
C953   C     0.13303   0.70631   0.72150   0.00000  Uiso   1.00
C954   C     0.26958   0.89782   0.87169   0.00000  Uiso   1.00
C955   C     0.15603   0.67121   0.68667   0.00000  Uiso   1.00
C956   C     0.23136   0.60218   0.87228   0.00000  Uiso   1.00
C957   C     0.23042   0.89782   0.79498   0.00000  Uiso   1.00
C958   C     0.26885   0.55239   0.79349   0.00000  Uiso   1.00
C959   C     0.26982   0.94760   0.87256   0.00000  Uiso   1.00
C960   C     0.23113   0.55239   0.87317   0.00000  Uiso   1.00
F961   F     0.28820   0.52963   0.75444   0.00000  Uiso   1.00
F962   F     0.29013   0.97037   0.91099   0.00000  Uiso   1.00
F963   F     0.21176   0.52963   0.91221   0.00000  Uiso   1.00
F964   F     0.20985   0.97036   0.75567   0.00000  Uiso   1.00
H965   H     0.28354   0.62163   0.76382   0.00000  Uiso   1.00
H966   H     0.13231   0.85657   0.99229   0.00000  Uiso   1.00
H967   H     0.16841   0.80996   0.68042   0.00000  Uiso   1.00
H968   H     0.10547   0.77624   0.96578   0.00000  Uiso   1.00
H969   H     0.15718   0.76602   0.93402   0.00000  Uiso   1.00
H970   H     0.13938   0.84008   0.87959   0.00000  Uiso   1.00
H971   H     0.08916   0.84485   0.91229   0.00000  Uiso   1.00
H972   H     0.33155   0.68998   0.68036   0.00000  Uiso   1.00
H973   H     0.36765   0.64338   0.99223   0.00000  Uiso   1.00
H974   H     0.31537   0.65437   0.96067   0.00000  Uiso   1.00
H975   H     0.39450   0.72372   0.96578   0.00000  Uiso   1.00
H976   H     0.28522   0.87835   0.90177   0.00000  Uiso   1.00
H977   H     0.34281   0.73395   0.93398   0.00000  Uiso   1.00
H978   H     0.36064   0.65990   0.87955   0.00000  Uiso   1.00
H979   H     0.41086   0.65515   0.91228   0.00000  Uiso   1.00
H980   H     0.31539   0.84558   0.70590   0.00000  Uiso   1.00
H981   H     0.36769   0.85656   0.67437   0.00000  Uiso   1.00
H982   H     0.33159   0.80995   0.98624   0.00000  Uiso   1.00
H983   H     0.39453   0.77623   0.70088   0.00000  Uiso   1.00
H984   H     0.34282   0.76602   0.73265   0.00000  Uiso   1.00
H985   H     0.36061   0.84008   0.78707   0.00000  Uiso   1.00
H986   H     0.41084   0.84484   0.75437   0.00000  Uiso   1.00
H987   H     0.21645   0.62163   0.90284   0.00000  Uiso   1.00
H988   H     0.16846   0.68998   0.98631   0.00000  Uiso   1.00
H989   H     0.18464   0.65438   0.70600   0.00000  Uiso   1.00
H990   H     0.13236   0.64338   0.67444   0.00000  Uiso   1.00
H991   H     0.10549   0.72372   0.70088   0.00000  Uiso   1.00
H992   H     0.15719   0.73395   0.73268   0.00000  Uiso   1.00
H993   H     0.13936   0.65990   0.78712   0.00000  Uiso   1.00
H994   H     0.08914   0.65515   0.75439   0.00000  Uiso   1.00
H995   H     0.21478   0.87834   0.76490   0.00000  Uiso   1.00
H996   H     0.02702   0.80751   0.88505   0.00000  Uiso   1.00
H997   H     0.47299   0.69250   0.88504   0.00000  Uiso   1.00
H998   H     0.47298   0.80751   0.78162   0.00000  Uiso   1.00
H999   H     0.02701   0.69250   0.78163   0.00000  Uiso   1.00
H1000  H     0.18461   0.84559   0.96076   0.00000  Uiso   1.00
N1001  N     0.25000   0.62623   0.83333   0.00000  Uiso   1.00
N1002  N     0.25000   0.87377   0.83333   0.00000  Uiso   1.00
O1003  O     0.18453   0.78974   0.83334   0.00000  Uiso   1.00
O1004  O     0.31547   0.71026   0.83333   0.00000  Uiso   1.00
O1005  O     0.31547   0.78974   0.83333   0.00000  Uiso   1.00
O1006  O     0.18453   0.71026   0.83334   0.00000  Uiso   1.00
O1007  O     0.25000   0.78973   0.76178   0.00000  Uiso   1.00
O1008  O     0.25000   0.71027   0.90489   0.00000  Uiso   1.00
O1009  O     0.25000   0.78973   0.90489   0.00000  Uiso   1.00
O1010  O     0.25000   0.71027   0.76178   0.00000  Uiso   1.00
Zn1011 Zn    0.25000   0.80307   0.83333   0.00000  Uiso   1.00
Zn1012 Zn    0.25000   0.69693   0.83333   0.00000  Uiso   1.00
C1013  C     0.66376   0.75000   0.83334   0.00000  Uiso   1.00
C1014  C     0.73016   0.94760   0.79410   0.00000  Uiso   1.00
C1015  C     0.75000   0.75000   0.73948   0.00000  Uiso   1.00
C1016  C     0.75000   0.75000   0.92718   0.00000  Uiso   1.00
C1017  C     0.74999   0.52662   0.83333   0.00000  Uiso   1.00
C1018  C     0.74999   0.97338   0.83333   0.00000  Uiso   1.00
C1019  C     0.75000   0.75000   0.68845   0.00000  Uiso   1.00
C1020  C     0.75000   0.75000   0.97822   0.00000  Uiso   1.00
C1021  C     0.54599   0.78285   0.86243   0.00000  Uiso   1.00
C1022  C     0.95402   0.71716   0.86243   0.00000  Uiso   1.00
C1023  C     0.95401   0.78284   0.80424   0.00000  Uiso   1.00
C1024  C     0.83624   0.75000   0.83333   0.00000  Uiso   1.00
C1025  C     0.54598   0.71717   0.80424   0.00000  Uiso   1.00
C1026  C     0.59207   0.78330   0.86355   0.00000  Uiso   1.00
C1027  C     0.90794   0.71670   0.86354   0.00000  Uiso   1.00
C1028  C     0.90793   0.78330   0.80312   0.00000  Uiso   1.00
C1029  C     0.59206   0.71670   0.80313   0.00000  Uiso   1.00
C1030  C     0.61557   0.75000   0.83334   0.00000  Uiso   1.00
C1031  C     0.88443   0.75000   0.83333   0.00000  Uiso   1.00
C1032  C     0.52372   0.75001   0.83334   0.00000  Uiso   1.00
C1033  C     0.97628   0.75001   0.83334   0.00000  Uiso   1.00
C1034  C     0.61395   0.81851   0.89896   0.00000  Uiso   1.00
C1035  C     0.76863   0.60218   0.79438   0.00000  Uiso   1.00
C1036  C     0.63302   0.79365   0.94519   0.00000  Uiso   1.00
C1037  C     0.65600   0.82875   0.98006   0.00000  Uiso   1.00
C1038  C     0.88606   0.68148   0.89894   0.00000  Uiso   1.00
C1039  C     0.86697   0.70631   0.94516   0.00000  Uiso   1.00
C1040  C     0.84397   0.67120   0.98000   0.00000  Uiso   1.00
C1041  C     0.88604   0.81850   0.76770   0.00000  Uiso   1.00
C1042  C     0.86698   0.79365   0.72147   0.00000  Uiso   1.00
C1043  C     0.84400   0.82874   0.68660   0.00000  Uiso   1.00
C1044  C     0.61395   0.68148   0.76773   0.00000  Uiso   1.00
C1045  C     0.63303   0.70631   0.72150   0.00000  Uiso   1.00
C1046  C     0.76958   0.89782   0.87169   0.00000  Uiso   1.00
C1047  C     0.65603   0.67121   0.68667   0.00000  Uiso   1.00
C1048  C     0.73136   0.60218   0.87228   0.00000  Uiso   1.00
C1049  C     0.73042   0.89782   0.79498   0.00000  Uiso   1.00
C1050  C     0.76885   0.55239   0.79349   0.00000  Uiso   1.00
C1051  C     0.76982   0.94760   0.87256   0.00000  Uiso   1.00
C1052  C     0.73113   0.55239   0.87317   0.00000  Uiso   1.00
F1053  F     0.78820   0.52963   0.75444   0.00000  Uiso   1.00
F1054  F     0.79013   0.97037   0.91099   0.00000  Uiso   1.00
F1055  F     0.71176   0.52963   0.91221   0.00000  Uiso   1.00
F1056  F     0.70985   0.97036   0.75567   0.00000  Uiso   1.00
H1057  H     0.78354   0.62163   0.76382   0.00000  Uiso   1.00
H1058  H     0.63231   0.85657   0.99229   0.00000  Uiso   1.00
H1059  H     0.66841   0.80996   0.68042   0.00000  Uiso   1.00
H1060  H     0.60547   0.77624   0.96578   0.00000  Uiso   1.00
H1061  H     0.65718   0.76602   0.93402   0.00000  Uiso   1.00
H1062  H     0.63938   0.84008   0.87959   0.00000  Uiso   1.00
H1063  H     0.58916   0.84485   0.91229   0.00000  Uiso   1.00
H1064  H     0.83155   0.68998   0.68036   0.00000  Uiso   1.00
H1065  H     0.86765   0.64338   0.99223   0.00000  Uiso   1.00
H1066  H     0.81537   0.65437   0.96067   0.00000  Uiso   1.00
H1067  H     0.89450   0.72372   0.96578   0.00000  Uiso   1.00
H1068  H     0.78522   0.87835   0.90177   0.00000  Uiso   1.00
H1069  H     0.84281   0.73395   0.93398   0.00000  Uiso   1.00
H1070  H     0.86064   0.65990   0.87955   0.00000  Uiso   1.00
H1071  H     0.91086   0.65515   0.91228   0.00000  Uiso   1.00
H1072  H     0.81539   0.84558   0.70590   0.00000  Uiso   1.00
H1073  H     0.86769   0.85656   0.67437   0.00000  Uiso   1.00
H1074  H     0.83159   0.80995   0.98624   0.00000  Uiso   1.00
H1075  H     0.89453   0.77623   0.70088   0.00000  Uiso   1.00
H1076  H     0.84282   0.76602   0.73265   0.00000  Uiso   1.00
H1077  H     0.86061   0.84008   0.78707   0.00000  Uiso   1.00
H1078  H     0.91084   0.84484   0.75437   0.00000  Uiso   1.00
H1079  H     0.71645   0.62163   0.90284   0.00000  Uiso   1.00
H1080  H     0.66846   0.68998   0.98631   0.00000  Uiso   1.00
H1081  H     0.68464   0.65438   0.70600   0.00000  Uiso   1.00
H1082  H     0.63236   0.64338   0.67444   0.00000  Uiso   1.00
H1083  H     0.60549   0.72372   0.70088   0.00000  Uiso   1.00
H1084  H     0.65719   0.73395   0.73268   0.00000  Uiso   1.00
H1085  H     0.63936   0.65990   0.78712   0.00000  Uiso   1.00
H1086  H     0.58914   0.65515   0.75439   0.00000  Uiso   1.00
H1087  H     0.71478   0.87834   0.76490   0.00000  Uiso   1.00
H1088  H     0.52702   0.80751   0.88505   0.00000  Uiso   1.00
H1089  H     0.97299   0.69250   0.88504   0.00000  Uiso   1.00
H1090  H     0.97298   0.80751   0.78162   0.00000  Uiso   1.00
H1091  H     0.52701   0.69250   0.78163   0.00000  Uiso   1.00
H1092  H     0.68461   0.84559   0.96076   0.00000  Uiso   1.00
N1093  N     0.75000   0.62623   0.83333   0.00000  Uiso   1.00
N1094  N     0.75000   0.87377   0.83333   0.00000  Uiso   1.00
O1095  O     0.68453   0.78974   0.83334   0.00000  Uiso   1.00
O1096  O     0.81547   0.71026   0.83333   0.00000  Uiso   1.00
O1097  O     0.81547   0.78974   0.83333   0.00000  Uiso   1.00
O1098  O     0.68453   0.71026   0.83334   0.00000  Uiso   1.00
O1099  O     0.75000   0.78973   0.76178   0.00000  Uiso   1.00
O1100  O     0.75000   0.71027   0.90489   0.00000  Uiso   1.00
O1101  O     0.75000   0.78973   0.90489   0.00000  Uiso   1.00
O1102  O     0.75000   0.71027   0.76178   0.00000  Uiso   1.00
Zn1103 Zn    0.75000   0.80307   0.83333   0.00000  Uiso   1.00
Zn1104 Zn    0.75000   0.69693   0.83333   0.00000  Uiso   1.00
loop_
_geom_bond_atom_site_label_1
_geom_bond_atom_site_label_2
_geom_bond_distance
_geom_bond_site_symmetry_2
_ccdc_geom_bond_type
C1     O86     1.286   .     A
C1     C18     1.451   .     S
C1     O83     1.286   .     A
C2     F44     1.357   .     S
C2     C6      1.409   .     A
C2     C37     1.407   .     A
C3     O90     1.271   .     A
C3     C7      1.363   .     S
C3     O87     1.271   .     A
C4     C8      1.363   .     S
C4     O89     1.271   .     A
C4     O88     1.271   .     A
C5     C38     1.409   .     A
C5     C40     1.409   .     A
C5     C190    1.505   1_545 S
C6     C39     1.409   .     A
C6     C189    1.505   .     S
C7     C744    1.164   1_554 S
C8     C375    1.164   .     S
C9     H76     1.085   .     S
C9     C14     1.387   .     A
C9     C20     1.384   .     A
C10    C15     1.387   .     A
C10    H77     1.085   .     S
C10    C21     1.384   .     A
C11    C21     1.384   .     A
C11    H78     1.085   .     S
C11    C16     1.387   .     A
C12    O85     1.286   .     A
C12    O84     1.286   .     A
C12    C19     1.451   .     S
C13    H79     1.085   .     S
C13    C20     1.384   .     A
C13    C17     1.387   .     A
C14    C18     1.428   .     A
C14    C22     1.523   .     S
C15    C19     1.428   .     A
C15    C26     1.523   .     S
C16    C29     1.523   .     S
C16    C19     1.428   .     A
C17    C18     1.428   .     A
C17    C32     1.523   .     S
C20    C113    1.428   1_455 S
C21    C112    1.428   .     S
C22    H50     1.107   .     S
C22    C24     1.532   .     S
C22    H51     1.113   .     S
C23    H45     1.082   .     S
C23    N81     1.364   .     A
C23    C38     1.407   .     A
C24    H48     1.110   .     S
C24    C25     1.526   .     S
C24    H49     1.108   .     S
C25    H80     1.111   .     S
C25    H46     1.111   .     S
C25    H415    1.110   .     S
C26    C27     1.532   .     S
C26    H59     1.113   .     S
C26    H58     1.107   .     S
C27    H55     1.110   .     S
C27    H57     1.108   .     S
C27    C28     1.526   .     S
C28    H54     1.111   .     S
C28    H53     1.111   .     S
C28    H420    1.110   .     S
C29    C30     1.532   .     S
C29    H65     1.107   .     S
C29    H66     1.113   .     S
C30    H64     1.108   .     S
C30    C31     1.526   .     S
C30    H63     1.110   .     S
C31    H61     1.111   .     S
C31    H60     1.111   .     S
C31    H798    1.110   1_554 S
C32    H74     1.113   .     S
C32    H73     1.107   .     S
C32    C33     1.532   .     S
C33    H72     1.108   .     S
C33    C35     1.526   .     S
C33    H71     1.110   .     S
C34    H56     1.082   .     S
C34    C39     1.407   .     A
C34    N82     1.363   .     A
C35    H70     1.111   .     S
C35    H69     1.111   .     S
C35    H804    1.110   1_554 S
C36    H67     1.082   .     S
C36    C40     1.407   .     A
C36    N81     1.364   .     A
C37    H75     1.082   .     S
C37    N82     1.363   .     A
C38    F41     1.357   .     S
C39    F42     1.357   .     S
C40    F43     1.357   .     S
H47    C761    1.110   1_554 S
H52    C764    1.110   1_554 S
H62    C399    1.110   .     S
H68    C403    1.110   .     S
N81    Zn92    1.998   .     S
N82    Zn91    1.998   .     S
O83    Zn91    2.006   .     S
O84    Zn92    2.006   .     S
O85    Zn91    2.006   .     S
O86    Zn92    2.006   .     S
O87    Zn91    1.948   .     S
O88    Zn92    1.948   .     S
O89    Zn91    1.948   .     S
O90    Zn92    1.948   .     S
C93    O178    1.286   .     A
C93    C110    1.451   .     S
C93    O175    1.286   .     A
C94    F136    1.357   .     S
C94    C98     1.409   .     A
C94    C129    1.407   .     A
C95    O182    1.271   .     A
C95    C99     1.363   .     S
C95    O179    1.271   .     A
C96    C100    1.363   .     S
C96    O181    1.271   .     A
C96    O180    1.271   .     A
C97    C130    1.409   .     A
C97    C132    1.409   .     A
C97    C282    1.505   1_545 S
C98    C131    1.409   .     A
C98    C281    1.505   .     S
C99    C836    1.164   1_554 S
C100   C467    1.164   .     S
C101   H168    1.085   .     S
C101   C106    1.387   .     A
C101   C112    1.384   .     A
C102   C107    1.387   .     A
C102   H169    1.085   .     S
C102   C113    1.384   .     A
C103   C113    1.384   .     A
C103   H170    1.085   .     S
C103   C108    1.387   .     A
C104   O177    1.286   .     A
C104   O176    1.286   .     A
C104   C111    1.451   .     S
C105   H171    1.085   .     S
C105   C112    1.384   .     A
C105   C109    1.387   .     A
C106   C110    1.428   .     A
C106   C114    1.523   .     S
C107   C111    1.428   .     A
C107   C118    1.523   .     S
C108   C121    1.523   .     S
C108   C111    1.428   .     A
C109   C110    1.428   .     A
C109   C124    1.523   .     S
C113   C20     1.428   1_655 S
C114   H142    1.107   .     S
C114   C116    1.532   .     S
C114   H143    1.113   .     S
C115   H137    1.082   .     S
C115   N173    1.364   .     A
C115   C130    1.407   .     A
C116   H140    1.110   .     S
C116   C117    1.526   .     S
C116   H141    1.108   .     S
C117   H172    1.111   .     S
C117   H138    1.111   .     S
C117   H507    1.110   .     S
C118   C119    1.532   .     S
C118   H151    1.113   .     S
C118   H150    1.107   .     S
C119   H147    1.110   .     S
C119   H149    1.108   .     S
C119   C120    1.526   .     S
C120   H146    1.111   .     S
C120   H145    1.111   .     S
C120   H512    1.110   .     S
C121   C122    1.532   .     S
C121   H157    1.107   .     S
C121   H158    1.113   .     S
C122   H156    1.108   .     S
C122   C123    1.526   .     S
C122   H155    1.110   .     S
C123   H153    1.111   .     S
C123   H152    1.111   .     S
C123   H890    1.110   1_554 S
C124   H166    1.113   .     S
C124   H165    1.107   .     S
C124   C125    1.532   .     S
C125   H164    1.108   .     S
C125   C127    1.526   .     S
C125   H163    1.110   .     S
C126   H148    1.082   .     S
C126   C131    1.407   .     A
C126   N174    1.363   .     A
C127   H162    1.111   .     S
C127   H161    1.111   .     S
C127   H896    1.110   1_554 S
C128   H159    1.082   .     S
C128   C132    1.407   .     A
C128   N173    1.364   .     A
C129   H167    1.082   .     S
C129   N174    1.363   .     A
C130   F133    1.357   .     S
C131   F134    1.357   .     S
C132   F135    1.357   .     S
H139   C853    1.110   1_554 S
H144   C856    1.110   1_554 S
H154   C491    1.110   .     S
H160   C495    1.110   .     S
N173   Zn184   1.998   .     S
N174   Zn183   1.998   .     S
O175   Zn183   2.006   .     S
O176   Zn184   2.006   .     S
O177   Zn183   2.006   .     S
O178   Zn184   2.006   .     S
O179   Zn183   1.948   .     S
O180   Zn184   1.948   .     S
O181   Zn183   1.948   .     S
O182   Zn184   1.948   .     S
C185   O270    1.286   .     A
C185   C202    1.451   .     S
C185   O267    1.286   .     A
C186   F228    1.357   .     S
C186   C190    1.409   .     A
C186   C221    1.407   .     A
C187   O274    1.271   .     A
C187   C191    1.363   .     S
C187   O271    1.271   .     A
C188   C192    1.363   .     S
C188   O273    1.271   .     A
C188   O272    1.271   .     A
C189   C222    1.409   .     A
C189   C224    1.409   .     A
C190   C223    1.409   .     A
C190   C5      1.505   1_565 S
C191   C928    1.164   1_554 S
C192   C559    1.164   .     S
C193   H260    1.085   .     S
C193   C198    1.387   .     A
C193   C204    1.384   .     A
C194   C199    1.387   .     A
C194   H261    1.085   .     S
C194   C205    1.384   .     A
C195   C205    1.384   .     A
C195   H262    1.085   .     S
C195   C200    1.387   .     A
C196   O269    1.286   .     A
C196   O268    1.286   .     A
C196   C203    1.451   .     S
C197   H263    1.085   .     S
C197   C204    1.384   .     A
C197   C201    1.387   .     A
C198   C202    1.428   .     A
C198   C206    1.523   .     S
C199   C203    1.428   .     A
C199   C210    1.523   .     S
C200   C213    1.523   .     S
C200   C203    1.428   .     A
C201   C202    1.428   .     A
C201   C216    1.523   .     S
C204   C297    1.428   1_455 S
C205   C296    1.428   .     S
C206   H234    1.107   .     S
C206   C208    1.532   .     S
C206   H235    1.113   .     S
C207   H229    1.082   .     S
C207   N265    1.364   .     A
C207   C222    1.407   .     A
C208   H232    1.110   .     S
C208   C209    1.526   .     S
C208   H233    1.108   .     S
C209   H264    1.111   .     S
C209   H230    1.111   .     S
C209   H599    1.110   .     S
C210   C211    1.532   .     S
C210   H243    1.113   .     S
C210   H242    1.107   .     S
C211   H239    1.110   .     S
C211   H241    1.108   .     S
C211   C212    1.526   .     S
C212   H238    1.111   .     S
C212   H237    1.111   .     S
C212   H604    1.110   .     S
C213   C214    1.532   .     S
C213   H249    1.107   .     S
C213   H250    1.113   .     S
C214   H248    1.108   .     S
C214   C215    1.526   .     S
C214   H247    1.110   .     S
C215   H245    1.111   .     S
C215   H244    1.111   .     S
C215   H982    1.110   1_554 S
C216   H258    1.113   .     S
C216   H257    1.107   .     S
C216   C217    1.532   .     S
C217   H256    1.108   .     S
C217   C219    1.526   .     S
C217   H255    1.110   .     S
C218   H240    1.082   .     S
C218   C223    1.407   .     A
C218   N266    1.363   .     A
C219   H254    1.111   .     S
C219   H253    1.111   .     S
C219   H988    1.110   1_554 S
C220   H251    1.082   .     S
C220   C224    1.407   .     A
C220   N265    1.364   .     A
C221   H259    1.082   .     S
C221   N266    1.363   .     A
C222   F225    1.357   .     S
C223   F226    1.357   .     S
C224   F227    1.357   .     S
H231   C945    1.110   1_554 S
H236   C948    1.110   1_554 S
H246   C583    1.110   .     S
H252   C587    1.110   .     S
N265   Zn276   1.998   .     S
N266   Zn275   1.998   .     S
O267   Zn275   2.006   .     S
O268   Zn276   2.006   .     S
O269   Zn275   2.006   .     S
O270   Zn276   2.006   .     S
O271   Zn275   1.948   .     S
O272   Zn276   1.948   .     S
O273   Zn275   1.948   .     S
O274   Zn276   1.948   .     S
C277   O362    1.286   .     A
C277   C294    1.451   .     S
C277   O359    1.286   .     A
C278   F320    1.357   .     S
C278   C282    1.409   .     A
C278   C313    1.407   .     A
C279   O366    1.271   .     A
C279   C283    1.363   .     S
C279   O363    1.271   .     A
C280   C284    1.363   .     S
C280   O365    1.271   .     A
C280   O364    1.271   .     A
C281   C314    1.409   .     A
C281   C316    1.409   .     A
C282   C315    1.409   .     A
C282   C97     1.505   1_565 S
C283   C1020   1.164   1_554 S
C284   C651    1.164   .     S
C285   H352    1.085   .     S
C285   C290    1.387   .     A
C285   C296    1.384   .     A
C286   C291    1.387   .     A
C286   H353    1.085   .     S
C286   C297    1.384   .     A
C287   C297    1.384   .     A
C287   H354    1.085   .     S
C287   C292    1.387   .     A
C288   O361    1.286   .     A
C288   O360    1.286   .     A
C288   C295    1.451   .     S
C289   H355    1.085   .     S
C289   C296    1.384   .     A
C289   C293    1.387   .     A
C290   C294    1.428   .     A
C290   C298    1.523   .     S
C291   C295    1.428   .     A
C291   C302    1.523   .     S
C292   C305    1.523   .     S
C292   C295    1.428   .     A
C293   C294    1.428   .     A
C293   C308    1.523   .     S
C297   C204    1.428   1_655 S
C298   H326    1.107   .     S
C298   C300    1.532   .     S
C298   H327    1.113   .     S
C299   H321    1.082   .     S
C299   N357    1.364   .     A
C299   C314    1.407   .     A
C300   H324    1.110   .     S
C300   C301    1.526   .     S
C300   H325    1.108   .     S
C301   H356    1.111   .     S
C301   H322    1.111   .     S
C301   H691    1.110   .     S
C302   C303    1.532   .     S
C302   H335    1.113   .     S
C302   H334    1.107   .     S
C303   H331    1.110   .     S
C303   H333    1.108   .     S
C303   C304    1.526   .     S
C304   H330    1.111   .     S
C304   H329    1.111   .     S
C304   H696    1.110   .     S
C305   C306    1.532   .     S
C305   H341    1.107   .     S
C305   H342    1.113   .     S
C306   H340    1.108   .     S
C306   C307    1.526   .     S
C306   H339    1.110   .     S
C307   H337    1.111   .     S
C307   H336    1.111   .     S
C307   H1074   1.110   1_554 S
C308   H350    1.113   .     S
C308   H349    1.107   .     S
C308   C309    1.532   .     S
C309   H348    1.108   .     S
C309   C311    1.526   .     S
C309   H347    1.110   .     S
C310   H332    1.082   .     S
C310   C315    1.407   .     A
C310   N358    1.363   .     A
C311   H346    1.111   .     S
C311   H345    1.111   .     S
C311   H1080   1.110   1_554 S
C312   H343    1.082   .     S
C312   C316    1.407   .     A
C312   N357    1.364   .     A
C313   H351    1.082   .     S
C313   N358    1.363   .     A
C314   F317    1.357   .     S
C315   F318    1.357   .     S
C316   F319    1.357   .     S
H323   C1037   1.110   1_554 S
H328   C1040   1.110   1_554 S
H338   C675    1.110   .     S
H344   C679    1.110   .     S
N357   Zn368   1.998   .     S
N358   Zn367   1.998   .     S
O359   Zn367   2.006   .     S
O360   Zn368   2.006   .     S
O361   Zn367   2.006   .     S
O362   Zn368   2.006   .     S
O363   Zn367   1.948   .     S
O364   Zn368   1.948   .     S
O365   Zn367   1.948   .     S
O366   Zn368   1.948   .     S
C369   O454    1.286   .     A
C369   C386    1.451   .     S
C369   O451    1.286   .     A
C370   F412    1.357   .     S
C370   C374    1.409   .     A
C370   C405    1.407   .     A
C371   O458    1.271   .     A
C371   C375    1.363   .     S
C371   O455    1.271   .     A
C372   C376    1.363   .     S
C372   O457    1.271   .     A
C372   O456    1.271   .     A
C373   C406    1.409   .     A
C373   C408    1.409   .     A
C373   C558    1.505   1_545 S
C374   C407    1.409   .     A
C374   C557    1.505   .     S
C376   C743    1.164   .     S
C377   H444    1.085   .     S
C377   C382    1.387   .     A
C377   C388    1.384   .     A
C378   C383    1.387   .     A
C378   H445    1.085   .     S
C378   C389    1.384   .     A
C379   C389    1.384   .     A
C379   H446    1.085   .     S
C379   C384    1.387   .     A
C380   O453    1.286   .     A
C380   O452    1.286   .     A
C380   C387    1.451   .     S
C381   H447    1.085   .     S
C381   C388    1.384   .     A
C381   C385    1.387   .     A
C382   C386    1.428   .     A
C382   C390    1.523   .     S
C383   C387    1.428   .     A
C383   C394    1.523   .     S
C384   C397    1.523   .     S
C384   C387    1.428   .     A
C385   C386    1.428   .     A
C385   C400    1.523   .     S
C388   C481    1.428   1_455 S
C389   C480    1.428   .     S
C390   H418    1.107   .     S
C390   C392    1.532   .     S
C390   H419    1.113   .     S
C391   H413    1.082   .     S
C391   N449    1.364   .     A
C391   C406    1.407   .     A
C392   H416    1.110   .     S
C392   C393    1.526   .     S
C392   H417    1.108   .     S
C393   H448    1.111   .     S
C393   H414    1.111   .     S
C393   H783    1.110   .     S
C394   C395    1.532   .     S
C394   H427    1.113   .     S
C394   H426    1.107   .     S
C395   H423    1.110   .     S
C395   H425    1.108   .     S
C395   C396    1.526   .     S
C396   H422    1.111   .     S
C396   H421    1.111   .     S
C396   H788    1.110   .     S
C397   C398    1.532   .     S
C397   H433    1.107   .     S
C397   H434    1.113   .     S
C398   H432    1.108   .     S
C398   C399    1.526   .     S
C398   H431    1.110   .     S
C399   H429    1.111   .     S
C399   H428    1.111   .     S
C400   H442    1.113   .     S
C400   H441    1.107   .     S
C400   C401    1.532   .     S
C401   H440    1.108   .     S
C401   C403    1.526   .     S
C401   H439    1.110   .     S
C402   H424    1.082   .     S
C402   C407    1.407   .     A
C402   N450    1.363   .     A
C403   H438    1.111   .     S
C403   H437    1.111   .     S
C404   H435    1.082   .     S
C404   C408    1.407   .     A
C404   N449    1.364   .     A
C405   H443    1.082   .     S
C405   N450    1.363   .     A
C406   F409    1.357   .     S
C407   F410    1.357   .     S
C408   F411    1.357   .     S
H430   C767    1.110   .     S
H436   C771    1.110   .     S
N449   Zn460   1.998   .     S
N450   Zn459   1.998   .     S
O451   Zn459   2.006   .     S
O452   Zn460   2.006   .     S
O453   Zn459   2.006   .     S
O454   Zn460   2.006   .     S
O455   Zn459   1.948   .     S
O456   Zn460   1.948   .     S
O457   Zn459   1.948   .     S
O458   Zn460   1.948   .     S
C461   O546    1.286   .     A
C461   C478    1.451   .     S
C461   O543    1.286   .     A
C462   F504    1.357   .     S
C462   C466    1.409   .     A
C462   C497    1.407   .     A
C463   O550    1.271   .     A
C463   C467    1.363   .     S
C463   O547    1.271   .     A
C464   C468    1.363   .     S
C464   O549    1.271   .     A
C464   O548    1.271   .     A
C465   C498    1.409   .     A
C465   C500    1.409   .     A
C465   C650    1.505   1_545 S
C466   C499    1.409   .     A
C466   C649    1.505   .     S
C468   C835    1.164   .     S
C469   H536    1.085   .     S
C469   C474    1.387   .     A
C469   C480    1.384   .     A
C470   C475    1.387   .     A
C470   H537    1.085   .     S
C470   C481    1.384   .     A
C471   C481    1.384   .     A
C471   H538    1.085   .     S
C471   C476    1.387   .     A
C472   O545    1.286   .     A
C472   O544    1.286   .     A
C472   C479    1.451   .     S
C473   H539    1.085   .     S
C473   C480    1.384   .     A
C473   C477    1.387   .     A
C474   C478    1.428   .     A
C474   C482    1.523   .     S
C475   C479    1.428   .     A
C475   C486    1.523   .     S
C476   C489    1.523   .     S
C476   C479    1.428   .     A
C477   C478    1.428   .     A
C477   C492    1.523   .     S
C481   C388    1.428   1_655 S
C482   H510    1.107   .     S
C482   C484    1.532   .     S
C482   H511    1.113   .     S
C483   H505    1.082   .     S
C483   N541    1.364   .     A
C483   C498    1.407   .     A
C484   H508    1.110   .     S
C484   C485    1.526   .     S
C484   H509    1.108   .     S
C485   H540    1.111   .     S
C485   H506    1.111   .     S
C485   H875    1.110   .     S
C486   C487    1.532   .     S
C486   H519    1.113   .     S
C486   H518    1.107   .     S
C487   H515    1.110   .     S
C487   H517    1.108   .     S
C487   C488    1.526   .     S
C488   H514    1.111   .     S
C488   H513    1.111   .     S
C488   H880    1.110   .     S
C489   C490    1.532   .     S
C489   H525    1.107   .     S
C489   H526    1.113   .     S
C490   H524    1.108   .     S
C490   C491    1.526   .     S
C490   H523    1.110   .     S
C491   H521    1.111   .     S
C491   H520    1.111   .     S
C492   H534    1.113   .     S
C492   H533    1.107   .     S
C492   C493    1.532   .     S
C493   H532    1.108   .     S
C493   C495    1.526   .     S
C493   H531    1.110   .     S
C494   H516    1.082   .     S
C494   C499    1.407   .     A
C494   N542    1.363   .     A
C495   H530    1.111   .     S
C495   H529    1.111   .     S
C496   H527    1.082   .     S
C496   C500    1.407   .     A
C496   N541    1.364   .     A
C497   H535    1.082   .     S
C497   N542    1.363   .     A
C498   F501    1.357   .     S
C499   F502    1.357   .     S
C500   F503    1.357   .     S
H522   C859    1.110   .     S
H528   C863    1.110   .     S
N541   Zn552   1.998   .     S
N542   Zn551   1.998   .     S
O543   Zn551   2.006   .     S
O544   Zn552   2.006   .     S
O545   Zn551   2.006   .     S
O546   Zn552   2.006   .     S
O547   Zn551   1.948   .     S
O548   Zn552   1.948   .     S
O549   Zn551   1.948   .     S
O550   Zn552   1.948   .     S
C553   O638    1.286   .     A
C553   C570    1.451   .     S
C553   O635    1.286   .     A
C554   F596    1.357   .     S
C554   C558    1.409   .     A
C554   C589    1.407   .     A
C555   O642    1.271   .     A
C555   C559    1.363   .     S
C555   O639    1.271   .     A
C556   C560    1.363   .     S
C556   O641    1.271   .     A
C556   O640    1.271   .     A
C557   C590    1.409   .     A
C557   C592    1.409   .     A
C558   C591    1.409   .     A
C558   C373    1.505   1_565 S
C560   C927    1.164   .     S
C561   H628    1.085   .     S
C561   C566    1.387   .     A
C561   C572    1.384   .     A
C562   C567    1.387   .     A
C562   H629    1.085   .     S
C562   C573    1.384   .     A
C563   C573    1.384   .     A
C563   H630    1.085   .     S
C563   C568    1.387   .     A
C564   O637    1.286   .     A
C564   O636    1.286   .     A
C564   C571    1.451   .     S
C565   H631    1.085   .     S
C565   C572    1.384   .     A
C565   C569    1.387   .     A
C566   C570    1.428   .     A
C566   C574    1.523   .     S
C567   C571    1.428   .     A
C567   C578    1.523   .     S
C568   C581    1.523   .     S
C568   C571    1.428   .     A
C569   C570    1.428   .     A
C569   C584    1.523   .     S
C572   C665    1.428   1_455 S
C573   C664    1.428   .     S
C574   H602    1.107   .     S
C574   C576    1.532   .     S
C574   H603    1.113   .     S
C575   H597    1.082   .     S
C575   N633    1.364   .     A
C575   C590    1.407   .     A
C576   H600    1.110   .     S
C576   C577    1.526   .     S
C576   H601    1.108   .     S
C577   H632    1.111   .     S
C577   H598    1.111   .     S
C577   H967    1.110   .     S
C578   C579    1.532   .     S
C578   H611    1.113   .     S
C578   H610    1.107   .     S
C579   H607    1.110   .     S
C579   H609    1.108   .     S
C579   C580    1.526   .     S
C580   H606    1.111   .     S
C580   H605    1.111   .     S
C580   H972    1.110   .     S
C581   C582    1.532   .     S
C581   H617    1.107   .     S
C581   H618    1.113   .     S
C582   H616    1.108   .     S
C582   C583    1.526   .     S
C582   H615    1.110   .     S
C583   H613    1.111   .     S
C583   H612    1.111   .     S
C584   H626    1.113   .     S
C584   H625    1.107   .     S
C584   C585    1.532   .     S
C585   H624    1.108   .     S
C585   C587    1.526   .     S
C585   H623    1.110   .     S
C586   H608    1.082   .     S
C586   C591    1.407   .     A
C586   N634    1.363   .     A
C587   H622    1.111   .     S
C587   H621    1.111   .     S
C588   H619    1.082   .     S
C588   C592    1.407   .     A
C588   N633    1.364   .     A
C589   H627    1.082   .     S
C589   N634    1.363   .     A
C590   F593    1.357   .     S
C591   F594    1.357   .     S
C592   F595    1.357   .     S
H614   C951    1.110   .     S
H620   C955    1.110   .     S
N633   Zn644   1.998   .     S
N634   Zn643   1.998   .     S
O635   Zn643   2.006   .     S
O636   Zn644   2.006   .     S
O637   Zn643   2.006   .     S
O638   Zn644   2.006   .     S
O639   Zn643   1.948   .     S
O640   Zn644   1.948   .     S
O641   Zn643   1.948   .     S
O642   Zn644   1.948   .     S
C645   O730    1.286   .     A
C645   C662    1.451   .     S
C645   O727    1.286   .     A
C646   F688    1.357   .     S
C646   C650    1.409   .     A
C646   C681    1.407   .     A
C647   O734    1.271   .     A
C647   C651    1.363   .     S
C647   O731    1.271   .     A
C648   C652    1.363   .     S
C648   O733    1.271   .     A
C648   O732    1.271   .     A
C649   C682    1.409   .     A
C649   C684    1.409   .     A
C650   C683    1.409   .     A
C650   C465    1.505   1_565 S
C652   C1019   1.164   .     S
C653   H720    1.085   .     S
C653   C658    1.387   .     A
C653   C664    1.384   .     A
C654   C659    1.387   .     A
C654   H721    1.085   .     S
C654   C665    1.384   .     A
C655   C665    1.384   .     A
C655   H722    1.085   .     S
C655   C660    1.387   .     A
C656   O729    1.286   .     A
C656   O728    1.286   .     A
C656   C663    1.451   .     S
C657   H723    1.085   .     S
C657   C664    1.384   .     A
C657   C661    1.387   .     A
C658   C662    1.428   .     A
C658   C666    1.523   .     S
C659   C663    1.428   .     A
C659   C670    1.523   .     S
C660   C673    1.523   .     S
C660   C663    1.428   .     A
C661   C662    1.428   .     A
C661   C676    1.523   .     S
C665   C572    1.428   1_655 S
C666   H694    1.107   .     S
C666   C668    1.532   .     S
C666   H695    1.113   .     S
C667   H689    1.082   .     S
C667   N725    1.364   .     A
C667   C682    1.407   .     A
C668   H692    1.110   .     S
C668   C669    1.526   .     S
C668   H693    1.108   .     S
C669   H724    1.111   .     S
C669   H690    1.111   .     S
C669   H1059   1.110   .     S
C670   C671    1.532   .     S
C670   H703    1.113   .     S
C670   H702    1.107   .     S
C671   H699    1.110   .     S
C671   H701    1.108   .     S
C671   C672    1.526   .     S
C672   H698    1.111   .     S
C672   H697    1.111   .     S
C672   H1064   1.110   .     S
C673   C674    1.532   .     S
C673   H709    1.107   .     S
C673   H710    1.113   .     S
C674   H708    1.108   .     S
C674   C675    1.526   .     S
C674   H707    1.110   .     S
C675   H705    1.111   .     S
C675   H704    1.111   .     S
C676   H718    1.113   .     S
C676   H717    1.107   .     S
C676   C677    1.532   .     S
C677   H716    1.108   .     S
C677   C679    1.526   .     S
C677   H715    1.110   .     S
C678   H700    1.082   .     S
C678   C683    1.407   .     A
C678   N726    1.363   .     A
C679   H714    1.111   .     S
C679   H713    1.111   .     S
C680   H711    1.082   .     S
C680   C684    1.407   .     A
C680   N725    1.364   .     A
C681   H719    1.082   .     S
C681   N726    1.363   .     A
C682   F685    1.357   .     S
C683   F686    1.357   .     S
C684   F687    1.357   .     S
H706   C1043   1.110   .     S
H712   C1047   1.110   .     S
N725   Zn736   1.998   .     S
N726   Zn735   1.998   .     S
O727   Zn735   2.006   .     S
O728   Zn736   2.006   .     S
O729   Zn735   2.006   .     S
O730   Zn736   2.006   .     S
O731   Zn735   1.948   .     S
O732   Zn736   1.948   .     S
O733   Zn735   1.948   .     S
O734   Zn736   1.948   .     S
C737   O822    1.286   .     A
C737   C754    1.451   .     S
C737   O819    1.286   .     A
C738   F780    1.357   .     S
C738   C742    1.409   .     A
C738   C773    1.407   .     A
C739   O826    1.271   .     A
C739   C743    1.363   .     S
C739   O823    1.271   .     A
C740   C744    1.363   .     S
C740   O825    1.271   .     A
C740   O824    1.271   .     A
C741   C774    1.409   .     A
C741   C776    1.409   .     A
C741   C926    1.505   1_545 S
C742   C775    1.409   .     A
C742   C925    1.505   .     S
C744   C7      1.164   1_556 S
C745   H812    1.085   .     S
C745   C750    1.387   .     A
C745   C756    1.384   .     A
C746   C751    1.387   .     A
C746   H813    1.085   .     S
C746   C757    1.384   .     A
C747   C757    1.384   .     A
C747   H814    1.085   .     S
C747   C752    1.387   .     A
C748   O821    1.286   .     A
C748   O820    1.286   .     A
C748   C755    1.451   .     S
C749   H815    1.085   .     S
C749   C756    1.384   .     A
C749   C753    1.387   .     A
C750   C754    1.428   .     A
C750   C758    1.523   .     S
C751   C755    1.428   .     A
C751   C762    1.523   .     S
C752   C765    1.523   .     S
C752   C755    1.428   .     A
C753   C754    1.428   .     A
C753   C768    1.523   .     S
C756   C849    1.428   1_455 S
C757   C848    1.428   .     S
C758   H786    1.107   .     S
C758   C760    1.532   .     S
C758   H787    1.113   .     S
C759   H781    1.082   .     S
C759   N817    1.364   .     A
C759   C774    1.407   .     A
C760   H784    1.110   .     S
C760   C761    1.526   .     S
C760   H785    1.108   .     S
C761   H816    1.111   .     S
C761   H782    1.111   .     S
C761   H47     1.110   1_556 S
C762   C763    1.532   .     S
C762   H795    1.113   .     S
C762   H794    1.107   .     S
C763   H791    1.110   .     S
C763   H793    1.108   .     S
C763   C764    1.526   .     S
C764   H790    1.111   .     S
C764   H789    1.111   .     S
C764   H52     1.110   1_556 S
C765   C766    1.532   .     S
C765   H801    1.107   .     S
C765   H802    1.113   .     S
C766   H800    1.108   .     S
C766   C767    1.526   .     S
C766   H799    1.110   .     S
C767   H797    1.111   .     S
C767   H796    1.111   .     S
C768   H810    1.113   .     S
C768   H809    1.107   .     S
C768   C769    1.532   .     S
C769   H808    1.108   .     S
C769   C771    1.526   .     S
C769   H807    1.110   .     S
C770   H792    1.082   .     S
C770   C775    1.407   .     A
C770   N818    1.363   .     A
C771   H806    1.111   .     S
C771   H805    1.111   .     S
C772   H803    1.082   .     S
C772   C776    1.407   .     A
C772   N817    1.364   .     A
C773   H811    1.082   .     S
C773   N818    1.363   .     A
C774   F777    1.357   .     S
C775   F778    1.357   .     S
C776   F779    1.357   .     S
H798   C31     1.110   1_556 S
H804   C35     1.110   1_556 S
N817   Zn828   1.998   .     S
N818   Zn827   1.998   .     S
O819   Zn827   2.006   .     S
O820   Zn828   2.006   .     S
O821   Zn827   2.006   .     S
O822   Zn828   2.006   .     S
O823   Zn827   1.948   .     S
O824   Zn828   1.948   .     S
O825   Zn827   1.948   .     S
O826   Zn828   1.948   .     S
C829   O914    1.286   .     A
C829   C846    1.451   .     S
C829   O911    1.286   .     A
C830   F872    1.357   .     S
C830   C834    1.409   .     A
C830   C865    1.407   .     A
C831   O918    1.271   .     A
C831   C835    1.363   .     S
C831   O915    1.271   .     A
C832   C836    1.363   .     S
C832   O917    1.271   .     A
C832   O916    1.271   .     A
C833   C866    1.409   .     A
C833   C868    1.409   .     A
C833   C1018   1.505   1_545 S
C834   C867    1.409   .     A
C834   C1017   1.505   .     S
C836   C99     1.164   1_556 S
C837   H904    1.085   .     S
C837   C842    1.387   .     A
C837   C848    1.384   .     A
C838   C843    1.387   .     A
C838   H905    1.085   .     S
C838   C849    1.384   .     A
C839   C849    1.384   .     A
C839   H906    1.085   .     S
C839   C844    1.387   .     A
C840   O913    1.286   .     A
C840   O912    1.286   .     A
C840   C847    1.451   .     S
C841   H907    1.085   .     S
C841   C848    1.384   .     A
C841   C845    1.387   .     A
C842   C846    1.428   .     A
C842   C850    1.523   .     S
C843   C847    1.428   .     A
C843   C854    1.523   .     S
C844   C857    1.523   .     S
C844   C847    1.428   .     A
C845   C846    1.428   .     A
C845   C860    1.523   .     S
C849   C756    1.428   1_655 S
C850   H878    1.107   .     S
C850   C852    1.532   .     S
C850   H879    1.113   .     S
C851   H873    1.082   .     S
C851   N909    1.364   .     A
C851   C866    1.407   .     A
C852   H876    1.110   .     S
C852   C853    1.526   .     S
C852   H877    1.108   .     S
C853   H908    1.111   .     S
C853   H874    1.111   .     S
C853   H139    1.110   1_556 S
C854   C855    1.532   .     S
C854   H887    1.113   .     S
C854   H886    1.107   .     S
C855   H883    1.110   .     S
C855   H885    1.108   .     S
C855   C856    1.526   .     S
C856   H882    1.111   .     S
C856   H881    1.111   .     S
C856   H144    1.110   1_556 S
C857   C858    1.532   .     S
C857   H893    1.107   .     S
C857   H894    1.113   .     S
C858   H892    1.108   .     S
C858   C859    1.526   .     S
C858   H891    1.110   .     S
C859   H889    1.111   .     S
C859   H888    1.111   .     S
C860   H902    1.113   .     S
C860   H901    1.107   .     S
C860   C861    1.532   .     S
C861   H900    1.108   .     S
C861   C863    1.526   .     S
C861   H899    1.110   .     S
C862   H884    1.082   .     S
C862   C867    1.407   .     A
C862   N910    1.363   .     A
C863   H898    1.111   .     S
C863   H897    1.111   .     S
C864   H895    1.082   .     S
C864   C868    1.407   .     A
C864   N909    1.364   .     A
C865   H903    1.082   .     S
C865   N910    1.363   .     A
C866   F869    1.357   .     S
C867   F870    1.357   .     S
C868   F871    1.357   .     S
H890   C123    1.110   1_556 S
H896   C127    1.110   1_556 S
N909   Zn920   1.998   .     S
N910   Zn919   1.998   .     S
O911   Zn919   2.006   .     S
O912   Zn920   2.006   .     S
O913   Zn919   2.006   .     S
O914   Zn920   2.006   .     S
O915   Zn919   1.948   .     S
O916   Zn920   1.948   .     S
O917   Zn919   1.948   .     S
O918   Zn920   1.948   .     S
C921   O1006   1.286   .     A
C921   C938    1.451   .     S
C921   O1003   1.286   .     A
C922   F964    1.357   .     S
C922   C926    1.409   .     A
C922   C957    1.407   .     A
C923   O1010   1.271   .     A
C923   C927    1.363   .     S
C923   O1007   1.271   .     A
C924   C928    1.363   .     S
C924   O1009   1.271   .     A
C924   O1008   1.271   .     A
C925   C958    1.409   .     A
C925   C960    1.409   .     A
C926   C959    1.409   .     A
C926   C741    1.505   1_565 S
C928   C191    1.164   1_556 S
C929   H996    1.085   .     S
C929   C934    1.387   .     A
C929   C940    1.384   .     A
C930   C935    1.387   .     A
C930   H997    1.085   .     S
C930   C941    1.384   .     A
C931   C941    1.384   .     A
C931   H998    1.085   .     S
C931   C936    1.387   .     A
C932   O1005   1.286   .     A
C932   O1004   1.286   .     A
C932   C939    1.451   .     S
C933   H999    1.085   .     S
C933   C940    1.384   .     A
C933   C937    1.387   .     A
C934   C938    1.428   .     A
C934   C942    1.523   .     S
C935   C939    1.428   .     A
C935   C946    1.523   .     S
C936   C949    1.523   .     S
C936   C939    1.428   .     A
C937   C938    1.428   .     A
C937   C952    1.523   .     S
C940   C1033   1.428   1_455 S
C941   C1032   1.428   .     S
C942   H970    1.107   .     S
C942   C944    1.532   .     S
C942   H971    1.113   .     S
C943   H965    1.082   .     S
C943   N1001   1.364   .     A
C943   C958    1.407   .     A
C944   H968    1.110   .     S
C944   C945    1.526   .     S
C944   H969    1.108   .     S
C945   H1000   1.111   .     S
C945   H966    1.111   .     S
C945   H231    1.110   1_556 S
C946   C947    1.532   .     S
C946   H979    1.113   .     S
C946   H978    1.107   .     S
C947   H975    1.110   .     S
C947   H977    1.108   .     S
C947   C948    1.526   .     S
C948   H974    1.111   .     S
C948   H973    1.111   .     S
C948   H236    1.110   1_556 S
C949   C950    1.532   .     S
C949   H985    1.107   .     S
C949   H986    1.113   .     S
C950   H984    1.108   .     S
C950   C951    1.526   .     S
C950   H983    1.110   .     S
C951   H981    1.111   .     S
C951   H980    1.111   .     S
C952   H994    1.113   .     S
C952   H993    1.107   .     S
C952   C953    1.532   .     S
C953   H992    1.108   .     S
C953   C955    1.526   .     S
C953   H991    1.110   .     S
C954   H976    1.082   .     S
C954   C959    1.407   .     A
C954   N1002   1.363   .     A
C955   H990    1.111   .     S
C955   H989    1.111   .     S
C956   H987    1.082   .     S
C956   C960    1.407   .     A
C956   N1001   1.364   .     A
C957   H995    1.082   .     S
C957   N1002   1.363   .     A
C958   F961    1.357   .     S
C959   F962    1.357   .     S
C960   F963    1.357   .     S
H982   C215    1.110   1_556 S
H988   C219    1.110   1_556 S
N1001  Zn1012  1.998   .     S
N1002  Zn1011  1.998   .     S
O1003  Zn1011  2.006   .     S
O1004  Zn1012  2.006   .     S
O1005  Zn1011  2.006   .     S
O1006  Zn1012  2.006   .     S
O1007  Zn1011  1.948   .     S
O1008  Zn1012  1.948   .     S
O1009  Zn1011  1.948   .     S
O1010  Zn1012  1.948   .     S
C1013  O1098   1.286   .     A
C1013  C1030   1.451   .     S
C1013  O1095   1.286   .     A
C1014  F1056   1.357   .     S
C1014  C1018   1.409   .     A
C1014  C1049   1.407   .     A
C1015  O1102   1.271   .     A
C1015  C1019   1.363   .     S
C1015  O1099   1.271   .     A
C1016  C1020   1.363   .     S
C1016  O1101   1.271   .     A
C1016  O1100   1.271   .     A
C1017  C1050   1.409   .     A
C1017  C1052   1.409   .     A
C1018  C1051   1.409   .     A
C1018  C833    1.505   1_565 S
C1020  C283    1.164   1_556 S
C1021  H1088   1.085   .     S
C1021  C1026   1.387   .     A
C1021  C1032   1.384   .     A
C1022  C1027   1.387   .     A
C1022  H1089   1.085   .     S
C1022  C1033   1.384   .     A
C1023  C1033   1.384   .     A
C1023  H1090   1.085   .     S
C1023  C1028   1.387   .     A
C1024  O1097   1.286   .     A
C1024  O1096   1.286   .     A
C1024  C1031   1.451   .     S
C1025  H1091   1.085   .     S
C1025  C1032   1.384   .     A
C1025  C1029   1.387   .     A
C1026  C1030   1.428   .     A
C1026  C1034   1.523   .     S
C1027  C1031   1.428   .     A
C1027  C1038   1.523   .     S
C1028  C1041   1.523   .     S
C1028  C1031   1.428   .     A
C1029  C1030   1.428   .     A
C1029  C1044   1.523   .     S
C1033  C940    1.428   1_655 S
C1034  H1062   1.107   .     S
C1034  C1036   1.532   .     S
C1034  H1063   1.113   .     S
C1035  H1057   1.082   .     S
C1035  N1093   1.364   .     A
C1035  C1050   1.407   .     A
C1036  H1060   1.110   .     S
C1036  C1037   1.526   .     S
C1036  H1061   1.108   .     S
C1037  H1092   1.111   .     S
C1037  H1058   1.111   .     S
C1037  H323    1.110   1_556 S
C1038  C1039   1.532   .     S
C1038  H1071   1.113   .     S
C1038  H1070   1.107   .     S
C1039  H1067   1.110   .     S
C1039  H1069   1.108   .     S
C1039  C1040   1.526   .     S
C1040  H1066   1.111   .     S
C1040  H1065   1.111   .     S
C1040  H328    1.110   1_556 S
C1041  C1042   1.532   .     S
C1041  H1077   1.107   .     S
C1041  H1078   1.113   .     S
C1042  H1076   1.108   .     S
C1042  C1043   1.526   .     S
C1042  H1075   1.110   .     S
C1043  H1073   1.111   .     S
C1043  H1072   1.111   .     S
C1044  H1086   1.113   .     S
C1044  H1085   1.107   .     S
C1044  C1045   1.532   .     S
C1045  H1084   1.108   .     S
C1045  C1047   1.526   .     S
C1045  H1083   1.110   .     S
C1046  H1068   1.082   .     S
C1046  C1051   1.407   .     A
C1046  N1094   1.363   .     A
C1047  H1082   1.111   .     S
C1047  H1081   1.111   .     S
C1048  H1079   1.082   .     S
C1048  C1052   1.407   .     A
C1048  N1093   1.364   .     A
C1049  H1087   1.082   .     S
C1049  N1094   1.363   .     A
C1050  F1053   1.357   .     S
C1051  F1054   1.357   .     S
C1052  F1055   1.357   .     S
H1074  C307    1.110   1_556 S
H1080  C311    1.110   1_556 S
N1093  Zn1104  1.998   .     S
N1094  Zn1103  1.998   .     S
O1095  Zn1103  2.006   .     S
O1096  Zn1104  2.006   .     S
O1097  Zn1103  2.006   .     S
O1098  Zn1104  2.006   .     S
O1099  Zn1103  1.948   .     S
O1100  Zn1104  1.948   .     S
O1101  Zn1103  1.948   .     S
O1102  Zn1104  1.948   .     S
