data_str_m1_o1_o17_pcu_sym.126
_audit_creation_date              2020-01-03
_audit_creation_method            'Materials Studio'
_symmetry_space_group_name_H-M    'P1'
_symmetry_Int_Tables_number       1
_symmetry_cell_setting            triclinic
loop_
_symmetry_equiv_pos_as_xyz
  x,y,z
_cell_length_a                    36.6689
_cell_length_b                    36.6686
_cell_length_c                    34.4690
_cell_angle_alpha                 89.9924
_cell_angle_beta                  90.0073
_cell_angle_gamma                 90.0159
loop_
_atom_site_label
_atom_site_type_symbol
_atom_site_fract_x
_atom_site_fract_y
_atom_site_fract_z
_atom_site_U_iso_or_equiv
_atom_site_adp_type
_atom_site_occupancy
C1     C     0.02993   0.26350   0.41843   0.00000  Uiso   1.00
C2     C     0.27929   0.48532   0.08165   0.00000  Uiso   1.00
C3     C     0.23435   0.02982   0.54082   0.00000  Uiso   1.00
C4     C     0.03101   0.26337   0.45918   0.00000  Uiso   1.00
C5     C     0.46980   0.23492   0.54084   0.00000  Uiso   1.00
C6     C     0.23506   0.03022   0.45910   0.00000  Uiso   1.00
C7     C     0.26644   0.47053   0.54083   0.00000  Uiso   1.00
C8     C     0.27982   0.48435   0.95918   0.00000  Uiso   1.00
C9     C     0.22008   0.01565   0.04089   0.00000  Uiso   1.00
C10    C     0.01374   0.28077   0.95910   0.00000  Uiso   1.00
C11    C     0.48566   0.21947   0.04086   0.00000  Uiso   1.00
C12    C     0.22053   0.01644   0.95916   0.00000  Uiso   1.00
C13    C     0.48619   0.22019   0.91842   0.00000  Uiso   1.00
C14    C     0.28022   0.48506   0.04090   0.00000  Uiso   1.00
C15    C     0.48493   0.21980   0.95916   0.00000  Uiso   1.00
C16    C     0.01335   0.28101   0.04082   0.00000  Uiso   1.00
C17    C     0.09815   0.34816   0.25000   0.00000  Uiso   1.00
C18    C     0.40186   0.15186   0.75000   0.00000  Uiso   1.00
C19    C     0.15185   0.09816   0.25000   0.00000  Uiso   1.00
C20    C     0.34812   0.40183   0.74999   0.00000  Uiso   1.00
C21    C     0.40185   0.15185   0.25000   0.00000  Uiso   1.00
C22    C     0.09810   0.34810   0.75000   0.00000  Uiso   1.00
C23    C     0.34815   0.40185   0.25000   0.00000  Uiso   1.00
C24    C     0.01348   0.27993   0.08157   0.00000  Uiso   1.00
C25    C     0.15183   0.09812   0.75001   0.00000  Uiso   1.00
C26    C     0.09805   0.15199   0.75002   0.00000  Uiso   1.00
C27    C     0.40198   0.34802   0.25000   0.00000  Uiso   1.00
C28    C     0.15191   0.40191   0.75000   0.00000  Uiso   1.00
C29    C     0.34802   0.09802   0.25000   0.00000  Uiso   1.00
C30    C     0.40199   0.34805   0.74998   0.00000  Uiso   1.00
C31    C     0.09802   0.15198   0.25000   0.00000  Uiso   1.00
C32    C     0.34803   0.09803   0.75000   0.00000  Uiso   1.00
C33    C     0.15199   0.40198   0.25000   0.00000  Uiso   1.00
C34    C     0.00026   0.24946   0.47966   0.00000  Uiso   1.00
C35    C     0.27930   0.48534   0.91843   0.00000  Uiso   1.00
C36    C     0.00027   0.24939   0.52036   0.00000  Uiso   1.00
C37    C     0.25038   0.00016   0.47960   0.00000  Uiso   1.00
C38    C     0.25040   0.00018   0.52032   0.00000  Uiso   1.00
C39    C     0.25018   0.00040   0.97968   0.00000  Uiso   1.00
C40    C     0.25016   0.00038   0.02039   0.00000  Uiso   1.00
C41    C     0.49939   0.25027   0.97964   0.00000  Uiso   1.00
C42    C     0.49946   0.25026   0.02034   0.00000  Uiso   1.00
C43    C     0.40502   0.20831   0.45725   0.00000  Uiso   1.00
C44    C     0.40949   0.16899   0.44319   0.00000  Uiso   1.00
C45    C     0.09235   0.29689   0.54303   0.00000  Uiso   1.00
C46    C     0.22085   0.01508   0.08164   0.00000  Uiso   1.00
C47    C     0.12026   0.26897   0.55737   0.00000  Uiso   1.00
C48    C     0.29604   0.40704   0.45727   0.00000  Uiso   1.00
C49    C     0.33498   0.41345   0.44281   0.00000  Uiso   1.00
C50    C     0.19702   0.08892   0.54271   0.00000  Uiso   1.00
C51    C     0.22260   0.11884   0.55747   0.00000  Uiso   1.00
C52    C     0.09591   0.28957   0.45736   0.00000  Uiso   1.00
C53    C     0.09241   0.32922   0.44403   0.00000  Uiso   1.00
C54    C     0.40921   0.20009   0.54276   0.00000  Uiso   1.00
C55    C     0.38025   0.22682   0.55734   0.00000  Uiso   1.00
C56    C     0.20530   0.09355   0.45722   0.00000  Uiso   1.00
C57    C     0.01281   0.28014   0.91837   0.00000  Uiso   1.00
C58    C     0.16617   0.08769   0.44307   0.00000  Uiso   1.00
C59    C     0.30437   0.41184   0.54275   0.00000  Uiso   1.00
C60    C     0.27923   0.38144   0.55724   0.00000  Uiso   1.00
C61    C     0.33892   0.44702   0.95729   0.00000  Uiso   1.00
C62    C     0.36884   0.47260   0.94253   0.00000  Uiso   1.00
C63    C     0.15704   0.04605   0.04273   0.00000  Uiso   1.00
C64    C     0.16345   0.08498   0.05719   0.00000  Uiso   1.00
C65    C     0.04684   0.34237   0.95697   0.00000  Uiso   1.00
C66    C     0.01890   0.37026   0.94262   0.00000  Uiso   1.00
C67    C     0.45834   0.15501   0.04275   0.00000  Uiso   1.00
C68    C     0.48610   0.22031   0.08160   0.00000  Uiso   1.00
C69    C     0.41902   0.15947   0.05681   0.00000  Uiso   1.00
C70    C     0.16184   0.05437   0.95725   0.00000  Uiso   1.00
C71    C     0.13144   0.02923   0.94276   0.00000  Uiso   1.00
C72    C     0.34355   0.45530   0.04278   0.00000  Uiso   1.00
C73    C     0.33769   0.41617   0.05692   0.00000  Uiso   1.00
C74    C     0.45012   0.15919   0.95724   0.00000  Uiso   1.00
C75    C     0.47686   0.13024   0.94266   0.00000  Uiso   1.00
C76    C     0.03952   0.34593   0.04264   0.00000  Uiso   1.00
C77    C     0.07917   0.34245   0.05597   0.00000  Uiso   1.00
C78    C     0.15557   0.39978   0.17665   0.00000  Uiso   1.00
C79    C     0.00006   0.24993   0.39834   0.00000  Uiso   1.00
C80    C     0.34358   0.10102   0.82320   0.00000  Uiso   1.00
C81    C     0.10044   0.15579   0.17668   0.00000  Uiso   1.00
C82    C     0.39845   0.34304   0.82312   0.00000  Uiso   1.00
C83    C     0.34447   0.10018   0.17665   0.00000  Uiso   1.00
C84    C     0.10514   0.45115   0.74030   0.00000  Uiso   1.00
C85    C     0.39957   0.34425   0.17667   0.00000  Uiso   1.00
C86    C     0.10152   0.15688   0.82318   0.00000  Uiso   1.00
C87    C     0.15543   0.09986   0.82263   0.00000  Uiso   1.00
C88    C     0.34675   0.40217   0.17716   0.00000  Uiso   1.00
C89    C     0.04887   0.39488   0.74042   0.00000  Uiso   1.00
C90    C     0.00007   0.24969   0.60168   0.00000  Uiso   1.00
C91    C     0.40254   0.15285   0.17714   0.00000  Uiso   1.00
C92    C     0.34449   0.40006   0.82258   0.00000  Uiso   1.00
C93    C     0.15328   0.09788   0.17717   0.00000  Uiso   1.00
C94    C     0.40102   0.15457   0.82269   0.00000  Uiso   1.00
C95    C     0.09755   0.34706   0.17714   0.00000  Uiso   1.00
C96    C     0.40457   0.15102   0.67731   0.00000  Uiso   1.00
C97    C     0.09706   0.34754   0.32285   0.00000  Uiso   1.00
C98    C     0.34986   0.40543   0.67737   0.00000  Uiso   1.00
C99    C     0.15217   0.09675   0.32283   0.00000  Uiso   1.00
C100   C     0.14488   0.29887   0.75958   0.00000  Uiso   1.00
C101   C     0.25011   0.00003   0.39830   0.00000  Uiso   1.00
C102   C     0.40285   0.15253   0.32285   0.00000  Uiso   1.00
C103   C     0.15006   0.09449   0.67742   0.00000  Uiso   1.00
C104   C     0.34788   0.40328   0.32283   0.00000  Uiso   1.00
C105   C     0.40579   0.35044   0.32332   0.00000  Uiso   1.00
C106   C     0.09304   0.14845   0.67688   0.00000  Uiso   1.00
C107   C     0.35018   0.09447   0.32335   0.00000  Uiso   1.00
C108   C     0.20115   0.35514   0.75969   0.00000  Uiso   1.00
C109   C     0.09425   0.14957   0.32333   0.00000  Uiso   1.00
C110   C     0.40688   0.35152   0.67681   0.00000  Uiso   1.00
C111   C     0.14978   0.40557   0.32335   0.00000  Uiso   1.00
C112   C     0.47020   0.23618   0.58158   0.00000  Uiso   1.00
C113   C     0.25016   0.00005   0.60166   0.00000  Uiso   1.00
C114   C     0.35102   0.09358   0.67680   0.00000  Uiso   1.00
C115   C     0.25005   0.00016   0.89834   0.00000  Uiso   1.00
C116   C     0.25003   0.00011   0.10170   0.00000  Uiso   1.00
C117   C     0.49969   0.25007   0.89832   0.00000  Uiso   1.00
C118   C     0.49992   0.25006   0.10166   0.00000  Uiso   1.00
C119   C     0.43880   0.22133   0.47942   0.00000  Uiso   1.00
C120   C     0.06121   0.27859   0.52068   0.00000  Uiso   1.00
C121   C     0.28149   0.44018   0.47942   0.00000  Uiso   1.00
C122   C     0.21778   0.05931   0.52053   0.00000  Uiso   1.00
C123   C     0.06193   0.27711   0.47951   0.00000  Uiso   1.00
C124   C     0.23532   0.02929   0.41835   0.00000  Uiso   1.00
C125   C     0.43964   0.21963   0.52056   0.00000  Uiso   1.00
C126   C     0.21951   0.06026   0.47938   0.00000  Uiso   1.00
C127   C     0.28325   0.44118   0.52056   0.00000  Uiso   1.00
C128   C     0.30931   0.46778   0.97947   0.00000  Uiso   1.00
C129   C     0.19019   0.03149   0.02058   0.00000  Uiso   1.00
C130   C     0.02855   0.31122   0.97932   0.00000  Uiso   1.00
C131   C     0.47135   0.18879   0.02058   0.00000  Uiso   1.00
C132   C     0.19118   0.03325   0.97944   0.00000  Uiso   1.00
C133   C     0.31026   0.46951   0.02062   0.00000  Uiso   1.00
C134   C     0.46964   0.18963   0.97944   0.00000  Uiso   1.00
C135   C     0.26518   0.47091   0.58158   0.00000  Uiso   1.00
C136   C     0.02708   0.31195   0.02049   0.00000  Uiso   1.00
C137   C     0.25001   0.00000   0.35591   0.00000  Uiso   1.00
C138   C     0.25003   0.00001   0.64408   0.00000  Uiso   1.00
C139   C     0.00001   0.25003   0.35592   0.00000  Uiso   1.00
C140   C     0.00000   0.24993   0.64408   0.00000  Uiso   1.00
C141   C     0.49993   0.25000   0.85591   0.00000  Uiso   1.00
C142   C     0.00003   0.25001   0.14408   0.00000  Uiso   1.00
C143   C     0.25001   0.00003   0.85592   0.00000  Uiso   1.00
C144   C     0.25000   0.00001   0.14409   0.00000  Uiso   1.00
C145   C     0.18000   0.07000   0.25000   0.00000  Uiso   1.00
C146   C     0.47031   0.23610   0.41840   0.00000  Uiso   1.00
C147   C     0.31999   0.43001   0.75000   0.00000  Uiso   1.00
C148   C     0.43000   0.18000   0.25000   0.00000  Uiso   1.00
C149   C     0.06997   0.31997   0.75000   0.00000  Uiso   1.00
C150   C     0.32000   0.43000   0.25000   0.00000  Uiso   1.00
C151   C     0.18001   0.06999   0.75000   0.00000  Uiso   1.00
C152   C     0.07000   0.32000   0.25000   0.00000  Uiso   1.00
C153   C     0.43001   0.18001   0.75000   0.00000  Uiso   1.00
C154   C     0.18003   0.43003   0.75000   0.00000  Uiso   1.00
C155   C     0.31995   0.06995   0.25000   0.00000  Uiso   1.00
C156   C     0.43006   0.31996   0.74998   0.00000  Uiso   1.00
C157   C     0.03013   0.26282   0.58163   0.00000  Uiso   1.00
C158   C     0.06995   0.18005   0.25000   0.00000  Uiso   1.00
C159   C     0.31995   0.06995   0.75000   0.00000  Uiso   1.00
C160   C     0.18005   0.43005   0.25000   0.00000  Uiso   1.00
C161   C     0.06996   0.18006   0.75001   0.00000  Uiso   1.00
C162   C     0.43005   0.31995   0.25000   0.00000  Uiso   1.00
C163   C     0.13916   0.38803   0.21424   0.00000  Uiso   1.00
C164   C     0.36051   0.11233   0.78574   0.00000  Uiso   1.00
C165   C     0.11207   0.13926   0.21425   0.00000  Uiso   1.00
C166   C     0.38733   0.36016   0.78569   0.00000  Uiso   1.00
C167   C     0.36087   0.11194   0.21424   0.00000  Uiso   1.00
C168   C     0.26508   0.47084   0.41836   0.00000  Uiso   1.00
C169   C     0.11491   0.41222   0.74681   0.00000  Uiso   1.00
C170   C     0.38793   0.36076   0.21424   0.00000  Uiso   1.00
C171   C     0.11270   0.13986   0.78573   0.00000  Uiso   1.00
C172   C     0.13922   0.11232   0.78559   0.00000  Uiso   1.00
C173   C     0.36163   0.38849   0.21437   0.00000  Uiso   1.00
C174   C     0.08779   0.38511   0.74684   0.00000  Uiso   1.00
C175   C     0.38863   0.13821   0.21437   0.00000  Uiso   1.00
C176   C     0.36075   0.38764   0.78556   0.00000  Uiso   1.00
C177   C     0.13838   0.11153   0.21438   0.00000  Uiso   1.00
C178   C     0.38807   0.13883   0.78560   0.00000  Uiso   1.00
C179   C     0.23534   0.02931   0.58157   0.00000  Uiso   1.00
C180   C     0.11140   0.36175   0.21437   0.00000  Uiso   1.00
C181   C     0.38883   0.13807   0.71439   0.00000  Uiso   1.00
C182   C     0.11175   0.36140   0.28563   0.00000  Uiso   1.00
C183   C     0.36232   0.38922   0.71440   0.00000  Uiso   1.00
C184   C     0.13849   0.11163   0.28563   0.00000  Uiso   1.00
C185   C     0.13511   0.33779   0.75316   0.00000  Uiso   1.00
C186   C     0.38821   0.13863   0.28563   0.00000  Uiso   1.00
C187   C     0.13764   0.11075   0.71444   0.00000  Uiso   1.00
C188   C     0.36153   0.38838   0.28562   0.00000  Uiso   1.00
C189   C     0.38926   0.36207   0.28575   0.00000  Uiso   1.00
C190   C     0.22091   0.01518   0.91842   0.00000  Uiso   1.00
C191   C     0.11016   0.13733   0.71431   0.00000  Uiso   1.00
C192   C     0.36194   0.11087   0.28576   0.00000  Uiso   1.00
C193   C     0.16222   0.36491   0.75319   0.00000  Uiso   1.00
C194   C     0.11076   0.13793   0.28576   0.00000  Uiso   1.00
C195   C     0.38986   0.36270   0.71427   0.00000  Uiso   1.00
C196   C     0.13803   0.38916   0.28576   0.00000  Uiso   1.00
C197   C     0.36233   0.11050   0.71426   0.00000  Uiso   1.00
C198   C     0.46947   0.23565   0.45914   0.00000  Uiso   1.00
C199   C     0.03076   0.26376   0.54090   0.00000  Uiso   1.00
C200   C     0.26565   0.47008   0.45911   0.00000  Uiso   1.00
H201   H     0.05174   0.27484   0.40134   0.00000  Uiso   1.00
H202   H     0.30068   0.47326   0.09879   0.00000  Uiso   1.00
H203   H     0.41622   0.35012   0.87800   0.00000  Uiso   1.00
H204   H     0.35263   0.08167   0.12221   0.00000  Uiso   1.00
H205   H     0.11220   0.49641   0.70788   0.00000  Uiso   1.00
H206   H     0.41786   0.35224   0.12212   0.00000  Uiso   1.00
H207   H     0.08391   0.14963   0.87810   0.00000  Uiso   1.00
H208   H     0.15345   0.06408   0.86682   0.00000  Uiso   1.00
H209   H     0.34890   0.44087   0.13572   0.00000  Uiso   1.00
H210   H     0.00372   0.38823   0.70776   0.00000  Uiso   1.00
H211   H     0.44177   0.15079   0.13627   0.00000  Uiso   1.00
H212   H     0.34697   0.43522   0.86730   0.00000  Uiso   1.00
H213   H     0.47656   0.19754   0.90136   0.00000  Uiso   1.00
H214   H     0.15102   0.05935   0.13558   0.00000  Uiso   1.00
H215   H     0.43614   0.15083   0.86738   0.00000  Uiso   1.00
H216   H     0.05831   0.34898   0.13626   0.00000  Uiso   1.00
H217   H     0.40085   0.18615   0.63263   0.00000  Uiso   1.00
H218   H     0.09903   0.30834   0.36376   0.00000  Uiso   1.00
H219   H     0.31407   0.40346   0.63318   0.00000  Uiso   1.00
H220   H     0.19087   0.09891   0.36428   0.00000  Uiso   1.00
H221   H     0.13823   0.25371   0.79223   0.00000  Uiso   1.00
H222   H     0.40078   0.19176   0.36373   0.00000  Uiso   1.00
H223   H     0.18522   0.09697   0.63271   0.00000  Uiso   1.00
H224   H     0.02482   0.30175   0.09866   0.00000  Uiso   1.00
H225   H     0.30934   0.40102   0.36442   0.00000  Uiso   1.00
H226   H     0.39783   0.33217   0.37789   0.00000  Uiso   1.00
H227   H     0.10012   0.16622   0.62200   0.00000  Uiso   1.00
H228   H     0.33167   0.10263   0.37779   0.00000  Uiso   1.00
H229   H     0.24641   0.36220   0.79212   0.00000  Uiso   1.00
H230   H     0.10224   0.16786   0.37788   0.00000  Uiso   1.00
H231   H     0.39963   0.33392   0.62190   0.00000  Uiso   1.00
H232   H     0.16823   0.39744   0.37781   0.00000  Uiso   1.00
H233   H     0.33256   0.10090   0.62222   0.00000  Uiso   1.00
H234   H     0.30133   0.47444   0.90132   0.00000  Uiso   1.00
H235   H     0.19940   0.02700   0.09880   0.00000  Uiso   1.00
H236   H     0.02243   0.30276   0.90123   0.00000  Uiso   1.00
H237   H     0.47501   0.19840   0.09874   0.00000  Uiso   1.00
H238   H     0.38448   0.16031   0.42754   0.00000  Uiso   1.00
H239   H     0.43311   0.16644   0.42327   0.00000  Uiso   1.00
H240   H     0.41384   0.15026   0.46804   0.00000  Uiso   1.00
H241   H     0.44755   0.22654   0.59864   0.00000  Uiso   1.00
H242   H     0.37987   0.21031   0.47483   0.00000  Uiso   1.00
H243   H     0.39859   0.22669   0.43264   0.00000  Uiso   1.00
H244   H     0.14213   0.28316   0.57375   0.00000  Uiso   1.00
H245   H     0.10740   0.24852   0.57675   0.00000  Uiso   1.00
H246   H     0.13282   0.25438   0.53254   0.00000  Uiso   1.00
H247   H     0.10660   0.31785   0.52563   0.00000  Uiso   1.00
H248   H     0.08179   0.31334   0.56757   0.00000  Uiso   1.00
H249   H     0.34481   0.38881   0.42728   0.00000  Uiso   1.00
H250   H     0.33618   0.43701   0.42267   0.00000  Uiso   1.00
H251   H     0.35363   0.41893   0.46748   0.00000  Uiso   1.00
H252   H     0.22326   0.05068   0.40120   0.00000  Uiso   1.00
H253   H     0.29551   0.38188   0.47496   0.00000  Uiso   1.00
H254   H     0.27780   0.39960   0.43287   0.00000  Uiso   1.00
H255   H     0.24356   0.10760   0.57734   0.00000  Uiso   1.00
H256   H     0.23671   0.13235   0.53288   0.00000  Uiso   1.00
H257   H     0.20656   0.13969   0.57341   0.00000  Uiso   1.00
H258   H     0.17525   0.10160   0.52508   0.00000  Uiso   1.00
H259   H     0.18116   0.07693   0.56692   0.00000  Uiso   1.00
H260   H     0.11751   0.33746   0.42828   0.00000  Uiso   1.00
H261   H     0.06869   0.33271   0.42440   0.00000  Uiso   1.00
H262   H     0.08878   0.34767   0.46925   0.00000  Uiso   1.00
H263   H     0.27598   0.44882   0.59868   0.00000  Uiso   1.00
H264   H     0.12110   0.28654   0.47472   0.00000  Uiso   1.00
H265   H     0.10170   0.27146   0.43235   0.00000  Uiso   1.00
H266   H     0.35887   0.21165   0.57347   0.00000  Uiso   1.00
H267   H     0.39225   0.24753   0.57700   0.00000  Uiso   1.00
H268   H     0.36720   0.24120   0.53265   0.00000  Uiso   1.00
H269   H     0.39577   0.17871   0.52521   0.00000  Uiso   1.00
H270   H     0.42055   0.18391   0.56707   0.00000  Uiso   1.00
H271   H     0.15661   0.11243   0.42753   0.00000  Uiso   1.00
H272   H     0.16449   0.06409   0.42303   0.00000  Uiso   1.00
H273   H     0.14759   0.08255   0.46788   0.00000  Uiso   1.00
H274   H     0.44841   0.22499   0.40125   0.00000  Uiso   1.00
H275   H     0.20639   0.11875   0.47482   0.00000  Uiso   1.00
H276   H     0.22346   0.10063   0.43264   0.00000  Uiso   1.00
H277   H     0.29555   0.36073   0.57308   0.00000  Uiso   1.00
H278   H     0.25809   0.39225   0.57716   0.00000  Uiso   1.00
H279   H     0.26533   0.36786   0.53256   0.00000  Uiso   1.00
H280   H     0.32645   0.39964   0.52517   0.00000  Uiso   1.00
H281   H     0.31989   0.42396   0.56714   0.00000  Uiso   1.00
H282   H     0.35759   0.49356   0.92266   0.00000  Uiso   1.00
H283   H     0.38235   0.48671   0.96712   0.00000  Uiso   1.00
H284   H     0.38969   0.45656   0.92658   0.00000  Uiso   1.00
H285   H     0.05275   0.27245   0.59877   0.00000  Uiso   1.00
H286   H     0.35159   0.42525   0.97492   0.00000  Uiso   1.00
H287   H     0.32693   0.43116   0.93308   0.00000  Uiso   1.00
H288   H     0.13882   0.09481   0.07272   0.00000  Uiso   1.00
H289   H     0.18701   0.08618   0.07733   0.00000  Uiso   1.00
H290   H     0.16893   0.10363   0.03252   0.00000  Uiso   1.00
H291   H     0.13188   0.04551   0.02504   0.00000  Uiso   1.00
H292   H     0.14961   0.02780   0.06713   0.00000  Uiso   1.00
H293   H     0.03308   0.39215   0.92624   0.00000  Uiso   1.00
H294   H     0.49847   0.35739   0.92324   0.00000  Uiso   1.00
H295   H     0.00431   0.38282   0.96746   0.00000  Uiso   1.00
H296   H     0.27700   0.44940   0.40120   0.00000  Uiso   1.00
H297   H     0.06779   0.35664   0.97437   0.00000  Uiso   1.00
H298   H     0.06329   0.33182   0.93243   0.00000  Uiso   1.00
H299   H     0.41034   0.13446   0.07246   0.00000  Uiso   1.00
H300   H     0.41645   0.18309   0.07673   0.00000  Uiso   1.00
H301   H     0.40029   0.16380   0.03195   0.00000  Uiso   1.00
H302   H     0.46035   0.12985   0.02517   0.00000  Uiso   1.00
H303   H     0.47672   0.14858   0.06736   0.00000  Uiso   1.00
H304   H     0.14225   0.00809   0.92284   0.00000  Uiso   1.00
H305   H     0.11786   0.01533   0.96744   0.00000  Uiso   1.00
H306   H     0.11073   0.04556   0.92692   0.00000  Uiso   1.00
H307   H     0.22444   0.05133   0.59867   0.00000  Uiso   1.00
H308   H     0.14964   0.07646   0.97483   0.00000  Uiso   1.00
H309   H     0.17396   0.06989   0.93285   0.00000  Uiso   1.00
H310   H     0.36243   0.40661   0.07247   0.00000  Uiso   1.00
H311   H     0.31409   0.41449   0.07697   0.00000  Uiso   1.00
H312   H     0.33255   0.39759   0.03212   0.00000  Uiso   1.00
H313   H     0.36875   0.45639   0.02518   0.00000  Uiso   1.00
H314   H     0.35063   0.47346   0.06736   0.00000  Uiso   1.00
H315   H     0.46169   0.10886   0.92653   0.00000  Uiso   1.00
H316   H     0.49757   0.14225   0.92300   0.00000  Uiso   1.00
H317   H     0.49124   0.11720   0.96735   0.00000  Uiso   1.00
H318   H     0.19882   0.02598   0.90132   0.00000  Uiso   1.00
H319   H     0.42874   0.14575   0.97478   0.00000  Uiso   1.00
H320   H     0.43393   0.17053   0.93293   0.00000  Uiso   1.00
H321   H     0.08739   0.36755   0.07173   0.00000  Uiso   1.00
H322   H     0.08268   0.31872   0.07559   0.00000  Uiso   1.00
H323   H     0.09762   0.33885   0.03075   0.00000  Uiso   1.00
H324   H     0.03648   0.37112   0.02528   0.00000  Uiso   1.00
H325   H     0.02141   0.35171   0.06765   0.00000  Uiso   1.00
H326   H     0.14744   0.41825   0.12219   0.00000  Uiso   1.00
H327   H     0.35090   0.08255   0.87778   0.00000  Uiso   1.00
H328   H     0.08218   0.14784   0.12211   0.00000  Uiso   1.00
O329   O     0.25000   0.00000   0.25000   0.00000  Uiso   1.00
O330   O     0.25000   0.46964   0.66245   0.00000  Uiso   1.00
O331   O     0.31688   0.38796   0.33984   0.00000  Uiso   1.00
O332   O     0.43893   0.35078   0.32739   0.00000  Uiso   1.00
O333   O     0.38341   0.33931   0.35396   0.00000  Uiso   1.00
O334   O     0.05984   0.14806   0.67341   0.00000  Uiso   1.00
O335   O     0.11492   0.15927   0.64572   0.00000  Uiso   1.00
O336   O     0.35057   0.06136   0.32759   0.00000  Uiso   1.00
O337   O     0.33888   0.11696   0.35383   0.00000  Uiso   1.00
O338   O     0.21693   0.33491   0.73706   0.00000  Uiso   1.00
O339   O     0.21996   0.37021   0.79113   0.00000  Uiso   1.00
O340   O     0.06112   0.14923   0.32742   0.00000  Uiso   1.00
O341   O     0.46964   0.25000   0.33755   0.00000  Uiso   1.00
O342   O     0.11665   0.16071   0.35395   0.00000  Uiso   1.00
O343   O     0.44007   0.35167   0.67332   0.00000  Uiso   1.00
O344   O     0.38490   0.34093   0.64564   0.00000  Uiso   1.00
O345   O     0.14941   0.43869   0.32755   0.00000  Uiso   1.00
O346   O     0.16103   0.38310   0.35386   0.00000  Uiso   1.00
O347   O     0.35176   0.06042   0.67302   0.00000  Uiso   1.00
O348   O     0.33959   0.11559   0.64599   0.00000  Uiso   1.00
O349   O     0.03037   0.25000   0.66245   0.00000  Uiso   1.00
O350   O     0.00000   0.21964   0.83755   0.00000  Uiso   1.00
O351   O     0.00000   0.28037   0.16245   0.00000  Uiso   1.00
O352   O     0.28037   0.00000   0.83755   0.00000  Uiso   1.00
O353   O     0.21964   0.00000   0.16245   0.00000  Uiso   1.00
O354   O     0.00000   0.28037   0.83755   0.00000  Uiso   1.00
O355   O     0.00000   0.21964   0.16245   0.00000  Uiso   1.00
O356   O     0.21964   0.00000   0.83755   0.00000  Uiso   1.00
O357   O     0.25000   0.00000   0.75000   0.00000  Uiso   1.00
O358   O     0.28037   0.00000   0.16245   0.00000  Uiso   1.00
O359   O     0.20725   0.07308   0.27302   0.00000  Uiso   1.00
O360   O     0.29276   0.42693   0.72698   0.00000  Uiso   1.00
O361   O     0.42693   0.20725   0.27302   0.00000  Uiso   1.00
O362   O     0.07308   0.29276   0.72698   0.00000  Uiso   1.00
O363   O     0.29276   0.42693   0.27302   0.00000  Uiso   1.00
O364   O     0.20725   0.07308   0.72698   0.00000  Uiso   1.00
O365   O     0.07308   0.29276   0.27302   0.00000  Uiso   1.00
O366   O     0.42693   0.20725   0.72698   0.00000  Uiso   1.00
O367   O     0.20725   0.42693   0.72698   0.00000  Uiso   1.00
O368   O     0.00000   0.25000   0.25000   0.00000  Uiso   1.00
O369   O     0.29276   0.07308   0.27302   0.00000  Uiso   1.00
O370   O     0.42693   0.29276   0.72698   0.00000  Uiso   1.00
O371   O     0.07308   0.20725   0.27302   0.00000  Uiso   1.00
O372   O     0.29276   0.07308   0.72698   0.00000  Uiso   1.00
O373   O     0.20725   0.42693   0.27302   0.00000  Uiso   1.00
O374   O     0.07308   0.20725   0.72698   0.00000  Uiso   1.00
O375   O     0.42693   0.29276   0.27302   0.00000  Uiso   1.00
O376   O     0.45725   0.32308   0.77302   0.00000  Uiso   1.00
O377   O     0.04276   0.17693   0.22698   0.00000  Uiso   1.00
O378   O     0.17693   0.45725   0.77302   0.00000  Uiso   1.00
O379   O     0.00000   0.25000   0.75000   0.00000  Uiso   1.00
O380   O     0.32308   0.04276   0.22698   0.00000  Uiso   1.00
O381   O     0.04276   0.17693   0.77302   0.00000  Uiso   1.00
O382   O     0.45725   0.32308   0.22698   0.00000  Uiso   1.00
O383   O     0.32308   0.04276   0.77302   0.00000  Uiso   1.00
O384   O     0.17693   0.45725   0.22698   0.00000  Uiso   1.00
O385   O     0.45725   0.17693   0.22698   0.00000  Uiso   1.00
O386   O     0.04276   0.32308   0.77302   0.00000  Uiso   1.00
O387   O     0.17693   0.04276   0.22698   0.00000  Uiso   1.00
O388   O     0.32308   0.45725   0.77302   0.00000  Uiso   1.00
O389   O     0.04276   0.32308   0.22698   0.00000  Uiso   1.00
O390   O     0.25000   0.46964   0.33755   0.00000  Uiso   1.00
O391   O     0.45725   0.17693   0.77302   0.00000  Uiso   1.00
O392   O     0.32308   0.45725   0.22698   0.00000  Uiso   1.00
O393   O     0.17693   0.04276   0.77302   0.00000  Uiso   1.00
O394   O     0.18869   0.39941   0.17245   0.00000  Uiso   1.00
O395   O     0.13310   0.41104   0.14615   0.00000  Uiso   1.00
O396   O     0.31042   0.10176   0.82698   0.00000  Uiso   1.00
O397   O     0.36559   0.08958   0.85400   0.00000  Uiso   1.00
O398   O     0.10078   0.18893   0.17260   0.00000  Uiso   1.00
O399   O     0.08931   0.13341   0.14604   0.00000  Uiso   1.00
O400   O     0.39805   0.30984   0.82659   0.00000  Uiso   1.00
O401   O     0.25000   0.03037   0.66245   0.00000  Uiso   1.00
O402   O     0.40927   0.36492   0.85428   0.00000  Uiso   1.00
O403   O     0.31136   0.10057   0.17241   0.00000  Uiso   1.00
O404   O     0.36696   0.08888   0.14617   0.00000  Uiso   1.00
O405   O     0.08491   0.46692   0.76293   0.00000  Uiso   1.00
O406   O     0.12022   0.46996   0.70887   0.00000  Uiso   1.00
O407   O     0.39923   0.31112   0.17258   0.00000  Uiso   1.00
O408   O     0.41071   0.36665   0.14605   0.00000  Uiso   1.00
O409   O     0.10167   0.19007   0.82668   0.00000  Uiso   1.00
O410   O     0.09092   0.13490   0.85436   0.00000  Uiso   1.00
O411   O     0.18261   0.11494   0.83544   0.00000  Uiso   1.00
O412   O     0.03037   0.25000   0.33755   0.00000  Uiso   1.00
O413   O     0.13960   0.07063   0.84241   0.00000  Uiso   1.00
O414   O     0.32133   0.38634   0.16158   0.00000  Uiso   1.00
O415   O     0.36196   0.43331   0.16030   0.00000  Uiso   1.00
O416   O     0.03302   0.41477   0.76334   0.00000  Uiso   1.00
O417   O     0.03015   0.38018   0.70873   0.00000  Uiso   1.00
O418   O     0.38660   0.17794   0.16108   0.00000  Uiso   1.00
O419   O     0.43399   0.13780   0.16081   0.00000  Uiso   1.00
O420   O     0.31659   0.38578   0.83467   0.00000  Uiso   1.00
O421   O     0.36099   0.42848   0.84306   0.00000  Uiso   1.00
O422   O     0.17883   0.11363   0.16174   0.00000  Uiso   1.00
O423   O     0.46964   0.25000   0.66245   0.00000  Uiso   1.00
O424   O     0.13795   0.06688   0.16016   0.00000  Uiso   1.00
O425   O     0.38785   0.18301   0.83474   0.00000  Uiso   1.00
O426   O     0.42881   0.13703   0.84318   0.00000  Uiso   1.00
O427   O     0.11359   0.32205   0.16108   0.00000  Uiso   1.00
O428   O     0.06604   0.36200   0.16080   0.00000  Uiso   1.00
O429   O     0.43299   0.13782   0.66524   0.00000  Uiso   1.00
O430   O     0.38706   0.17883   0.65683   0.00000  Uiso   1.00
O431   O     0.07196   0.36351   0.33884   0.00000  Uiso   1.00
O432   O     0.11207   0.31610   0.33924   0.00000  Uiso   1.00
O433   O     0.36496   0.43259   0.66454   0.00000  Uiso   1.00
O434   O     0.25000   0.03037   0.33755   0.00000  Uiso   1.00
O435   O     0.32062   0.38961   0.65760   0.00000  Uiso   1.00
O436   O     0.13634   0.07133   0.33841   0.00000  Uiso   1.00
O437   O     0.18331   0.11196   0.33970   0.00000  Uiso   1.00
O438   O     0.16477   0.28302   0.73667   0.00000  Uiso   1.00
O439   O     0.13018   0.28015   0.79127   0.00000  Uiso   1.00
O440   O     0.42795   0.13661   0.33890   0.00000  Uiso   1.00
O441   O     0.38779   0.18397   0.33919   0.00000  Uiso   1.00
O442   O     0.13578   0.06660   0.66532   0.00000  Uiso   1.00
O443   O     0.17848   0.11099   0.65694   0.00000  Uiso   1.00
O444   O     0.36363   0.42883   0.33826   0.00000  Uiso   1.00
Zn445  Zn    0.20660   0.00000   0.21735   0.00000  Uiso   1.00
Zn446  Zn    0.04341   0.25000   0.28265   0.00000  Uiso   1.00
Zn447  Zn    0.25000   0.45660   0.71735   0.00000  Uiso   1.00
Zn448  Zn    0.25000   0.04341   0.28265   0.00000  Uiso   1.00
Zn449  Zn    0.04341   0.25000   0.71735   0.00000  Uiso   1.00
Zn450  Zn    0.45660   0.25000   0.28265   0.00000  Uiso   1.00
Zn451  Zn    0.25000   0.04341   0.71735   0.00000  Uiso   1.00
Zn452  Zn    0.25000   0.45660   0.28265   0.00000  Uiso   1.00
Zn453  Zn    0.29341   0.00000   0.78265   0.00000  Uiso   1.00
Zn454  Zn    0.00000   0.20660   0.21735   0.00000  Uiso   1.00
Zn455  Zn    0.00000   0.29341   0.78265   0.00000  Uiso   1.00
Zn456  Zn    0.29341   0.00000   0.21735   0.00000  Uiso   1.00
Zn457  Zn    0.20660   0.00000   0.78265   0.00000  Uiso   1.00
Zn458  Zn    0.00000   0.29341   0.21735   0.00000  Uiso   1.00
Zn459  Zn    0.00000   0.20660   0.78265   0.00000  Uiso   1.00
Zn460  Zn    0.45660   0.25000   0.71735   0.00000  Uiso   1.00
C461   C     0.52993   0.26350   0.41843   0.00000  Uiso   1.00
C462   C     0.77929   0.48532   0.08165   0.00000  Uiso   1.00
C463   C     0.73435   0.02982   0.54082   0.00000  Uiso   1.00
C464   C     0.53101   0.26337   0.45918   0.00000  Uiso   1.00
C465   C     0.96980   0.23492   0.54084   0.00000  Uiso   1.00
C466   C     0.73506   0.03022   0.45910   0.00000  Uiso   1.00
C467   C     0.76644   0.47053   0.54083   0.00000  Uiso   1.00
C468   C     0.77982   0.48435   0.95918   0.00000  Uiso   1.00
C469   C     0.72008   0.01565   0.04089   0.00000  Uiso   1.00
C470   C     0.51374   0.28077   0.95910   0.00000  Uiso   1.00
C471   C     0.98566   0.21947   0.04086   0.00000  Uiso   1.00
C472   C     0.72053   0.01644   0.95916   0.00000  Uiso   1.00
C473   C     0.98619   0.22019   0.91842   0.00000  Uiso   1.00
C474   C     0.78022   0.48506   0.04090   0.00000  Uiso   1.00
C475   C     0.98493   0.21980   0.95916   0.00000  Uiso   1.00
C476   C     0.51335   0.28101   0.04082   0.00000  Uiso   1.00
C477   C     0.59815   0.34816   0.25000   0.00000  Uiso   1.00
C478   C     0.90186   0.15186   0.75000   0.00000  Uiso   1.00
C479   C     0.65185   0.09816   0.25000   0.00000  Uiso   1.00
C480   C     0.84812   0.40183   0.74999   0.00000  Uiso   1.00
C481   C     0.90185   0.15185   0.25000   0.00000  Uiso   1.00
C482   C     0.59810   0.34810   0.75000   0.00000  Uiso   1.00
C483   C     0.84815   0.40185   0.25000   0.00000  Uiso   1.00
C484   C     0.51348   0.27993   0.08157   0.00000  Uiso   1.00
C485   C     0.65183   0.09812   0.75001   0.00000  Uiso   1.00
C486   C     0.59805   0.15199   0.75002   0.00000  Uiso   1.00
C487   C     0.90198   0.34802   0.25000   0.00000  Uiso   1.00
C488   C     0.65191   0.40191   0.75000   0.00000  Uiso   1.00
C489   C     0.84802   0.09802   0.25000   0.00000  Uiso   1.00
C490   C     0.90199   0.34805   0.74998   0.00000  Uiso   1.00
C491   C     0.59802   0.15198   0.25000   0.00000  Uiso   1.00
C492   C     0.84803   0.09803   0.75000   0.00000  Uiso   1.00
C493   C     0.65199   0.40198   0.25000   0.00000  Uiso   1.00
C494   C     0.50026   0.24946   0.47966   0.00000  Uiso   1.00
C495   C     0.77930   0.48534   0.91843   0.00000  Uiso   1.00
C496   C     0.50027   0.24939   0.52036   0.00000  Uiso   1.00
C497   C     0.75038   0.00016   0.47960   0.00000  Uiso   1.00
C498   C     0.75040   0.00018   0.52032   0.00000  Uiso   1.00
C499   C     0.75018   0.00040   0.97968   0.00000  Uiso   1.00
C500   C     0.75016   0.00038   0.02039   0.00000  Uiso   1.00
C501   C     0.99939   0.25027   0.97964   0.00000  Uiso   1.00
C502   C     0.99946   0.25026   0.02034   0.00000  Uiso   1.00
C503   C     0.90502   0.20831   0.45725   0.00000  Uiso   1.00
C504   C     0.90949   0.16899   0.44319   0.00000  Uiso   1.00
C505   C     0.59235   0.29689   0.54303   0.00000  Uiso   1.00
C506   C     0.72085   0.01508   0.08164   0.00000  Uiso   1.00
C507   C     0.62026   0.26897   0.55737   0.00000  Uiso   1.00
C508   C     0.79604   0.40704   0.45727   0.00000  Uiso   1.00
C509   C     0.83498   0.41345   0.44281   0.00000  Uiso   1.00
C510   C     0.69702   0.08892   0.54271   0.00000  Uiso   1.00
C511   C     0.72260   0.11884   0.55747   0.00000  Uiso   1.00
C512   C     0.59591   0.28957   0.45736   0.00000  Uiso   1.00
C513   C     0.59241   0.32922   0.44403   0.00000  Uiso   1.00
C514   C     0.90921   0.20009   0.54276   0.00000  Uiso   1.00
C515   C     0.88025   0.22682   0.55734   0.00000  Uiso   1.00
C516   C     0.70530   0.09355   0.45722   0.00000  Uiso   1.00
C517   C     0.51281   0.28014   0.91837   0.00000  Uiso   1.00
C518   C     0.66617   0.08769   0.44307   0.00000  Uiso   1.00
C519   C     0.80437   0.41184   0.54275   0.00000  Uiso   1.00
C520   C     0.77923   0.38144   0.55724   0.00000  Uiso   1.00
C521   C     0.83892   0.44702   0.95729   0.00000  Uiso   1.00
C522   C     0.86884   0.47260   0.94253   0.00000  Uiso   1.00
C523   C     0.65704   0.04605   0.04273   0.00000  Uiso   1.00
C524   C     0.66345   0.08498   0.05719   0.00000  Uiso   1.00
C525   C     0.54684   0.34237   0.95697   0.00000  Uiso   1.00
C526   C     0.51890   0.37026   0.94262   0.00000  Uiso   1.00
C527   C     0.95834   0.15501   0.04275   0.00000  Uiso   1.00
C528   C     0.98610   0.22031   0.08160   0.00000  Uiso   1.00
C529   C     0.91902   0.15947   0.05681   0.00000  Uiso   1.00
C530   C     0.66184   0.05437   0.95725   0.00000  Uiso   1.00
C531   C     0.63144   0.02923   0.94276   0.00000  Uiso   1.00
C532   C     0.84355   0.45530   0.04278   0.00000  Uiso   1.00
C533   C     0.83769   0.41617   0.05692   0.00000  Uiso   1.00
C534   C     0.95012   0.15919   0.95724   0.00000  Uiso   1.00
C535   C     0.97686   0.13024   0.94266   0.00000  Uiso   1.00
C536   C     0.53952   0.34593   0.04264   0.00000  Uiso   1.00
C537   C     0.57917   0.34245   0.05597   0.00000  Uiso   1.00
C538   C     0.65557   0.39978   0.17665   0.00000  Uiso   1.00
C539   C     0.50006   0.24993   0.39834   0.00000  Uiso   1.00
C540   C     0.84358   0.10102   0.82320   0.00000  Uiso   1.00
C541   C     0.60044   0.15579   0.17668   0.00000  Uiso   1.00
C542   C     0.89845   0.34304   0.82312   0.00000  Uiso   1.00
C543   C     0.84447   0.10018   0.17665   0.00000  Uiso   1.00
C544   C     0.60514   0.45115   0.74030   0.00000  Uiso   1.00
C545   C     0.89957   0.34425   0.17667   0.00000  Uiso   1.00
C546   C     0.60152   0.15688   0.82318   0.00000  Uiso   1.00
C547   C     0.65543   0.09986   0.82263   0.00000  Uiso   1.00
C548   C     0.84675   0.40217   0.17716   0.00000  Uiso   1.00
C549   C     0.54887   0.39488   0.74042   0.00000  Uiso   1.00
C550   C     0.50007   0.24969   0.60168   0.00000  Uiso   1.00
C551   C     0.90254   0.15285   0.17714   0.00000  Uiso   1.00
C552   C     0.84449   0.40006   0.82258   0.00000  Uiso   1.00
C553   C     0.65328   0.09788   0.17717   0.00000  Uiso   1.00
C554   C     0.90102   0.15457   0.82269   0.00000  Uiso   1.00
C555   C     0.59755   0.34706   0.17714   0.00000  Uiso   1.00
C556   C     0.90457   0.15102   0.67731   0.00000  Uiso   1.00
C557   C     0.59706   0.34754   0.32285   0.00000  Uiso   1.00
C558   C     0.84986   0.40543   0.67737   0.00000  Uiso   1.00
C559   C     0.65217   0.09675   0.32283   0.00000  Uiso   1.00
C560   C     0.64488   0.29887   0.75958   0.00000  Uiso   1.00
C561   C     0.75011   0.00003   0.39830   0.00000  Uiso   1.00
C562   C     0.90285   0.15253   0.32285   0.00000  Uiso   1.00
C563   C     0.65006   0.09449   0.67742   0.00000  Uiso   1.00
C564   C     0.84788   0.40328   0.32283   0.00000  Uiso   1.00
C565   C     0.90579   0.35044   0.32332   0.00000  Uiso   1.00
C566   C     0.59304   0.14845   0.67688   0.00000  Uiso   1.00
C567   C     0.85018   0.09447   0.32335   0.00000  Uiso   1.00
C568   C     0.70115   0.35514   0.75969   0.00000  Uiso   1.00
C569   C     0.59425   0.14957   0.32333   0.00000  Uiso   1.00
C570   C     0.90688   0.35152   0.67681   0.00000  Uiso   1.00
C571   C     0.64978   0.40557   0.32335   0.00000  Uiso   1.00
C572   C     0.97020   0.23618   0.58158   0.00000  Uiso   1.00
C573   C     0.75016   0.00005   0.60166   0.00000  Uiso   1.00
C574   C     0.85102   0.09358   0.67680   0.00000  Uiso   1.00
C575   C     0.75005   0.00016   0.89834   0.00000  Uiso   1.00
C576   C     0.75003   0.00011   0.10170   0.00000  Uiso   1.00
C577   C     0.99969   0.25007   0.89832   0.00000  Uiso   1.00
C578   C     0.99992   0.25006   0.10166   0.00000  Uiso   1.00
C579   C     0.93880   0.22133   0.47942   0.00000  Uiso   1.00
C580   C     0.56121   0.27859   0.52068   0.00000  Uiso   1.00
C581   C     0.78149   0.44018   0.47942   0.00000  Uiso   1.00
C582   C     0.71778   0.05931   0.52053   0.00000  Uiso   1.00
C583   C     0.56193   0.27711   0.47951   0.00000  Uiso   1.00
C584   C     0.73532   0.02929   0.41835   0.00000  Uiso   1.00
C585   C     0.93964   0.21963   0.52056   0.00000  Uiso   1.00
C586   C     0.71951   0.06026   0.47938   0.00000  Uiso   1.00
C587   C     0.78325   0.44118   0.52056   0.00000  Uiso   1.00
C588   C     0.80931   0.46778   0.97947   0.00000  Uiso   1.00
C589   C     0.69019   0.03149   0.02058   0.00000  Uiso   1.00
C590   C     0.52855   0.31122   0.97932   0.00000  Uiso   1.00
C591   C     0.97135   0.18879   0.02058   0.00000  Uiso   1.00
C592   C     0.69118   0.03325   0.97944   0.00000  Uiso   1.00
C593   C     0.81026   0.46951   0.02062   0.00000  Uiso   1.00
C594   C     0.96964   0.18963   0.97944   0.00000  Uiso   1.00
C595   C     0.76518   0.47091   0.58158   0.00000  Uiso   1.00
C596   C     0.52708   0.31195   0.02049   0.00000  Uiso   1.00
C597   C     0.75001   0.00000   0.35591   0.00000  Uiso   1.00
C598   C     0.75003   0.00001   0.64408   0.00000  Uiso   1.00
C599   C     0.50001   0.25003   0.35592   0.00000  Uiso   1.00
C600   C     0.50000   0.24993   0.64408   0.00000  Uiso   1.00
C601   C     0.99993   0.25000   0.85591   0.00000  Uiso   1.00
C602   C     0.50003   0.25001   0.14408   0.00000  Uiso   1.00
C603   C     0.75001   0.00003   0.85592   0.00000  Uiso   1.00
C604   C     0.75000   0.00001   0.14409   0.00000  Uiso   1.00
C605   C     0.68000   0.07000   0.25000   0.00000  Uiso   1.00
C606   C     0.97031   0.23610   0.41840   0.00000  Uiso   1.00
C607   C     0.81999   0.43001   0.75000   0.00000  Uiso   1.00
C608   C     0.93000   0.18000   0.25000   0.00000  Uiso   1.00
C609   C     0.56997   0.31997   0.75000   0.00000  Uiso   1.00
C610   C     0.82000   0.43000   0.25000   0.00000  Uiso   1.00
C611   C     0.68001   0.06999   0.75000   0.00000  Uiso   1.00
C612   C     0.57000   0.32000   0.25000   0.00000  Uiso   1.00
C613   C     0.93001   0.18001   0.75000   0.00000  Uiso   1.00
C614   C     0.68003   0.43003   0.75000   0.00000  Uiso   1.00
C615   C     0.81995   0.06995   0.25000   0.00000  Uiso   1.00
C616   C     0.93006   0.31996   0.74998   0.00000  Uiso   1.00
C617   C     0.53013   0.26282   0.58163   0.00000  Uiso   1.00
C618   C     0.56995   0.18005   0.25000   0.00000  Uiso   1.00
C619   C     0.81995   0.06995   0.75000   0.00000  Uiso   1.00
C620   C     0.68005   0.43005   0.25000   0.00000  Uiso   1.00
C621   C     0.56996   0.18006   0.75001   0.00000  Uiso   1.00
C622   C     0.93005   0.31995   0.25000   0.00000  Uiso   1.00
C623   C     0.63916   0.38803   0.21424   0.00000  Uiso   1.00
C624   C     0.86051   0.11233   0.78574   0.00000  Uiso   1.00
C625   C     0.61207   0.13926   0.21425   0.00000  Uiso   1.00
C626   C     0.88733   0.36016   0.78569   0.00000  Uiso   1.00
C627   C     0.86087   0.11194   0.21424   0.00000  Uiso   1.00
C628   C     0.76508   0.47084   0.41836   0.00000  Uiso   1.00
C629   C     0.61491   0.41222   0.74681   0.00000  Uiso   1.00
C630   C     0.88793   0.36076   0.21424   0.00000  Uiso   1.00
C631   C     0.61270   0.13986   0.78573   0.00000  Uiso   1.00
C632   C     0.63922   0.11232   0.78559   0.00000  Uiso   1.00
C633   C     0.86163   0.38849   0.21437   0.00000  Uiso   1.00
C634   C     0.58779   0.38511   0.74684   0.00000  Uiso   1.00
C635   C     0.88863   0.13821   0.21437   0.00000  Uiso   1.00
C636   C     0.86075   0.38764   0.78556   0.00000  Uiso   1.00
C637   C     0.63838   0.11153   0.21438   0.00000  Uiso   1.00
C638   C     0.88807   0.13883   0.78560   0.00000  Uiso   1.00
C639   C     0.73534   0.02931   0.58157   0.00000  Uiso   1.00
C640   C     0.61140   0.36175   0.21437   0.00000  Uiso   1.00
C641   C     0.88883   0.13807   0.71439   0.00000  Uiso   1.00
C642   C     0.61175   0.36140   0.28563   0.00000  Uiso   1.00
C643   C     0.86232   0.38922   0.71440   0.00000  Uiso   1.00
C644   C     0.63849   0.11163   0.28563   0.00000  Uiso   1.00
C645   C     0.63511   0.33779   0.75316   0.00000  Uiso   1.00
C646   C     0.88821   0.13863   0.28563   0.00000  Uiso   1.00
C647   C     0.63764   0.11075   0.71444   0.00000  Uiso   1.00
C648   C     0.86153   0.38838   0.28562   0.00000  Uiso   1.00
C649   C     0.88926   0.36207   0.28575   0.00000  Uiso   1.00
C650   C     0.72091   0.01518   0.91842   0.00000  Uiso   1.00
C651   C     0.61016   0.13733   0.71431   0.00000  Uiso   1.00
C652   C     0.86194   0.11087   0.28576   0.00000  Uiso   1.00
C653   C     0.66222   0.36491   0.75319   0.00000  Uiso   1.00
C654   C     0.61076   0.13793   0.28576   0.00000  Uiso   1.00
C655   C     0.88986   0.36270   0.71427   0.00000  Uiso   1.00
C656   C     0.63803   0.38916   0.28576   0.00000  Uiso   1.00
C657   C     0.86233   0.11050   0.71426   0.00000  Uiso   1.00
C658   C     0.96947   0.23565   0.45914   0.00000  Uiso   1.00
C659   C     0.53076   0.26376   0.54090   0.00000  Uiso   1.00
C660   C     0.76565   0.47008   0.45911   0.00000  Uiso   1.00
H661   H     0.55174   0.27484   0.40134   0.00000  Uiso   1.00
H662   H     0.80068   0.47326   0.09879   0.00000  Uiso   1.00
H663   H     0.91622   0.35012   0.87800   0.00000  Uiso   1.00
H664   H     0.85263   0.08167   0.12221   0.00000  Uiso   1.00
H665   H     0.61220   0.49641   0.70788   0.00000  Uiso   1.00
H666   H     0.91786   0.35224   0.12212   0.00000  Uiso   1.00
H667   H     0.58391   0.14963   0.87810   0.00000  Uiso   1.00
H668   H     0.65345   0.06408   0.86682   0.00000  Uiso   1.00
H669   H     0.84890   0.44087   0.13572   0.00000  Uiso   1.00
H670   H     0.50372   0.38823   0.70776   0.00000  Uiso   1.00
H671   H     0.94177   0.15079   0.13627   0.00000  Uiso   1.00
H672   H     0.84697   0.43522   0.86730   0.00000  Uiso   1.00
H673   H     0.97656   0.19754   0.90136   0.00000  Uiso   1.00
H674   H     0.65102   0.05935   0.13558   0.00000  Uiso   1.00
H675   H     0.93614   0.15083   0.86738   0.00000  Uiso   1.00
H676   H     0.55831   0.34898   0.13626   0.00000  Uiso   1.00
H677   H     0.90085   0.18615   0.63263   0.00000  Uiso   1.00
H678   H     0.59903   0.30834   0.36376   0.00000  Uiso   1.00
H679   H     0.81407   0.40346   0.63318   0.00000  Uiso   1.00
H680   H     0.69087   0.09891   0.36428   0.00000  Uiso   1.00
H681   H     0.63823   0.25371   0.79223   0.00000  Uiso   1.00
H682   H     0.90078   0.19176   0.36373   0.00000  Uiso   1.00
H683   H     0.68522   0.09697   0.63271   0.00000  Uiso   1.00
H684   H     0.52482   0.30175   0.09866   0.00000  Uiso   1.00
H685   H     0.80934   0.40102   0.36442   0.00000  Uiso   1.00
H686   H     0.89783   0.33217   0.37789   0.00000  Uiso   1.00
H687   H     0.60012   0.16622   0.62200   0.00000  Uiso   1.00
H688   H     0.83167   0.10263   0.37779   0.00000  Uiso   1.00
H689   H     0.74641   0.36220   0.79212   0.00000  Uiso   1.00
H690   H     0.60224   0.16786   0.37788   0.00000  Uiso   1.00
H691   H     0.89963   0.33392   0.62190   0.00000  Uiso   1.00
H692   H     0.66823   0.39744   0.37781   0.00000  Uiso   1.00
H693   H     0.83256   0.10090   0.62222   0.00000  Uiso   1.00
H694   H     0.80133   0.47444   0.90132   0.00000  Uiso   1.00
H695   H     0.69940   0.02700   0.09880   0.00000  Uiso   1.00
H696   H     0.52243   0.30276   0.90123   0.00000  Uiso   1.00
H697   H     0.97501   0.19840   0.09874   0.00000  Uiso   1.00
H698   H     0.88448   0.16031   0.42754   0.00000  Uiso   1.00
H699   H     0.93311   0.16644   0.42327   0.00000  Uiso   1.00
H700   H     0.91384   0.15026   0.46804   0.00000  Uiso   1.00
H701   H     0.94755   0.22654   0.59864   0.00000  Uiso   1.00
H702   H     0.87987   0.21031   0.47483   0.00000  Uiso   1.00
H703   H     0.89859   0.22669   0.43264   0.00000  Uiso   1.00
H704   H     0.64213   0.28316   0.57375   0.00000  Uiso   1.00
H705   H     0.60740   0.24852   0.57675   0.00000  Uiso   1.00
H706   H     0.63282   0.25438   0.53254   0.00000  Uiso   1.00
H707   H     0.60660   0.31785   0.52563   0.00000  Uiso   1.00
H708   H     0.58179   0.31334   0.56757   0.00000  Uiso   1.00
H709   H     0.84481   0.38881   0.42728   0.00000  Uiso   1.00
H710   H     0.83618   0.43701   0.42267   0.00000  Uiso   1.00
H711   H     0.85363   0.41893   0.46748   0.00000  Uiso   1.00
H712   H     0.72326   0.05068   0.40120   0.00000  Uiso   1.00
H713   H     0.79551   0.38188   0.47496   0.00000  Uiso   1.00
H714   H     0.77780   0.39960   0.43287   0.00000  Uiso   1.00
H715   H     0.74356   0.10760   0.57734   0.00000  Uiso   1.00
H716   H     0.73671   0.13235   0.53288   0.00000  Uiso   1.00
H717   H     0.70656   0.13969   0.57341   0.00000  Uiso   1.00
H718   H     0.67525   0.10160   0.52508   0.00000  Uiso   1.00
H719   H     0.68116   0.07693   0.56692   0.00000  Uiso   1.00
H720   H     0.61751   0.33746   0.42828   0.00000  Uiso   1.00
H721   H     0.56869   0.33271   0.42440   0.00000  Uiso   1.00
H722   H     0.58878   0.34767   0.46925   0.00000  Uiso   1.00
H723   H     0.77598   0.44882   0.59868   0.00000  Uiso   1.00
H724   H     0.62110   0.28654   0.47472   0.00000  Uiso   1.00
H725   H     0.60170   0.27146   0.43235   0.00000  Uiso   1.00
H726   H     0.85887   0.21165   0.57347   0.00000  Uiso   1.00
H727   H     0.89225   0.24753   0.57700   0.00000  Uiso   1.00
H728   H     0.86720   0.24120   0.53265   0.00000  Uiso   1.00
H729   H     0.89577   0.17871   0.52521   0.00000  Uiso   1.00
H730   H     0.92055   0.18391   0.56707   0.00000  Uiso   1.00
H731   H     0.65661   0.11243   0.42753   0.00000  Uiso   1.00
H732   H     0.66449   0.06409   0.42303   0.00000  Uiso   1.00
H733   H     0.64759   0.08255   0.46788   0.00000  Uiso   1.00
H734   H     0.94841   0.22499   0.40125   0.00000  Uiso   1.00
H735   H     0.70639   0.11875   0.47482   0.00000  Uiso   1.00
H736   H     0.72346   0.10063   0.43264   0.00000  Uiso   1.00
H737   H     0.79555   0.36073   0.57308   0.00000  Uiso   1.00
H738   H     0.75809   0.39225   0.57716   0.00000  Uiso   1.00
H739   H     0.76533   0.36786   0.53256   0.00000  Uiso   1.00
H740   H     0.82645   0.39964   0.52517   0.00000  Uiso   1.00
H741   H     0.81989   0.42396   0.56714   0.00000  Uiso   1.00
H742   H     0.85759   0.49356   0.92266   0.00000  Uiso   1.00
H743   H     0.88235   0.48671   0.96712   0.00000  Uiso   1.00
H744   H     0.88969   0.45656   0.92658   0.00000  Uiso   1.00
H745   H     0.55275   0.27245   0.59877   0.00000  Uiso   1.00
H746   H     0.85159   0.42525   0.97492   0.00000  Uiso   1.00
H747   H     0.82693   0.43116   0.93308   0.00000  Uiso   1.00
H748   H     0.63882   0.09481   0.07272   0.00000  Uiso   1.00
H749   H     0.68701   0.08618   0.07733   0.00000  Uiso   1.00
H750   H     0.66893   0.10363   0.03252   0.00000  Uiso   1.00
H751   H     0.63188   0.04551   0.02504   0.00000  Uiso   1.00
H752   H     0.64961   0.02780   0.06713   0.00000  Uiso   1.00
H753   H     0.53308   0.39215   0.92624   0.00000  Uiso   1.00
H754   H     0.99847   0.35739   0.92324   0.00000  Uiso   1.00
H755   H     0.50431   0.38282   0.96746   0.00000  Uiso   1.00
H756   H     0.77700   0.44940   0.40120   0.00000  Uiso   1.00
H757   H     0.56779   0.35664   0.97437   0.00000  Uiso   1.00
H758   H     0.56329   0.33182   0.93243   0.00000  Uiso   1.00
H759   H     0.91034   0.13446   0.07246   0.00000  Uiso   1.00
H760   H     0.91645   0.18309   0.07673   0.00000  Uiso   1.00
H761   H     0.90029   0.16380   0.03195   0.00000  Uiso   1.00
H762   H     0.96035   0.12985   0.02517   0.00000  Uiso   1.00
H763   H     0.97672   0.14858   0.06736   0.00000  Uiso   1.00
H764   H     0.64225   0.00809   0.92284   0.00000  Uiso   1.00
H765   H     0.61786   0.01533   0.96744   0.00000  Uiso   1.00
H766   H     0.61073   0.04556   0.92692   0.00000  Uiso   1.00
H767   H     0.72444   0.05133   0.59867   0.00000  Uiso   1.00
H768   H     0.64964   0.07646   0.97483   0.00000  Uiso   1.00
H769   H     0.67396   0.06989   0.93285   0.00000  Uiso   1.00
H770   H     0.86243   0.40661   0.07247   0.00000  Uiso   1.00
H771   H     0.81409   0.41449   0.07697   0.00000  Uiso   1.00
H772   H     0.83255   0.39759   0.03212   0.00000  Uiso   1.00
H773   H     0.86875   0.45639   0.02518   0.00000  Uiso   1.00
H774   H     0.85063   0.47346   0.06736   0.00000  Uiso   1.00
H775   H     0.96169   0.10886   0.92653   0.00000  Uiso   1.00
H776   H     0.99757   0.14225   0.92300   0.00000  Uiso   1.00
H777   H     0.99124   0.11720   0.96735   0.00000  Uiso   1.00
H778   H     0.69882   0.02598   0.90132   0.00000  Uiso   1.00
H779   H     0.92874   0.14575   0.97478   0.00000  Uiso   1.00
H780   H     0.93393   0.17053   0.93293   0.00000  Uiso   1.00
H781   H     0.58739   0.36755   0.07173   0.00000  Uiso   1.00
H782   H     0.58268   0.31872   0.07559   0.00000  Uiso   1.00
H783   H     0.59762   0.33885   0.03075   0.00000  Uiso   1.00
H784   H     0.53648   0.37112   0.02528   0.00000  Uiso   1.00
H785   H     0.52141   0.35171   0.06765   0.00000  Uiso   1.00
H786   H     0.64744   0.41825   0.12219   0.00000  Uiso   1.00
H787   H     0.85090   0.08255   0.87778   0.00000  Uiso   1.00
H788   H     0.58218   0.14784   0.12211   0.00000  Uiso   1.00
O789   O     0.75000   0.00000   0.25000   0.00000  Uiso   1.00
O790   O     0.75000   0.46964   0.66245   0.00000  Uiso   1.00
O791   O     0.81688   0.38796   0.33984   0.00000  Uiso   1.00
O792   O     0.93893   0.35078   0.32739   0.00000  Uiso   1.00
O793   O     0.88341   0.33931   0.35396   0.00000  Uiso   1.00
O794   O     0.55984   0.14806   0.67341   0.00000  Uiso   1.00
O795   O     0.61492   0.15927   0.64572   0.00000  Uiso   1.00
O796   O     0.85057   0.06136   0.32759   0.00000  Uiso   1.00
O797   O     0.83888   0.11696   0.35383   0.00000  Uiso   1.00
O798   O     0.71693   0.33491   0.73706   0.00000  Uiso   1.00
O799   O     0.71996   0.37021   0.79113   0.00000  Uiso   1.00
O800   O     0.56112   0.14923   0.32742   0.00000  Uiso   1.00
O801   O     0.96964   0.25000   0.33755   0.00000  Uiso   1.00
O802   O     0.61665   0.16071   0.35395   0.00000  Uiso   1.00
O803   O     0.94007   0.35167   0.67332   0.00000  Uiso   1.00
O804   O     0.88490   0.34093   0.64564   0.00000  Uiso   1.00
O805   O     0.64941   0.43869   0.32755   0.00000  Uiso   1.00
O806   O     0.66103   0.38310   0.35386   0.00000  Uiso   1.00
O807   O     0.85176   0.06042   0.67302   0.00000  Uiso   1.00
O808   O     0.83959   0.11559   0.64599   0.00000  Uiso   1.00
O809   O     0.53037   0.25000   0.66245   0.00000  Uiso   1.00
O810   O     0.50000   0.21964   0.83755   0.00000  Uiso   1.00
O811   O     0.50000   0.28037   0.16245   0.00000  Uiso   1.00
O812   O     0.78037   0.00000   0.83755   0.00000  Uiso   1.00
O813   O     0.71964   0.00000   0.16245   0.00000  Uiso   1.00
O814   O     0.50000   0.28037   0.83755   0.00000  Uiso   1.00
O815   O     0.50000   0.21964   0.16245   0.00000  Uiso   1.00
O816   O     0.71964   0.00000   0.83755   0.00000  Uiso   1.00
O817   O     0.75000   0.00000   0.75000   0.00000  Uiso   1.00
O818   O     0.78037   0.00000   0.16245   0.00000  Uiso   1.00
O819   O     0.70725   0.07308   0.27302   0.00000  Uiso   1.00
O820   O     0.79276   0.42693   0.72698   0.00000  Uiso   1.00
O821   O     0.92693   0.20725   0.27302   0.00000  Uiso   1.00
O822   O     0.57308   0.29276   0.72698   0.00000  Uiso   1.00
O823   O     0.79276   0.42693   0.27302   0.00000  Uiso   1.00
O824   O     0.70725   0.07308   0.72698   0.00000  Uiso   1.00
O825   O     0.57308   0.29276   0.27302   0.00000  Uiso   1.00
O826   O     0.92693   0.20725   0.72698   0.00000  Uiso   1.00
O827   O     0.70725   0.42693   0.72698   0.00000  Uiso   1.00
O828   O     0.50000   0.25000   0.25000   0.00000  Uiso   1.00
O829   O     0.79276   0.07308   0.27302   0.00000  Uiso   1.00
O830   O     0.92693   0.29276   0.72698   0.00000  Uiso   1.00
O831   O     0.57308   0.20725   0.27302   0.00000  Uiso   1.00
O832   O     0.79276   0.07308   0.72698   0.00000  Uiso   1.00
O833   O     0.70725   0.42693   0.27302   0.00000  Uiso   1.00
O834   O     0.57308   0.20725   0.72698   0.00000  Uiso   1.00
O835   O     0.92693   0.29276   0.27302   0.00000  Uiso   1.00
O836   O     0.95725   0.32308   0.77302   0.00000  Uiso   1.00
O837   O     0.54276   0.17693   0.22698   0.00000  Uiso   1.00
O838   O     0.67693   0.45725   0.77302   0.00000  Uiso   1.00
O839   O     0.50000   0.25000   0.75000   0.00000  Uiso   1.00
O840   O     0.82308   0.04276   0.22698   0.00000  Uiso   1.00
O841   O     0.54276   0.17693   0.77302   0.00000  Uiso   1.00
O842   O     0.95725   0.32308   0.22698   0.00000  Uiso   1.00
O843   O     0.82308   0.04276   0.77302   0.00000  Uiso   1.00
O844   O     0.67693   0.45725   0.22698   0.00000  Uiso   1.00
O845   O     0.95725   0.17693   0.22698   0.00000  Uiso   1.00
O846   O     0.54276   0.32308   0.77302   0.00000  Uiso   1.00
O847   O     0.67693   0.04276   0.22698   0.00000  Uiso   1.00
O848   O     0.82308   0.45725   0.77302   0.00000  Uiso   1.00
O849   O     0.54276   0.32308   0.22698   0.00000  Uiso   1.00
O850   O     0.75000   0.46964   0.33755   0.00000  Uiso   1.00
O851   O     0.95725   0.17693   0.77302   0.00000  Uiso   1.00
O852   O     0.82308   0.45725   0.22698   0.00000  Uiso   1.00
O853   O     0.67693   0.04276   0.77302   0.00000  Uiso   1.00
O854   O     0.68869   0.39941   0.17245   0.00000  Uiso   1.00
O855   O     0.63310   0.41104   0.14615   0.00000  Uiso   1.00
O856   O     0.81042   0.10176   0.82698   0.00000  Uiso   1.00
O857   O     0.86559   0.08958   0.85400   0.00000  Uiso   1.00
O858   O     0.60078   0.18893   0.17260   0.00000  Uiso   1.00
O859   O     0.58931   0.13341   0.14604   0.00000  Uiso   1.00
O860   O     0.89805   0.30984   0.82659   0.00000  Uiso   1.00
O861   O     0.75000   0.03037   0.66245   0.00000  Uiso   1.00
O862   O     0.90927   0.36492   0.85428   0.00000  Uiso   1.00
O863   O     0.81136   0.10057   0.17241   0.00000  Uiso   1.00
O864   O     0.86696   0.08888   0.14617   0.00000  Uiso   1.00
O865   O     0.58491   0.46692   0.76293   0.00000  Uiso   1.00
O866   O     0.62022   0.46996   0.70887   0.00000  Uiso   1.00
O867   O     0.89923   0.31112   0.17258   0.00000  Uiso   1.00
O868   O     0.91071   0.36665   0.14605   0.00000  Uiso   1.00
O869   O     0.60167   0.19007   0.82668   0.00000  Uiso   1.00
O870   O     0.59092   0.13490   0.85436   0.00000  Uiso   1.00
O871   O     0.68261   0.11494   0.83544   0.00000  Uiso   1.00
O872   O     0.53037   0.25000   0.33755   0.00000  Uiso   1.00
O873   O     0.63960   0.07063   0.84241   0.00000  Uiso   1.00
O874   O     0.82133   0.38634   0.16158   0.00000  Uiso   1.00
O875   O     0.86196   0.43331   0.16030   0.00000  Uiso   1.00
O876   O     0.53302   0.41477   0.76334   0.00000  Uiso   1.00
O877   O     0.53015   0.38018   0.70873   0.00000  Uiso   1.00
O878   O     0.88660   0.17794   0.16108   0.00000  Uiso   1.00
O879   O     0.93399   0.13780   0.16081   0.00000  Uiso   1.00
O880   O     0.81659   0.38578   0.83467   0.00000  Uiso   1.00
O881   O     0.86099   0.42848   0.84306   0.00000  Uiso   1.00
O882   O     0.67883   0.11363   0.16174   0.00000  Uiso   1.00
O883   O     0.96964   0.25000   0.66245   0.00000  Uiso   1.00
O884   O     0.63795   0.06688   0.16016   0.00000  Uiso   1.00
O885   O     0.88785   0.18301   0.83474   0.00000  Uiso   1.00
O886   O     0.92881   0.13703   0.84318   0.00000  Uiso   1.00
O887   O     0.61359   0.32205   0.16108   0.00000  Uiso   1.00
O888   O     0.56604   0.36200   0.16080   0.00000  Uiso   1.00
O889   O     0.93299   0.13782   0.66524   0.00000  Uiso   1.00
O890   O     0.88706   0.17883   0.65683   0.00000  Uiso   1.00
O891   O     0.57196   0.36351   0.33884   0.00000  Uiso   1.00
O892   O     0.61207   0.31610   0.33924   0.00000  Uiso   1.00
O893   O     0.86496   0.43259   0.66454   0.00000  Uiso   1.00
O894   O     0.75000   0.03037   0.33755   0.00000  Uiso   1.00
O895   O     0.82062   0.38961   0.65760   0.00000  Uiso   1.00
O896   O     0.63634   0.07133   0.33841   0.00000  Uiso   1.00
O897   O     0.68331   0.11196   0.33970   0.00000  Uiso   1.00
O898   O     0.66477   0.28302   0.73667   0.00000  Uiso   1.00
O899   O     0.63018   0.28015   0.79127   0.00000  Uiso   1.00
O900   O     0.92795   0.13661   0.33890   0.00000  Uiso   1.00
O901   O     0.88779   0.18397   0.33919   0.00000  Uiso   1.00
O902   O     0.63578   0.06660   0.66532   0.00000  Uiso   1.00
O903   O     0.67848   0.11099   0.65694   0.00000  Uiso   1.00
O904   O     0.86363   0.42883   0.33826   0.00000  Uiso   1.00
Zn905  Zn    0.70660   0.00000   0.21735   0.00000  Uiso   1.00
Zn906  Zn    0.54341   0.25000   0.28265   0.00000  Uiso   1.00
Zn907  Zn    0.75000   0.45660   0.71735   0.00000  Uiso   1.00
Zn908  Zn    0.75000   0.04341   0.28265   0.00000  Uiso   1.00
Zn909  Zn    0.54341   0.25000   0.71735   0.00000  Uiso   1.00
Zn910  Zn    0.95660   0.25000   0.28265   0.00000  Uiso   1.00
Zn911  Zn    0.75000   0.04341   0.71735   0.00000  Uiso   1.00
Zn912  Zn    0.75000   0.45660   0.28265   0.00000  Uiso   1.00
Zn913  Zn    0.79341   0.00000   0.78265   0.00000  Uiso   1.00
Zn914  Zn    0.50000   0.20660   0.21735   0.00000  Uiso   1.00
Zn915  Zn    0.50000   0.29341   0.78265   0.00000  Uiso   1.00
Zn916  Zn    0.79341   0.00000   0.21735   0.00000  Uiso   1.00
Zn917  Zn    0.70660   0.00000   0.78265   0.00000  Uiso   1.00
Zn918  Zn    0.50000   0.29341   0.21735   0.00000  Uiso   1.00
Zn919  Zn    0.50000   0.20660   0.78265   0.00000  Uiso   1.00
Zn920  Zn    0.95660   0.25000   0.71735   0.00000  Uiso   1.00
C921   C     0.02993   0.76350   0.41843   0.00000  Uiso   1.00
C922   C     0.27929   0.98532   0.08165   0.00000  Uiso   1.00
C923   C     0.23435   0.52982   0.54082   0.00000  Uiso   1.00
C924   C     0.03101   0.76337   0.45918   0.00000  Uiso   1.00
C925   C     0.46980   0.73492   0.54084   0.00000  Uiso   1.00
C926   C     0.23506   0.53022   0.45910   0.00000  Uiso   1.00
C927   C     0.26644   0.97053   0.54083   0.00000  Uiso   1.00
C928   C     0.27982   0.98435   0.95918   0.00000  Uiso   1.00
C929   C     0.22008   0.51565   0.04089   0.00000  Uiso   1.00
C930   C     0.01374   0.78077   0.95910   0.00000  Uiso   1.00
C931   C     0.48566   0.71947   0.04086   0.00000  Uiso   1.00
C932   C     0.22053   0.51644   0.95916   0.00000  Uiso   1.00
C933   C     0.48619   0.72019   0.91842   0.00000  Uiso   1.00
C934   C     0.28022   0.98506   0.04090   0.00000  Uiso   1.00
C935   C     0.48493   0.71980   0.95916   0.00000  Uiso   1.00
C936   C     0.01335   0.78101   0.04082   0.00000  Uiso   1.00
C937   C     0.09815   0.84816   0.25000   0.00000  Uiso   1.00
C938   C     0.40186   0.65186   0.75000   0.00000  Uiso   1.00
C939   C     0.15185   0.59816   0.25000   0.00000  Uiso   1.00
C940   C     0.34812   0.90183   0.74999   0.00000  Uiso   1.00
C941   C     0.40185   0.65185   0.25000   0.00000  Uiso   1.00
C942   C     0.09810   0.84810   0.75000   0.00000  Uiso   1.00
C943   C     0.34815   0.90185   0.25000   0.00000  Uiso   1.00
C944   C     0.01348   0.77993   0.08157   0.00000  Uiso   1.00
C945   C     0.15183   0.59812   0.75001   0.00000  Uiso   1.00
C946   C     0.09805   0.65199   0.75002   0.00000  Uiso   1.00
C947   C     0.40198   0.84802   0.25000   0.00000  Uiso   1.00
C948   C     0.15191   0.90191   0.75000   0.00000  Uiso   1.00
C949   C     0.34802   0.59802   0.25000   0.00000  Uiso   1.00
C950   C     0.40199   0.84805   0.74998   0.00000  Uiso   1.00
C951   C     0.09802   0.65198   0.25000   0.00000  Uiso   1.00
C952   C     0.34803   0.59803   0.75000   0.00000  Uiso   1.00
C953   C     0.15199   0.90198   0.25000   0.00000  Uiso   1.00
C954   C     0.00026   0.74946   0.47966   0.00000  Uiso   1.00
C955   C     0.27930   0.98534   0.91843   0.00000  Uiso   1.00
C956   C     0.00027   0.74939   0.52036   0.00000  Uiso   1.00
C957   C     0.25038   0.50016   0.47960   0.00000  Uiso   1.00
C958   C     0.25040   0.50018   0.52032   0.00000  Uiso   1.00
C959   C     0.25018   0.50040   0.97968   0.00000  Uiso   1.00
C960   C     0.25016   0.50038   0.02039   0.00000  Uiso   1.00
C961   C     0.49939   0.75027   0.97964   0.00000  Uiso   1.00
C962   C     0.49946   0.75026   0.02034   0.00000  Uiso   1.00
C963   C     0.40502   0.70831   0.45725   0.00000  Uiso   1.00
C964   C     0.40949   0.66899   0.44319   0.00000  Uiso   1.00
C965   C     0.09235   0.79689   0.54303   0.00000  Uiso   1.00
C966   C     0.22085   0.51508   0.08164   0.00000  Uiso   1.00
C967   C     0.12026   0.76897   0.55737   0.00000  Uiso   1.00
C968   C     0.29604   0.90704   0.45727   0.00000  Uiso   1.00
C969   C     0.33498   0.91345   0.44281   0.00000  Uiso   1.00
C970   C     0.19702   0.58892   0.54271   0.00000  Uiso   1.00
C971   C     0.22260   0.61884   0.55747   0.00000  Uiso   1.00
C972   C     0.09591   0.78957   0.45736   0.00000  Uiso   1.00
C973   C     0.09241   0.82922   0.44403   0.00000  Uiso   1.00
C974   C     0.40921   0.70009   0.54276   0.00000  Uiso   1.00
C975   C     0.38025   0.72682   0.55734   0.00000  Uiso   1.00
C976   C     0.20530   0.59355   0.45722   0.00000  Uiso   1.00
C977   C     0.01281   0.78014   0.91837   0.00000  Uiso   1.00
C978   C     0.16617   0.58769   0.44307   0.00000  Uiso   1.00
C979   C     0.30437   0.91184   0.54275   0.00000  Uiso   1.00
C980   C     0.27923   0.88144   0.55724   0.00000  Uiso   1.00
C981   C     0.33892   0.94702   0.95729   0.00000  Uiso   1.00
C982   C     0.36884   0.97260   0.94253   0.00000  Uiso   1.00
C983   C     0.15704   0.54605   0.04273   0.00000  Uiso   1.00
C984   C     0.16345   0.58498   0.05719   0.00000  Uiso   1.00
C985   C     0.04684   0.84237   0.95697   0.00000  Uiso   1.00
C986   C     0.01890   0.87026   0.94262   0.00000  Uiso   1.00
C987   C     0.45834   0.65501   0.04275   0.00000  Uiso   1.00
C988   C     0.48610   0.72031   0.08160   0.00000  Uiso   1.00
C989   C     0.41902   0.65947   0.05681   0.00000  Uiso   1.00
C990   C     0.16184   0.55437   0.95725   0.00000  Uiso   1.00
C991   C     0.13144   0.52923   0.94276   0.00000  Uiso   1.00
C992   C     0.34355   0.95530   0.04278   0.00000  Uiso   1.00
C993   C     0.33769   0.91617   0.05692   0.00000  Uiso   1.00
C994   C     0.45012   0.65919   0.95724   0.00000  Uiso   1.00
C995   C     0.47686   0.63024   0.94266   0.00000  Uiso   1.00
C996   C     0.03952   0.84593   0.04264   0.00000  Uiso   1.00
C997   C     0.07917   0.84245   0.05597   0.00000  Uiso   1.00
C998   C     0.15557   0.89978   0.17665   0.00000  Uiso   1.00
C999   C     0.00006   0.74993   0.39834   0.00000  Uiso   1.00
C1000  C     0.34358   0.60102   0.82320   0.00000  Uiso   1.00
C1001  C     0.10044   0.65579   0.17668   0.00000  Uiso   1.00
C1002  C     0.39845   0.84304   0.82312   0.00000  Uiso   1.00
C1003  C     0.34447   0.60018   0.17665   0.00000  Uiso   1.00
C1004  C     0.10514   0.95115   0.74030   0.00000  Uiso   1.00
C1005  C     0.39957   0.84425   0.17667   0.00000  Uiso   1.00
C1006  C     0.10152   0.65688   0.82318   0.00000  Uiso   1.00
C1007  C     0.15543   0.59986   0.82263   0.00000  Uiso   1.00
C1008  C     0.34675   0.90217   0.17716   0.00000  Uiso   1.00
C1009  C     0.04887   0.89488   0.74042   0.00000  Uiso   1.00
C1010  C     0.00007   0.74969   0.60168   0.00000  Uiso   1.00
C1011  C     0.40254   0.65285   0.17714   0.00000  Uiso   1.00
C1012  C     0.34449   0.90006   0.82258   0.00000  Uiso   1.00
C1013  C     0.15328   0.59788   0.17717   0.00000  Uiso   1.00
C1014  C     0.40102   0.65457   0.82269   0.00000  Uiso   1.00
C1015  C     0.09755   0.84706   0.17714   0.00000  Uiso   1.00
C1016  C     0.40457   0.65102   0.67731   0.00000  Uiso   1.00
C1017  C     0.09706   0.84754   0.32285   0.00000  Uiso   1.00
C1018  C     0.34986   0.90543   0.67737   0.00000  Uiso   1.00
C1019  C     0.15217   0.59675   0.32283   0.00000  Uiso   1.00
C1020  C     0.14488   0.79887   0.75958   0.00000  Uiso   1.00
C1021  C     0.25011   0.50003   0.39830   0.00000  Uiso   1.00
C1022  C     0.40285   0.65253   0.32285   0.00000  Uiso   1.00
C1023  C     0.15006   0.59449   0.67742   0.00000  Uiso   1.00
C1024  C     0.34788   0.90328   0.32283   0.00000  Uiso   1.00
C1025  C     0.40579   0.85044   0.32332   0.00000  Uiso   1.00
C1026  C     0.09304   0.64845   0.67688   0.00000  Uiso   1.00
C1027  C     0.35018   0.59447   0.32335   0.00000  Uiso   1.00
C1028  C     0.20115   0.85514   0.75969   0.00000  Uiso   1.00
C1029  C     0.09425   0.64957   0.32333   0.00000  Uiso   1.00
C1030  C     0.40688   0.85152   0.67681   0.00000  Uiso   1.00
C1031  C     0.14978   0.90557   0.32335   0.00000  Uiso   1.00
C1032  C     0.47020   0.73618   0.58158   0.00000  Uiso   1.00
C1033  C     0.25016   0.50005   0.60166   0.00000  Uiso   1.00
C1034  C     0.35102   0.59358   0.67680   0.00000  Uiso   1.00
C1035  C     0.25005   0.50016   0.89834   0.00000  Uiso   1.00
C1036  C     0.25003   0.50011   0.10170   0.00000  Uiso   1.00
C1037  C     0.49969   0.75007   0.89832   0.00000  Uiso   1.00
C1038  C     0.49992   0.75006   0.10166   0.00000  Uiso   1.00
C1039  C     0.43880   0.72133   0.47942   0.00000  Uiso   1.00
C1040  C     0.06121   0.77859   0.52068   0.00000  Uiso   1.00
C1041  C     0.28149   0.94018   0.47942   0.00000  Uiso   1.00
C1042  C     0.21778   0.55931   0.52053   0.00000  Uiso   1.00
C1043  C     0.06193   0.77711   0.47951   0.00000  Uiso   1.00
C1044  C     0.23532   0.52929   0.41835   0.00000  Uiso   1.00
C1045  C     0.43964   0.71963   0.52056   0.00000  Uiso   1.00
C1046  C     0.21951   0.56026   0.47938   0.00000  Uiso   1.00
C1047  C     0.28325   0.94118   0.52056   0.00000  Uiso   1.00
C1048  C     0.30931   0.96778   0.97947   0.00000  Uiso   1.00
C1049  C     0.19019   0.53149   0.02058   0.00000  Uiso   1.00
C1050  C     0.02855   0.81122   0.97932   0.00000  Uiso   1.00
C1051  C     0.47135   0.68879   0.02058   0.00000  Uiso   1.00
C1052  C     0.19118   0.53325   0.97944   0.00000  Uiso   1.00
C1053  C     0.31026   0.96951   0.02062   0.00000  Uiso   1.00
C1054  C     0.46964   0.68963   0.97944   0.00000  Uiso   1.00
C1055  C     0.26518   0.97091   0.58158   0.00000  Uiso   1.00
C1056  C     0.02708   0.81195   0.02049   0.00000  Uiso   1.00
C1057  C     0.25001   0.50000   0.35591   0.00000  Uiso   1.00
C1058  C     0.25003   0.50001   0.64408   0.00000  Uiso   1.00
C1059  C     0.00001   0.75003   0.35592   0.00000  Uiso   1.00
C1060  C     0.00000   0.74993   0.64408   0.00000  Uiso   1.00
C1061  C     0.49993   0.75000   0.85591   0.00000  Uiso   1.00
C1062  C     0.00003   0.75001   0.14408   0.00000  Uiso   1.00
C1063  C     0.25001   0.50003   0.85592   0.00000  Uiso   1.00
C1064  C     0.25000   0.50001   0.14409   0.00000  Uiso   1.00
C1065  C     0.18000   0.57000   0.25000   0.00000  Uiso   1.00
C1066  C     0.47031   0.73610   0.41840   0.00000  Uiso   1.00
C1067  C     0.31999   0.93001   0.75000   0.00000  Uiso   1.00
C1068  C     0.43000   0.68000   0.25000   0.00000  Uiso   1.00
C1069  C     0.06997   0.81997   0.75000   0.00000  Uiso   1.00
C1070  C     0.32000   0.93000   0.25000   0.00000  Uiso   1.00
C1071  C     0.18001   0.56999   0.75000   0.00000  Uiso   1.00
C1072  C     0.07000   0.82000   0.25000   0.00000  Uiso   1.00
C1073  C     0.43001   0.68001   0.75000   0.00000  Uiso   1.00
C1074  C     0.18003   0.93003   0.75000   0.00000  Uiso   1.00
C1075  C     0.31995   0.56995   0.25000   0.00000  Uiso   1.00
C1076  C     0.43006   0.81996   0.74998   0.00000  Uiso   1.00
C1077  C     0.03013   0.76282   0.58163   0.00000  Uiso   1.00
C1078  C     0.06995   0.68005   0.25000   0.00000  Uiso   1.00
C1079  C     0.31995   0.56995   0.75000   0.00000  Uiso   1.00
C1080  C     0.18005   0.93005   0.25000   0.00000  Uiso   1.00
C1081  C     0.06996   0.68006   0.75001   0.00000  Uiso   1.00
C1082  C     0.43005   0.81995   0.25000   0.00000  Uiso   1.00
C1083  C     0.13916   0.88803   0.21424   0.00000  Uiso   1.00
C1084  C     0.36051   0.61233   0.78574   0.00000  Uiso   1.00
C1085  C     0.11207   0.63926   0.21425   0.00000  Uiso   1.00
C1086  C     0.38733   0.86016   0.78569   0.00000  Uiso   1.00
C1087  C     0.36087   0.61194   0.21424   0.00000  Uiso   1.00
C1088  C     0.26508   0.97084   0.41836   0.00000  Uiso   1.00
C1089  C     0.11491   0.91222   0.74681   0.00000  Uiso   1.00
C1090  C     0.38793   0.86076   0.21424   0.00000  Uiso   1.00
C1091  C     0.11270   0.63986   0.78573   0.00000  Uiso   1.00
C1092  C     0.13922   0.61232   0.78559   0.00000  Uiso   1.00
C1093  C     0.36163   0.88849   0.21437   0.00000  Uiso   1.00
C1094  C     0.08779   0.88511   0.74684   0.00000  Uiso   1.00
C1095  C     0.38863   0.63821   0.21437   0.00000  Uiso   1.00
C1096  C     0.36075   0.88764   0.78556   0.00000  Uiso   1.00
C1097  C     0.13838   0.61153   0.21438   0.00000  Uiso   1.00
C1098  C     0.38807   0.63883   0.78560   0.00000  Uiso   1.00
C1099  C     0.23534   0.52931   0.58157   0.00000  Uiso   1.00
C1100  C     0.11140   0.86175   0.21437   0.00000  Uiso   1.00
C1101  C     0.38883   0.63807   0.71439   0.00000  Uiso   1.00
C1102  C     0.11175   0.86140   0.28563   0.00000  Uiso   1.00
C1103  C     0.36232   0.88922   0.71440   0.00000  Uiso   1.00
C1104  C     0.13849   0.61163   0.28563   0.00000  Uiso   1.00
C1105  C     0.13511   0.83779   0.75316   0.00000  Uiso   1.00
C1106  C     0.38821   0.63863   0.28563   0.00000  Uiso   1.00
C1107  C     0.13764   0.61075   0.71444   0.00000  Uiso   1.00
C1108  C     0.36153   0.88838   0.28562   0.00000  Uiso   1.00
C1109  C     0.38926   0.86207   0.28575   0.00000  Uiso   1.00
C1110  C     0.22091   0.51518   0.91842   0.00000  Uiso   1.00
C1111  C     0.11016   0.63733   0.71431   0.00000  Uiso   1.00
C1112  C     0.36194   0.61087   0.28576   0.00000  Uiso   1.00
C1113  C     0.16222   0.86491   0.75319   0.00000  Uiso   1.00
C1114  C     0.11076   0.63793   0.28576   0.00000  Uiso   1.00
C1115  C     0.38986   0.86270   0.71427   0.00000  Uiso   1.00
C1116  C     0.13803   0.88916   0.28576   0.00000  Uiso   1.00
C1117  C     0.36233   0.61050   0.71426   0.00000  Uiso   1.00
C1118  C     0.46947   0.73565   0.45914   0.00000  Uiso   1.00
C1119  C     0.03076   0.76376   0.54090   0.00000  Uiso   1.00
C1120  C     0.26565   0.97008   0.45911   0.00000  Uiso   1.00
H1121  H     0.05174   0.77484   0.40134   0.00000  Uiso   1.00
H1122  H     0.30068   0.97326   0.09879   0.00000  Uiso   1.00
H1123  H     0.41622   0.85012   0.87800   0.00000  Uiso   1.00
H1124  H     0.35263   0.58167   0.12221   0.00000  Uiso   1.00
H1125  H     0.11220   0.99641   0.70788   0.00000  Uiso   1.00
H1126  H     0.41786   0.85224   0.12212   0.00000  Uiso   1.00
H1127  H     0.08391   0.64963   0.87810   0.00000  Uiso   1.00
H1128  H     0.15345   0.56408   0.86682   0.00000  Uiso   1.00
H1129  H     0.34890   0.94087   0.13572   0.00000  Uiso   1.00
H1130  H     0.00372   0.88823   0.70776   0.00000  Uiso   1.00
H1131  H     0.44177   0.65079   0.13627   0.00000  Uiso   1.00
H1132  H     0.34697   0.93522   0.86730   0.00000  Uiso   1.00
H1133  H     0.47656   0.69754   0.90136   0.00000  Uiso   1.00
H1134  H     0.15102   0.55935   0.13558   0.00000  Uiso   1.00
H1135  H     0.43614   0.65083   0.86738   0.00000  Uiso   1.00
H1136  H     0.05831   0.84898   0.13626   0.00000  Uiso   1.00
H1137  H     0.40085   0.68615   0.63263   0.00000  Uiso   1.00
H1138  H     0.09903   0.80834   0.36376   0.00000  Uiso   1.00
H1139  H     0.31407   0.90346   0.63318   0.00000  Uiso   1.00
H1140  H     0.19087   0.59891   0.36428   0.00000  Uiso   1.00
H1141  H     0.13823   0.75371   0.79223   0.00000  Uiso   1.00
H1142  H     0.40078   0.69176   0.36373   0.00000  Uiso   1.00
H1143  H     0.18522   0.59697   0.63271   0.00000  Uiso   1.00
H1144  H     0.02482   0.80175   0.09866   0.00000  Uiso   1.00
H1145  H     0.30934   0.90102   0.36442   0.00000  Uiso   1.00
H1146  H     0.39783   0.83217   0.37789   0.00000  Uiso   1.00
H1147  H     0.10012   0.66622   0.62200   0.00000  Uiso   1.00
H1148  H     0.33167   0.60263   0.37779   0.00000  Uiso   1.00
H1149  H     0.24641   0.86220   0.79212   0.00000  Uiso   1.00
H1150  H     0.10224   0.66786   0.37788   0.00000  Uiso   1.00
H1151  H     0.39963   0.83392   0.62190   0.00000  Uiso   1.00
H1152  H     0.16823   0.89744   0.37781   0.00000  Uiso   1.00
H1153  H     0.33256   0.60090   0.62222   0.00000  Uiso   1.00
H1154  H     0.30133   0.97444   0.90132   0.00000  Uiso   1.00
H1155  H     0.19940   0.52700   0.09880   0.00000  Uiso   1.00
H1156  H     0.02243   0.80276   0.90123   0.00000  Uiso   1.00
H1157  H     0.47501   0.69840   0.09874   0.00000  Uiso   1.00
H1158  H     0.38448   0.66031   0.42754   0.00000  Uiso   1.00
H1159  H     0.43311   0.66644   0.42327   0.00000  Uiso   1.00
H1160  H     0.41384   0.65026   0.46804   0.00000  Uiso   1.00
H1161  H     0.44755   0.72654   0.59864   0.00000  Uiso   1.00
H1162  H     0.37987   0.71031   0.47483   0.00000  Uiso   1.00
H1163  H     0.39859   0.72669   0.43264   0.00000  Uiso   1.00
H1164  H     0.14213   0.78316   0.57375   0.00000  Uiso   1.00
H1165  H     0.10740   0.74852   0.57675   0.00000  Uiso   1.00
H1166  H     0.13282   0.75438   0.53254   0.00000  Uiso   1.00
H1167  H     0.10660   0.81785   0.52563   0.00000  Uiso   1.00
H1168  H     0.08179   0.81334   0.56757   0.00000  Uiso   1.00
H1169  H     0.34481   0.88881   0.42728   0.00000  Uiso   1.00
H1170  H     0.33618   0.93701   0.42267   0.00000  Uiso   1.00
H1171  H     0.35363   0.91893   0.46748   0.00000  Uiso   1.00
H1172  H     0.22326   0.55068   0.40120   0.00000  Uiso   1.00
H1173  H     0.29551   0.88188   0.47496   0.00000  Uiso   1.00
H1174  H     0.27780   0.89960   0.43287   0.00000  Uiso   1.00
H1175  H     0.24356   0.60760   0.57734   0.00000  Uiso   1.00
H1176  H     0.23671   0.63235   0.53288   0.00000  Uiso   1.00
H1177  H     0.20656   0.63969   0.57341   0.00000  Uiso   1.00
H1178  H     0.17525   0.60160   0.52508   0.00000  Uiso   1.00
H1179  H     0.18116   0.57693   0.56692   0.00000  Uiso   1.00
H1180  H     0.11751   0.83746   0.42828   0.00000  Uiso   1.00
H1181  H     0.06869   0.83271   0.42440   0.00000  Uiso   1.00
H1182  H     0.08878   0.84767   0.46925   0.00000  Uiso   1.00
H1183  H     0.27598   0.94882   0.59868   0.00000  Uiso   1.00
H1184  H     0.12110   0.78654   0.47472   0.00000  Uiso   1.00
H1185  H     0.10170   0.77146   0.43235   0.00000  Uiso   1.00
H1186  H     0.35887   0.71165   0.57347   0.00000  Uiso   1.00
H1187  H     0.39225   0.74753   0.57700   0.00000  Uiso   1.00
H1188  H     0.36720   0.74120   0.53265   0.00000  Uiso   1.00
H1189  H     0.39577   0.67871   0.52521   0.00000  Uiso   1.00
H1190  H     0.42055   0.68391   0.56707   0.00000  Uiso   1.00
H1191  H     0.15661   0.61243   0.42753   0.00000  Uiso   1.00
H1192  H     0.16449   0.56409   0.42303   0.00000  Uiso   1.00
H1193  H     0.14759   0.58255   0.46788   0.00000  Uiso   1.00
H1194  H     0.44841   0.72499   0.40125   0.00000  Uiso   1.00
H1195  H     0.20639   0.61875   0.47482   0.00000  Uiso   1.00
H1196  H     0.22346   0.60063   0.43264   0.00000  Uiso   1.00
H1197  H     0.29555   0.86073   0.57308   0.00000  Uiso   1.00
H1198  H     0.25809   0.89225   0.57716   0.00000  Uiso   1.00
H1199  H     0.26533   0.86786   0.53256   0.00000  Uiso   1.00
H1200  H     0.32645   0.89964   0.52517   0.00000  Uiso   1.00
H1201  H     0.31989   0.92396   0.56714   0.00000  Uiso   1.00
H1202  H     0.35759   0.99356   0.92266   0.00000  Uiso   1.00
H1203  H     0.38235   0.98671   0.96712   0.00000  Uiso   1.00
H1204  H     0.38969   0.95656   0.92658   0.00000  Uiso   1.00
H1205  H     0.05275   0.77245   0.59877   0.00000  Uiso   1.00
H1206  H     0.35159   0.92525   0.97492   0.00000  Uiso   1.00
H1207  H     0.32693   0.93116   0.93308   0.00000  Uiso   1.00
H1208  H     0.13882   0.59481   0.07272   0.00000  Uiso   1.00
H1209  H     0.18701   0.58618   0.07733   0.00000  Uiso   1.00
H1210  H     0.16893   0.60363   0.03252   0.00000  Uiso   1.00
H1211  H     0.13188   0.54551   0.02504   0.00000  Uiso   1.00
H1212  H     0.14961   0.52780   0.06713   0.00000  Uiso   1.00
H1213  H     0.03308   0.89215   0.92624   0.00000  Uiso   1.00
H1214  H     0.49847   0.85739   0.92324   0.00000  Uiso   1.00
H1215  H     0.00431   0.88282   0.96746   0.00000  Uiso   1.00
H1216  H     0.27700   0.94940   0.40120   0.00000  Uiso   1.00
H1217  H     0.06779   0.85664   0.97437   0.00000  Uiso   1.00
H1218  H     0.06329   0.83182   0.93243   0.00000  Uiso   1.00
H1219  H     0.41034   0.63446   0.07246   0.00000  Uiso   1.00
H1220  H     0.41645   0.68309   0.07673   0.00000  Uiso   1.00
H1221  H     0.40029   0.66380   0.03195   0.00000  Uiso   1.00
H1222  H     0.46035   0.62985   0.02517   0.00000  Uiso   1.00
H1223  H     0.47672   0.64858   0.06736   0.00000  Uiso   1.00
H1224  H     0.14225   0.50809   0.92284   0.00000  Uiso   1.00
H1225  H     0.11786   0.51533   0.96744   0.00000  Uiso   1.00
H1226  H     0.11073   0.54556   0.92692   0.00000  Uiso   1.00
H1227  H     0.22444   0.55133   0.59867   0.00000  Uiso   1.00
H1228  H     0.14964   0.57646   0.97483   0.00000  Uiso   1.00
H1229  H     0.17396   0.56989   0.93285   0.00000  Uiso   1.00
H1230  H     0.36243   0.90661   0.07247   0.00000  Uiso   1.00
H1231  H     0.31409   0.91449   0.07697   0.00000  Uiso   1.00
H1232  H     0.33255   0.89759   0.03212   0.00000  Uiso   1.00
H1233  H     0.36875   0.95639   0.02518   0.00000  Uiso   1.00
H1234  H     0.35063   0.97346   0.06736   0.00000  Uiso   1.00
H1235  H     0.46169   0.60886   0.92653   0.00000  Uiso   1.00
H1236  H     0.49757   0.64225   0.92300   0.00000  Uiso   1.00
H1237  H     0.49124   0.61720   0.96735   0.00000  Uiso   1.00
H1238  H     0.19882   0.52598   0.90132   0.00000  Uiso   1.00
H1239  H     0.42874   0.64575   0.97478   0.00000  Uiso   1.00
H1240  H     0.43393   0.67053   0.93293   0.00000  Uiso   1.00
H1241  H     0.08739   0.86755   0.07173   0.00000  Uiso   1.00
H1242  H     0.08268   0.81872   0.07559   0.00000  Uiso   1.00
H1243  H     0.09762   0.83885   0.03075   0.00000  Uiso   1.00
H1244  H     0.03648   0.87112   0.02528   0.00000  Uiso   1.00
H1245  H     0.02141   0.85171   0.06765   0.00000  Uiso   1.00
H1246  H     0.14744   0.91825   0.12219   0.00000  Uiso   1.00
H1247  H     0.35090   0.58255   0.87778   0.00000  Uiso   1.00
H1248  H     0.08218   0.64784   0.12211   0.00000  Uiso   1.00
O1249  O     0.25000   0.50000   0.25000   0.00000  Uiso   1.00
O1250  O     0.25000   0.96964   0.66245   0.00000  Uiso   1.00
O1251  O     0.31688   0.88796   0.33984   0.00000  Uiso   1.00
O1252  O     0.43893   0.85078   0.32739   0.00000  Uiso   1.00
O1253  O     0.38341   0.83931   0.35396   0.00000  Uiso   1.00
O1254  O     0.05984   0.64806   0.67341   0.00000  Uiso   1.00
O1255  O     0.11492   0.65927   0.64572   0.00000  Uiso   1.00
O1256  O     0.35057   0.56136   0.32759   0.00000  Uiso   1.00
O1257  O     0.33888   0.61696   0.35383   0.00000  Uiso   1.00
O1258  O     0.21693   0.83491   0.73706   0.00000  Uiso   1.00
O1259  O     0.21996   0.87021   0.79113   0.00000  Uiso   1.00
O1260  O     0.06112   0.64923   0.32742   0.00000  Uiso   1.00
O1261  O     0.46964   0.75000   0.33755   0.00000  Uiso   1.00
O1262  O     0.11665   0.66071   0.35395   0.00000  Uiso   1.00
O1263  O     0.44007   0.85167   0.67332   0.00000  Uiso   1.00
O1264  O     0.38490   0.84093   0.64564   0.00000  Uiso   1.00
O1265  O     0.14941   0.93869   0.32755   0.00000  Uiso   1.00
O1266  O     0.16103   0.88310   0.35386   0.00000  Uiso   1.00
O1267  O     0.35176   0.56042   0.67302   0.00000  Uiso   1.00
O1268  O     0.33959   0.61559   0.64599   0.00000  Uiso   1.00
O1269  O     0.03037   0.75000   0.66245   0.00000  Uiso   1.00
O1270  O     0.00000   0.71964   0.83755   0.00000  Uiso   1.00
O1271  O     0.00000   0.78037   0.16245   0.00000  Uiso   1.00
O1272  O     0.28037   0.50000   0.83755   0.00000  Uiso   1.00
O1273  O     0.21964   0.50000   0.16245   0.00000  Uiso   1.00
O1274  O     0.00000   0.78037   0.83755   0.00000  Uiso   1.00
O1275  O     0.00000   0.71964   0.16245   0.00000  Uiso   1.00
O1276  O     0.21964   0.50000   0.83755   0.00000  Uiso   1.00
O1277  O     0.25000   0.50000   0.75000   0.00000  Uiso   1.00
O1278  O     0.28037   0.50000   0.16245   0.00000  Uiso   1.00
O1279  O     0.20725   0.57308   0.27302   0.00000  Uiso   1.00
O1280  O     0.29276   0.92693   0.72698   0.00000  Uiso   1.00
O1281  O     0.42693   0.70725   0.27302   0.00000  Uiso   1.00
O1282  O     0.07308   0.79276   0.72698   0.00000  Uiso   1.00
O1283  O     0.29276   0.92693   0.27302   0.00000  Uiso   1.00
O1284  O     0.20725   0.57308   0.72698   0.00000  Uiso   1.00
O1285  O     0.07308   0.79276   0.27302   0.00000  Uiso   1.00
O1286  O     0.42693   0.70725   0.72698   0.00000  Uiso   1.00
O1287  O     0.20725   0.92693   0.72698   0.00000  Uiso   1.00
O1288  O     0.00000   0.75000   0.25000   0.00000  Uiso   1.00
O1289  O     0.29276   0.57308   0.27302   0.00000  Uiso   1.00
O1290  O     0.42693   0.79276   0.72698   0.00000  Uiso   1.00
O1291  O     0.07308   0.70725   0.27302   0.00000  Uiso   1.00
O1292  O     0.29276   0.57308   0.72698   0.00000  Uiso   1.00
O1293  O     0.20725   0.92693   0.27302   0.00000  Uiso   1.00
O1294  O     0.07308   0.70725   0.72698   0.00000  Uiso   1.00
O1295  O     0.42693   0.79276   0.27302   0.00000  Uiso   1.00
O1296  O     0.45725   0.82308   0.77302   0.00000  Uiso   1.00
O1297  O     0.04276   0.67693   0.22698   0.00000  Uiso   1.00
O1298  O     0.17693   0.95725   0.77302   0.00000  Uiso   1.00
O1299  O     0.00000   0.75000   0.75000   0.00000  Uiso   1.00
O1300  O     0.32308   0.54276   0.22698   0.00000  Uiso   1.00
O1301  O     0.04276   0.67693   0.77302   0.00000  Uiso   1.00
O1302  O     0.45725   0.82308   0.22698   0.00000  Uiso   1.00
O1303  O     0.32308   0.54276   0.77302   0.00000  Uiso   1.00
O1304  O     0.17693   0.95725   0.22698   0.00000  Uiso   1.00
O1305  O     0.45725   0.67693   0.22698   0.00000  Uiso   1.00
O1306  O     0.04276   0.82308   0.77302   0.00000  Uiso   1.00
O1307  O     0.17693   0.54276   0.22698   0.00000  Uiso   1.00
O1308  O     0.32308   0.95725   0.77302   0.00000  Uiso   1.00
O1309  O     0.04276   0.82308   0.22698   0.00000  Uiso   1.00
O1310  O     0.25000   0.96964   0.33755   0.00000  Uiso   1.00
O1311  O     0.45725   0.67693   0.77302   0.00000  Uiso   1.00
O1312  O     0.32308   0.95725   0.22698   0.00000  Uiso   1.00
O1313  O     0.17693   0.54276   0.77302   0.00000  Uiso   1.00
O1314  O     0.18869   0.89941   0.17245   0.00000  Uiso   1.00
O1315  O     0.13310   0.91104   0.14615   0.00000  Uiso   1.00
O1316  O     0.31042   0.60176   0.82698   0.00000  Uiso   1.00
O1317  O     0.36559   0.58958   0.85400   0.00000  Uiso   1.00
O1318  O     0.10078   0.68893   0.17260   0.00000  Uiso   1.00
O1319  O     0.08931   0.63341   0.14604   0.00000  Uiso   1.00
O1320  O     0.39805   0.80984   0.82659   0.00000  Uiso   1.00
O1321  O     0.25000   0.53037   0.66245   0.00000  Uiso   1.00
O1322  O     0.40927   0.86492   0.85428   0.00000  Uiso   1.00
O1323  O     0.31136   0.60057   0.17241   0.00000  Uiso   1.00
O1324  O     0.36696   0.58888   0.14617   0.00000  Uiso   1.00
O1325  O     0.08491   0.96692   0.76293   0.00000  Uiso   1.00
O1326  O     0.12022   0.96996   0.70887   0.00000  Uiso   1.00
O1327  O     0.39923   0.81112   0.17258   0.00000  Uiso   1.00
O1328  O     0.41071   0.86665   0.14605   0.00000  Uiso   1.00
O1329  O     0.10167   0.69007   0.82668   0.00000  Uiso   1.00
O1330  O     0.09092   0.63490   0.85436   0.00000  Uiso   1.00
O1331  O     0.18261   0.61494   0.83544   0.00000  Uiso   1.00
O1332  O     0.03037   0.75000   0.33755   0.00000  Uiso   1.00
O1333  O     0.13960   0.57063   0.84241   0.00000  Uiso   1.00
O1334  O     0.32133   0.88634   0.16158   0.00000  Uiso   1.00
O1335  O     0.36196   0.93331   0.16030   0.00000  Uiso   1.00
O1336  O     0.03302   0.91477   0.76334   0.00000  Uiso   1.00
O1337  O     0.03015   0.88018   0.70873   0.00000  Uiso   1.00
O1338  O     0.38660   0.67794   0.16108   0.00000  Uiso   1.00
O1339  O     0.43399   0.63780   0.16081   0.00000  Uiso   1.00
O1340  O     0.31659   0.88578   0.83467   0.00000  Uiso   1.00
O1341  O     0.36099   0.92848   0.84306   0.00000  Uiso   1.00
O1342  O     0.17883   0.61363   0.16174   0.00000  Uiso   1.00
O1343  O     0.46964   0.75000   0.66245   0.00000  Uiso   1.00
O1344  O     0.13795   0.56688   0.16016   0.00000  Uiso   1.00
O1345  O     0.38785   0.68301   0.83474   0.00000  Uiso   1.00
O1346  O     0.42881   0.63703   0.84318   0.00000  Uiso   1.00
O1347  O     0.11359   0.82205   0.16108   0.00000  Uiso   1.00
O1348  O     0.06604   0.86200   0.16080   0.00000  Uiso   1.00
O1349  O     0.43299   0.63782   0.66524   0.00000  Uiso   1.00
O1350  O     0.38706   0.67883   0.65683   0.00000  Uiso   1.00
O1351  O     0.07196   0.86351   0.33884   0.00000  Uiso   1.00
O1352  O     0.11207   0.81610   0.33924   0.00000  Uiso   1.00
O1353  O     0.36496   0.93259   0.66454   0.00000  Uiso   1.00
O1354  O     0.25000   0.53037   0.33755   0.00000  Uiso   1.00
O1355  O     0.32062   0.88961   0.65760   0.00000  Uiso   1.00
O1356  O     0.13634   0.57133   0.33841   0.00000  Uiso   1.00
O1357  O     0.18331   0.61196   0.33970   0.00000  Uiso   1.00
O1358  O     0.16477   0.78302   0.73667   0.00000  Uiso   1.00
O1359  O     0.13018   0.78015   0.79127   0.00000  Uiso   1.00
O1360  O     0.42795   0.63661   0.33890   0.00000  Uiso   1.00
O1361  O     0.38779   0.68397   0.33919   0.00000  Uiso   1.00
O1362  O     0.13578   0.56660   0.66532   0.00000  Uiso   1.00
O1363  O     0.17848   0.61099   0.65694   0.00000  Uiso   1.00
O1364  O     0.36363   0.92883   0.33826   0.00000  Uiso   1.00
Zn1365 Zn    0.20660   0.50000   0.21735   0.00000  Uiso   1.00
Zn1366 Zn    0.04341   0.75000   0.28265   0.00000  Uiso   1.00
Zn1367 Zn    0.25000   0.95660   0.71735   0.00000  Uiso   1.00
Zn1368 Zn    0.25000   0.54341   0.28265   0.00000  Uiso   1.00
Zn1369 Zn    0.04341   0.75000   0.71735   0.00000  Uiso   1.00
Zn1370 Zn    0.45660   0.75000   0.28265   0.00000  Uiso   1.00
Zn1371 Zn    0.25000   0.54341   0.71735   0.00000  Uiso   1.00
Zn1372 Zn    0.25000   0.95660   0.28265   0.00000  Uiso   1.00
Zn1373 Zn    0.29341   0.50000   0.78265   0.00000  Uiso   1.00
Zn1374 Zn    0.00000   0.70660   0.21735   0.00000  Uiso   1.00
Zn1375 Zn    0.00000   0.79341   0.78265   0.00000  Uiso   1.00
Zn1376 Zn    0.29341   0.50000   0.21735   0.00000  Uiso   1.00
Zn1377 Zn    0.20660   0.50000   0.78265   0.00000  Uiso   1.00
Zn1378 Zn    0.00000   0.79341   0.21735   0.00000  Uiso   1.00
Zn1379 Zn    0.00000   0.70660   0.78265   0.00000  Uiso   1.00
Zn1380 Zn    0.45660   0.75000   0.71735   0.00000  Uiso   1.00
C1381  C     0.52993   0.76350   0.41843   0.00000  Uiso   1.00
C1382  C     0.77929   0.98532   0.08165   0.00000  Uiso   1.00
C1383  C     0.73435   0.52982   0.54082   0.00000  Uiso   1.00
C1384  C     0.53101   0.76337   0.45918   0.00000  Uiso   1.00
C1385  C     0.96980   0.73492   0.54084   0.00000  Uiso   1.00
C1386  C     0.73506   0.53022   0.45910   0.00000  Uiso   1.00
C1387  C     0.76644   0.97053   0.54083   0.00000  Uiso   1.00
C1388  C     0.77982   0.98435   0.95918   0.00000  Uiso   1.00
C1389  C     0.72008   0.51565   0.04089   0.00000  Uiso   1.00
C1390  C     0.51374   0.78077   0.95910   0.00000  Uiso   1.00
C1391  C     0.98566   0.71947   0.04086   0.00000  Uiso   1.00
C1392  C     0.72053   0.51644   0.95916   0.00000  Uiso   1.00
C1393  C     0.98619   0.72019   0.91842   0.00000  Uiso   1.00
C1394  C     0.78022   0.98506   0.04090   0.00000  Uiso   1.00
C1395  C     0.98493   0.71980   0.95916   0.00000  Uiso   1.00
C1396  C     0.51335   0.78101   0.04082   0.00000  Uiso   1.00
C1397  C     0.59815   0.84816   0.25000   0.00000  Uiso   1.00
C1398  C     0.90186   0.65186   0.75000   0.00000  Uiso   1.00
C1399  C     0.65185   0.59816   0.25000   0.00000  Uiso   1.00
C1400  C     0.84812   0.90183   0.74999   0.00000  Uiso   1.00
C1401  C     0.90185   0.65185   0.25000   0.00000  Uiso   1.00
C1402  C     0.59810   0.84810   0.75000   0.00000  Uiso   1.00
C1403  C     0.84815   0.90185   0.25000   0.00000  Uiso   1.00
C1404  C     0.51348   0.77993   0.08157   0.00000  Uiso   1.00
C1405  C     0.65183   0.59812   0.75001   0.00000  Uiso   1.00
C1406  C     0.59805   0.65199   0.75002   0.00000  Uiso   1.00
C1407  C     0.90198   0.84802   0.25000   0.00000  Uiso   1.00
C1408  C     0.65191   0.90191   0.75000   0.00000  Uiso   1.00
C1409  C     0.84802   0.59802   0.25000   0.00000  Uiso   1.00
C1410  C     0.90199   0.84805   0.74998   0.00000  Uiso   1.00
C1411  C     0.59802   0.65198   0.25000   0.00000  Uiso   1.00
C1412  C     0.84803   0.59803   0.75000   0.00000  Uiso   1.00
C1413  C     0.65199   0.90198   0.25000   0.00000  Uiso   1.00
C1414  C     0.50026   0.74946   0.47966   0.00000  Uiso   1.00
C1415  C     0.77930   0.98534   0.91843   0.00000  Uiso   1.00
C1416  C     0.50027   0.74939   0.52036   0.00000  Uiso   1.00
C1417  C     0.75038   0.50016   0.47960   0.00000  Uiso   1.00
C1418  C     0.75040   0.50018   0.52032   0.00000  Uiso   1.00
C1419  C     0.75018   0.50040   0.97968   0.00000  Uiso   1.00
C1420  C     0.75016   0.50038   0.02039   0.00000  Uiso   1.00
C1421  C     0.99939   0.75027   0.97964   0.00000  Uiso   1.00
C1422  C     0.99946   0.75026   0.02034   0.00000  Uiso   1.00
C1423  C     0.90502   0.70831   0.45725   0.00000  Uiso   1.00
C1424  C     0.90949   0.66899   0.44319   0.00000  Uiso   1.00
C1425  C     0.59235   0.79689   0.54303   0.00000  Uiso   1.00
C1426  C     0.72085   0.51508   0.08164   0.00000  Uiso   1.00
C1427  C     0.62026   0.76897   0.55737   0.00000  Uiso   1.00
C1428  C     0.79604   0.90704   0.45727   0.00000  Uiso   1.00
C1429  C     0.83498   0.91345   0.44281   0.00000  Uiso   1.00
C1430  C     0.69702   0.58892   0.54271   0.00000  Uiso   1.00
C1431  C     0.72260   0.61884   0.55747   0.00000  Uiso   1.00
C1432  C     0.59591   0.78957   0.45736   0.00000  Uiso   1.00
C1433  C     0.59241   0.82922   0.44403   0.00000  Uiso   1.00
C1434  C     0.90921   0.70009   0.54276   0.00000  Uiso   1.00
C1435  C     0.88025   0.72682   0.55734   0.00000  Uiso   1.00
C1436  C     0.70530   0.59355   0.45722   0.00000  Uiso   1.00
C1437  C     0.51281   0.78014   0.91837   0.00000  Uiso   1.00
C1438  C     0.66617   0.58769   0.44307   0.00000  Uiso   1.00
C1439  C     0.80437   0.91184   0.54275   0.00000  Uiso   1.00
C1440  C     0.77923   0.88144   0.55724   0.00000  Uiso   1.00
C1441  C     0.83892   0.94702   0.95729   0.00000  Uiso   1.00
C1442  C     0.86884   0.97260   0.94253   0.00000  Uiso   1.00
C1443  C     0.65704   0.54605   0.04273   0.00000  Uiso   1.00
C1444  C     0.66345   0.58498   0.05719   0.00000  Uiso   1.00
C1445  C     0.54684   0.84237   0.95697   0.00000  Uiso   1.00
C1446  C     0.51890   0.87026   0.94262   0.00000  Uiso   1.00
C1447  C     0.95834   0.65501   0.04275   0.00000  Uiso   1.00
C1448  C     0.98610   0.72031   0.08160   0.00000  Uiso   1.00
C1449  C     0.91902   0.65947   0.05681   0.00000  Uiso   1.00
C1450  C     0.66184   0.55437   0.95725   0.00000  Uiso   1.00
C1451  C     0.63144   0.52923   0.94276   0.00000  Uiso   1.00
C1452  C     0.84355   0.95530   0.04278   0.00000  Uiso   1.00
C1453  C     0.83769   0.91617   0.05692   0.00000  Uiso   1.00
C1454  C     0.95012   0.65919   0.95724   0.00000  Uiso   1.00
C1455  C     0.97686   0.63024   0.94266   0.00000  Uiso   1.00
C1456  C     0.53952   0.84593   0.04264   0.00000  Uiso   1.00
C1457  C     0.57917   0.84245   0.05597   0.00000  Uiso   1.00
C1458  C     0.65557   0.89978   0.17665   0.00000  Uiso   1.00
C1459  C     0.50006   0.74993   0.39834   0.00000  Uiso   1.00
C1460  C     0.84358   0.60102   0.82320   0.00000  Uiso   1.00
C1461  C     0.60044   0.65579   0.17668   0.00000  Uiso   1.00
C1462  C     0.89845   0.84304   0.82312   0.00000  Uiso   1.00
C1463  C     0.84447   0.60018   0.17665   0.00000  Uiso   1.00
C1464  C     0.60514   0.95115   0.74030   0.00000  Uiso   1.00
C1465  C     0.89957   0.84425   0.17667   0.00000  Uiso   1.00
C1466  C     0.60152   0.65688   0.82318   0.00000  Uiso   1.00
C1467  C     0.65543   0.59986   0.82263   0.00000  Uiso   1.00
C1468  C     0.84675   0.90217   0.17716   0.00000  Uiso   1.00
C1469  C     0.54887   0.89488   0.74042   0.00000  Uiso   1.00
C1470  C     0.50007   0.74969   0.60168   0.00000  Uiso   1.00
C1471  C     0.90254   0.65285   0.17714   0.00000  Uiso   1.00
C1472  C     0.84449   0.90006   0.82258   0.00000  Uiso   1.00
C1473  C     0.65328   0.59788   0.17717   0.00000  Uiso   1.00
C1474  C     0.90102   0.65457   0.82269   0.00000  Uiso   1.00
C1475  C     0.59755   0.84706   0.17714   0.00000  Uiso   1.00
C1476  C     0.90457   0.65102   0.67731   0.00000  Uiso   1.00
C1477  C     0.59706   0.84754   0.32285   0.00000  Uiso   1.00
C1478  C     0.84986   0.90543   0.67737   0.00000  Uiso   1.00
C1479  C     0.65217   0.59675   0.32283   0.00000  Uiso   1.00
C1480  C     0.64488   0.79887   0.75958   0.00000  Uiso   1.00
C1481  C     0.75011   0.50003   0.39830   0.00000  Uiso   1.00
C1482  C     0.90285   0.65253   0.32285   0.00000  Uiso   1.00
C1483  C     0.65006   0.59449   0.67742   0.00000  Uiso   1.00
C1484  C     0.84788   0.90328   0.32283   0.00000  Uiso   1.00
C1485  C     0.90579   0.85044   0.32332   0.00000  Uiso   1.00
C1486  C     0.59304   0.64845   0.67688   0.00000  Uiso   1.00
C1487  C     0.85018   0.59447   0.32335   0.00000  Uiso   1.00
C1488  C     0.70115   0.85514   0.75969   0.00000  Uiso   1.00
C1489  C     0.59425   0.64957   0.32333   0.00000  Uiso   1.00
C1490  C     0.90688   0.85152   0.67681   0.00000  Uiso   1.00
C1491  C     0.64978   0.90557   0.32335   0.00000  Uiso   1.00
C1492  C     0.97020   0.73618   0.58158   0.00000  Uiso   1.00
C1493  C     0.75016   0.50005   0.60166   0.00000  Uiso   1.00
C1494  C     0.85102   0.59358   0.67680   0.00000  Uiso   1.00
C1495  C     0.75005   0.50016   0.89834   0.00000  Uiso   1.00
C1496  C     0.75003   0.50011   0.10170   0.00000  Uiso   1.00
C1497  C     0.99969   0.75007   0.89832   0.00000  Uiso   1.00
C1498  C     0.99992   0.75006   0.10166   0.00000  Uiso   1.00
C1499  C     0.93880   0.72133   0.47942   0.00000  Uiso   1.00
C1500  C     0.56121   0.77859   0.52068   0.00000  Uiso   1.00
C1501  C     0.78149   0.94018   0.47942   0.00000  Uiso   1.00
C1502  C     0.71778   0.55931   0.52053   0.00000  Uiso   1.00
C1503  C     0.56193   0.77711   0.47951   0.00000  Uiso   1.00
C1504  C     0.73532   0.52929   0.41835   0.00000  Uiso   1.00
C1505  C     0.93964   0.71963   0.52056   0.00000  Uiso   1.00
C1506  C     0.71951   0.56026   0.47938   0.00000  Uiso   1.00
C1507  C     0.78325   0.94118   0.52056   0.00000  Uiso   1.00
C1508  C     0.80931   0.96778   0.97947   0.00000  Uiso   1.00
C1509  C     0.69019   0.53149   0.02058   0.00000  Uiso   1.00
C1510  C     0.52855   0.81122   0.97932   0.00000  Uiso   1.00
C1511  C     0.97135   0.68879   0.02058   0.00000  Uiso   1.00
C1512  C     0.69118   0.53325   0.97944   0.00000  Uiso   1.00
C1513  C     0.81026   0.96951   0.02062   0.00000  Uiso   1.00
C1514  C     0.96964   0.68963   0.97944   0.00000  Uiso   1.00
C1515  C     0.76518   0.97091   0.58158   0.00000  Uiso   1.00
C1516  C     0.52708   0.81195   0.02049   0.00000  Uiso   1.00
C1517  C     0.75001   0.50000   0.35591   0.00000  Uiso   1.00
C1518  C     0.75003   0.50001   0.64408   0.00000  Uiso   1.00
C1519  C     0.50001   0.75003   0.35592   0.00000  Uiso   1.00
C1520  C     0.50000   0.74993   0.64408   0.00000  Uiso   1.00
C1521  C     0.99993   0.75000   0.85591   0.00000  Uiso   1.00
C1522  C     0.50003   0.75001   0.14408   0.00000  Uiso   1.00
C1523  C     0.75001   0.50003   0.85592   0.00000  Uiso   1.00
C1524  C     0.75000   0.50001   0.14409   0.00000  Uiso   1.00
C1525  C     0.68000   0.57000   0.25000   0.00000  Uiso   1.00
C1526  C     0.97031   0.73610   0.41840   0.00000  Uiso   1.00
C1527  C     0.81999   0.93001   0.75000   0.00000  Uiso   1.00
C1528  C     0.93000   0.68000   0.25000   0.00000  Uiso   1.00
C1529  C     0.56997   0.81997   0.75000   0.00000  Uiso   1.00
C1530  C     0.82000   0.93000   0.25000   0.00000  Uiso   1.00
C1531  C     0.68001   0.56999   0.75000   0.00000  Uiso   1.00
C1532  C     0.57000   0.82000   0.25000   0.00000  Uiso   1.00
C1533  C     0.93001   0.68001   0.75000   0.00000  Uiso   1.00
C1534  C     0.68003   0.93003   0.75000   0.00000  Uiso   1.00
C1535  C     0.81995   0.56995   0.25000   0.00000  Uiso   1.00
C1536  C     0.93006   0.81996   0.74998   0.00000  Uiso   1.00
C1537  C     0.53013   0.76282   0.58163   0.00000  Uiso   1.00
C1538  C     0.56995   0.68005   0.25000   0.00000  Uiso   1.00
C1539  C     0.81995   0.56995   0.75000   0.00000  Uiso   1.00
C1540  C     0.68005   0.93005   0.25000   0.00000  Uiso   1.00
C1541  C     0.56996   0.68006   0.75001   0.00000  Uiso   1.00
C1542  C     0.93005   0.81995   0.25000   0.00000  Uiso   1.00
C1543  C     0.63916   0.88803   0.21424   0.00000  Uiso   1.00
C1544  C     0.86051   0.61233   0.78574   0.00000  Uiso   1.00
C1545  C     0.61207   0.63926   0.21425   0.00000  Uiso   1.00
C1546  C     0.88733   0.86016   0.78569   0.00000  Uiso   1.00
C1547  C     0.86087   0.61194   0.21424   0.00000  Uiso   1.00
C1548  C     0.76508   0.97084   0.41836   0.00000  Uiso   1.00
C1549  C     0.61491   0.91222   0.74681   0.00000  Uiso   1.00
C1550  C     0.88793   0.86076   0.21424   0.00000  Uiso   1.00
C1551  C     0.61270   0.63986   0.78573   0.00000  Uiso   1.00
C1552  C     0.63922   0.61232   0.78559   0.00000  Uiso   1.00
C1553  C     0.86163   0.88849   0.21437   0.00000  Uiso   1.00
C1554  C     0.58779   0.88511   0.74684   0.00000  Uiso   1.00
C1555  C     0.88863   0.63821   0.21437   0.00000  Uiso   1.00
C1556  C     0.86075   0.88764   0.78556   0.00000  Uiso   1.00
C1557  C     0.63838   0.61153   0.21438   0.00000  Uiso   1.00
C1558  C     0.88807   0.63883   0.78560   0.00000  Uiso   1.00
C1559  C     0.73534   0.52931   0.58157   0.00000  Uiso   1.00
C1560  C     0.61140   0.86175   0.21437   0.00000  Uiso   1.00
C1561  C     0.88883   0.63807   0.71439   0.00000  Uiso   1.00
C1562  C     0.61175   0.86140   0.28563   0.00000  Uiso   1.00
C1563  C     0.86232   0.88922   0.71440   0.00000  Uiso   1.00
C1564  C     0.63849   0.61163   0.28563   0.00000  Uiso   1.00
C1565  C     0.63511   0.83779   0.75316   0.00000  Uiso   1.00
C1566  C     0.88821   0.63863   0.28563   0.00000  Uiso   1.00
C1567  C     0.63764   0.61075   0.71444   0.00000  Uiso   1.00
C1568  C     0.86153   0.88838   0.28562   0.00000  Uiso   1.00
C1569  C     0.88926   0.86207   0.28575   0.00000  Uiso   1.00
C1570  C     0.72091   0.51518   0.91842   0.00000  Uiso   1.00
C1571  C     0.61016   0.63733   0.71431   0.00000  Uiso   1.00
C1572  C     0.86194   0.61087   0.28576   0.00000  Uiso   1.00
C1573  C     0.66222   0.86491   0.75319   0.00000  Uiso   1.00
C1574  C     0.61076   0.63793   0.28576   0.00000  Uiso   1.00
C1575  C     0.88986   0.86270   0.71427   0.00000  Uiso   1.00
C1576  C     0.63803   0.88916   0.28576   0.00000  Uiso   1.00
C1577  C     0.86233   0.61050   0.71426   0.00000  Uiso   1.00
C1578  C     0.96947   0.73565   0.45914   0.00000  Uiso   1.00
C1579  C     0.53076   0.76376   0.54090   0.00000  Uiso   1.00
C1580  C     0.76565   0.97008   0.45911   0.00000  Uiso   1.00
H1581  H     0.55174   0.77484   0.40134   0.00000  Uiso   1.00
H1582  H     0.80068   0.97326   0.09879   0.00000  Uiso   1.00
H1583  H     0.91622   0.85012   0.87800   0.00000  Uiso   1.00
H1584  H     0.85263   0.58167   0.12221   0.00000  Uiso   1.00
H1585  H     0.61220   0.99641   0.70788   0.00000  Uiso   1.00
H1586  H     0.91786   0.85224   0.12212   0.00000  Uiso   1.00
H1587  H     0.58391   0.64963   0.87810   0.00000  Uiso   1.00
H1588  H     0.65345   0.56408   0.86682   0.00000  Uiso   1.00
H1589  H     0.84890   0.94087   0.13572   0.00000  Uiso   1.00
H1590  H     0.50372   0.88823   0.70776   0.00000  Uiso   1.00
H1591  H     0.94177   0.65079   0.13627   0.00000  Uiso   1.00
H1592  H     0.84697   0.93522   0.86730   0.00000  Uiso   1.00
H1593  H     0.97656   0.69754   0.90136   0.00000  Uiso   1.00
H1594  H     0.65102   0.55935   0.13558   0.00000  Uiso   1.00
H1595  H     0.93614   0.65083   0.86738   0.00000  Uiso   1.00
H1596  H     0.55831   0.84898   0.13626   0.00000  Uiso   1.00
H1597  H     0.90085   0.68615   0.63263   0.00000  Uiso   1.00
H1598  H     0.59903   0.80834   0.36376   0.00000  Uiso   1.00
H1599  H     0.81407   0.90346   0.63318   0.00000  Uiso   1.00
H1600  H     0.69087   0.59891   0.36428   0.00000  Uiso   1.00
H1601  H     0.63823   0.75371   0.79223   0.00000  Uiso   1.00
H1602  H     0.90078   0.69176   0.36373   0.00000  Uiso   1.00
H1603  H     0.68522   0.59697   0.63271   0.00000  Uiso   1.00
H1604  H     0.52482   0.80175   0.09866   0.00000  Uiso   1.00
H1605  H     0.80934   0.90102   0.36442   0.00000  Uiso   1.00
H1606  H     0.89783   0.83217   0.37789   0.00000  Uiso   1.00
H1607  H     0.60012   0.66622   0.62200   0.00000  Uiso   1.00
H1608  H     0.83167   0.60263   0.37779   0.00000  Uiso   1.00
H1609  H     0.74641   0.86220   0.79212   0.00000  Uiso   1.00
H1610  H     0.60224   0.66786   0.37788   0.00000  Uiso   1.00
H1611  H     0.89963   0.83392   0.62190   0.00000  Uiso   1.00
H1612  H     0.66823   0.89744   0.37781   0.00000  Uiso   1.00
H1613  H     0.83256   0.60090   0.62222   0.00000  Uiso   1.00
H1614  H     0.80133   0.97444   0.90132   0.00000  Uiso   1.00
H1615  H     0.69940   0.52700   0.09880   0.00000  Uiso   1.00
H1616  H     0.52243   0.80276   0.90123   0.00000  Uiso   1.00
H1617  H     0.97501   0.69840   0.09874   0.00000  Uiso   1.00
H1618  H     0.88448   0.66031   0.42754   0.00000  Uiso   1.00
H1619  H     0.93311   0.66644   0.42327   0.00000  Uiso   1.00
H1620  H     0.91384   0.65026   0.46804   0.00000  Uiso   1.00
H1621  H     0.94755   0.72654   0.59864   0.00000  Uiso   1.00
H1622  H     0.87987   0.71031   0.47483   0.00000  Uiso   1.00
H1623  H     0.89859   0.72669   0.43264   0.00000  Uiso   1.00
H1624  H     0.64213   0.78316   0.57375   0.00000  Uiso   1.00
H1625  H     0.60740   0.74852   0.57675   0.00000  Uiso   1.00
H1626  H     0.63282   0.75438   0.53254   0.00000  Uiso   1.00
H1627  H     0.60660   0.81785   0.52563   0.00000  Uiso   1.00
H1628  H     0.58179   0.81334   0.56757   0.00000  Uiso   1.00
H1629  H     0.84481   0.88881   0.42728   0.00000  Uiso   1.00
H1630  H     0.83618   0.93701   0.42267   0.00000  Uiso   1.00
H1631  H     0.85363   0.91893   0.46748   0.00000  Uiso   1.00
H1632  H     0.72326   0.55068   0.40120   0.00000  Uiso   1.00
H1633  H     0.79551   0.88188   0.47496   0.00000  Uiso   1.00
H1634  H     0.77780   0.89960   0.43287   0.00000  Uiso   1.00
H1635  H     0.74356   0.60760   0.57734   0.00000  Uiso   1.00
H1636  H     0.73671   0.63235   0.53288   0.00000  Uiso   1.00
H1637  H     0.70656   0.63969   0.57341   0.00000  Uiso   1.00
H1638  H     0.67525   0.60160   0.52508   0.00000  Uiso   1.00
H1639  H     0.68116   0.57693   0.56692   0.00000  Uiso   1.00
H1640  H     0.61751   0.83746   0.42828   0.00000  Uiso   1.00
H1641  H     0.56869   0.83271   0.42440   0.00000  Uiso   1.00
H1642  H     0.58878   0.84767   0.46925   0.00000  Uiso   1.00
H1643  H     0.77598   0.94882   0.59868   0.00000  Uiso   1.00
H1644  H     0.62110   0.78654   0.47472   0.00000  Uiso   1.00
H1645  H     0.60170   0.77146   0.43235   0.00000  Uiso   1.00
H1646  H     0.85887   0.71165   0.57347   0.00000  Uiso   1.00
H1647  H     0.89225   0.74753   0.57700   0.00000  Uiso   1.00
H1648  H     0.86720   0.74120   0.53265   0.00000  Uiso   1.00
H1649  H     0.89577   0.67871   0.52521   0.00000  Uiso   1.00
H1650  H     0.92055   0.68391   0.56707   0.00000  Uiso   1.00
H1651  H     0.65661   0.61243   0.42753   0.00000  Uiso   1.00
H1652  H     0.66449   0.56409   0.42303   0.00000  Uiso   1.00
H1653  H     0.64759   0.58255   0.46788   0.00000  Uiso   1.00
H1654  H     0.94841   0.72499   0.40125   0.00000  Uiso   1.00
H1655  H     0.70639   0.61875   0.47482   0.00000  Uiso   1.00
H1656  H     0.72346   0.60063   0.43264   0.00000  Uiso   1.00
H1657  H     0.79555   0.86073   0.57308   0.00000  Uiso   1.00
H1658  H     0.75809   0.89225   0.57716   0.00000  Uiso   1.00
H1659  H     0.76533   0.86786   0.53256   0.00000  Uiso   1.00
H1660  H     0.82645   0.89964   0.52517   0.00000  Uiso   1.00
H1661  H     0.81989   0.92396   0.56714   0.00000  Uiso   1.00
H1662  H     0.85759   0.99356   0.92266   0.00000  Uiso   1.00
H1663  H     0.88235   0.98671   0.96712   0.00000  Uiso   1.00
H1664  H     0.88969   0.95656   0.92658   0.00000  Uiso   1.00
H1665  H     0.55275   0.77245   0.59877   0.00000  Uiso   1.00
H1666  H     0.85159   0.92525   0.97492   0.00000  Uiso   1.00
H1667  H     0.82693   0.93116   0.93308   0.00000  Uiso   1.00
H1668  H     0.63882   0.59481   0.07272   0.00000  Uiso   1.00
H1669  H     0.68701   0.58618   0.07733   0.00000  Uiso   1.00
H1670  H     0.66893   0.60363   0.03252   0.00000  Uiso   1.00
H1671  H     0.63188   0.54551   0.02504   0.00000  Uiso   1.00
H1672  H     0.64961   0.52780   0.06713   0.00000  Uiso   1.00
H1673  H     0.53308   0.89215   0.92624   0.00000  Uiso   1.00
H1674  H     0.99847   0.85739   0.92324   0.00000  Uiso   1.00
H1675  H     0.50431   0.88282   0.96746   0.00000  Uiso   1.00
H1676  H     0.77700   0.94940   0.40120   0.00000  Uiso   1.00
H1677  H     0.56779   0.85664   0.97437   0.00000  Uiso   1.00
H1678  H     0.56329   0.83182   0.93243   0.00000  Uiso   1.00
H1679  H     0.91034   0.63446   0.07246   0.00000  Uiso   1.00
H1680  H     0.91645   0.68309   0.07673   0.00000  Uiso   1.00
H1681  H     0.90029   0.66380   0.03195   0.00000  Uiso   1.00
H1682  H     0.96035   0.62985   0.02517   0.00000  Uiso   1.00
H1683  H     0.97672   0.64858   0.06736   0.00000  Uiso   1.00
H1684  H     0.64225   0.50809   0.92284   0.00000  Uiso   1.00
H1685  H     0.61786   0.51533   0.96744   0.00000  Uiso   1.00
H1686  H     0.61073   0.54556   0.92692   0.00000  Uiso   1.00
H1687  H     0.72444   0.55133   0.59867   0.00000  Uiso   1.00
H1688  H     0.64964   0.57646   0.97483   0.00000  Uiso   1.00
H1689  H     0.67396   0.56989   0.93285   0.00000  Uiso   1.00
H1690  H     0.86243   0.90661   0.07247   0.00000  Uiso   1.00
H1691  H     0.81409   0.91449   0.07697   0.00000  Uiso   1.00
H1692  H     0.83255   0.89759   0.03212   0.00000  Uiso   1.00
H1693  H     0.86875   0.95639   0.02518   0.00000  Uiso   1.00
H1694  H     0.85063   0.97346   0.06736   0.00000  Uiso   1.00
H1695  H     0.96169   0.60886   0.92653   0.00000  Uiso   1.00
H1696  H     0.99757   0.64225   0.92300   0.00000  Uiso   1.00
H1697  H     0.99124   0.61720   0.96735   0.00000  Uiso   1.00
H1698  H     0.69882   0.52598   0.90132   0.00000  Uiso   1.00
H1699  H     0.92874   0.64575   0.97478   0.00000  Uiso   1.00
H1700  H     0.93393   0.67053   0.93293   0.00000  Uiso   1.00
H1701  H     0.58739   0.86755   0.07173   0.00000  Uiso   1.00
H1702  H     0.58268   0.81872   0.07559   0.00000  Uiso   1.00
H1703  H     0.59762   0.83885   0.03075   0.00000  Uiso   1.00
H1704  H     0.53648   0.87112   0.02528   0.00000  Uiso   1.00
H1705  H     0.52141   0.85171   0.06765   0.00000  Uiso   1.00
H1706  H     0.64744   0.91825   0.12219   0.00000  Uiso   1.00
H1707  H     0.85090   0.58255   0.87778   0.00000  Uiso   1.00
H1708  H     0.58218   0.64784   0.12211   0.00000  Uiso   1.00
O1709  O     0.75000   0.50000   0.25000   0.00000  Uiso   1.00
O1710  O     0.75000   0.96964   0.66245   0.00000  Uiso   1.00
O1711  O     0.81688   0.88796   0.33984   0.00000  Uiso   1.00
O1712  O     0.93893   0.85078   0.32739   0.00000  Uiso   1.00
O1713  O     0.88341   0.83931   0.35396   0.00000  Uiso   1.00
O1714  O     0.55984   0.64806   0.67341   0.00000  Uiso   1.00
O1715  O     0.61492   0.65927   0.64572   0.00000  Uiso   1.00
O1716  O     0.85057   0.56136   0.32759   0.00000  Uiso   1.00
O1717  O     0.83888   0.61696   0.35383   0.00000  Uiso   1.00
O1718  O     0.71693   0.83491   0.73706   0.00000  Uiso   1.00
O1719  O     0.71996   0.87021   0.79113   0.00000  Uiso   1.00
O1720  O     0.56112   0.64923   0.32742   0.00000  Uiso   1.00
O1721  O     0.96964   0.75000   0.33755   0.00000  Uiso   1.00
O1722  O     0.61665   0.66071   0.35395   0.00000  Uiso   1.00
O1723  O     0.94007   0.85167   0.67332   0.00000  Uiso   1.00
O1724  O     0.88490   0.84093   0.64564   0.00000  Uiso   1.00
O1725  O     0.64941   0.93869   0.32755   0.00000  Uiso   1.00
O1726  O     0.66103   0.88310   0.35386   0.00000  Uiso   1.00
O1727  O     0.85176   0.56042   0.67302   0.00000  Uiso   1.00
O1728  O     0.83959   0.61559   0.64599   0.00000  Uiso   1.00
O1729  O     0.53037   0.75000   0.66245   0.00000  Uiso   1.00
O1730  O     0.50000   0.71964   0.83755   0.00000  Uiso   1.00
O1731  O     0.50000   0.78037   0.16245   0.00000  Uiso   1.00
O1732  O     0.78037   0.50000   0.83755   0.00000  Uiso   1.00
O1733  O     0.71964   0.50000   0.16245   0.00000  Uiso   1.00
O1734  O     0.50000   0.78037   0.83755   0.00000  Uiso   1.00
O1735  O     0.50000   0.71964   0.16245   0.00000  Uiso   1.00
O1736  O     0.71964   0.50000   0.83755   0.00000  Uiso   1.00
O1737  O     0.75000   0.50000   0.75000   0.00000  Uiso   1.00
O1738  O     0.78037   0.50000   0.16245   0.00000  Uiso   1.00
O1739  O     0.70725   0.57308   0.27302   0.00000  Uiso   1.00
O1740  O     0.79276   0.92693   0.72698   0.00000  Uiso   1.00
O1741  O     0.92693   0.70725   0.27302   0.00000  Uiso   1.00
O1742  O     0.57308   0.79276   0.72698   0.00000  Uiso   1.00
O1743  O     0.79276   0.92693   0.27302   0.00000  Uiso   1.00
O1744  O     0.70725   0.57308   0.72698   0.00000  Uiso   1.00
O1745  O     0.57308   0.79276   0.27302   0.00000  Uiso   1.00
O1746  O     0.92693   0.70725   0.72698   0.00000  Uiso   1.00
O1747  O     0.70725   0.92693   0.72698   0.00000  Uiso   1.00
O1748  O     0.50000   0.75000   0.25000   0.00000  Uiso   1.00
O1749  O     0.79276   0.57308   0.27302   0.00000  Uiso   1.00
O1750  O     0.92693   0.79276   0.72698   0.00000  Uiso   1.00
O1751  O     0.57308   0.70725   0.27302   0.00000  Uiso   1.00
O1752  O     0.79276   0.57308   0.72698   0.00000  Uiso   1.00
O1753  O     0.70725   0.92693   0.27302   0.00000  Uiso   1.00
O1754  O     0.57308   0.70725   0.72698   0.00000  Uiso   1.00
O1755  O     0.92693   0.79276   0.27302   0.00000  Uiso   1.00
O1756  O     0.95725   0.82308   0.77302   0.00000  Uiso   1.00
O1757  O     0.54276   0.67693   0.22698   0.00000  Uiso   1.00
O1758  O     0.67693   0.95725   0.77302   0.00000  Uiso   1.00
O1759  O     0.50000   0.75000   0.75000   0.00000  Uiso   1.00
O1760  O     0.82308   0.54276   0.22698   0.00000  Uiso   1.00
O1761  O     0.54276   0.67693   0.77302   0.00000  Uiso   1.00
O1762  O     0.95725   0.82308   0.22698   0.00000  Uiso   1.00
O1763  O     0.82308   0.54276   0.77302   0.00000  Uiso   1.00
O1764  O     0.67693   0.95725   0.22698   0.00000  Uiso   1.00
O1765  O     0.95725   0.67693   0.22698   0.00000  Uiso   1.00
O1766  O     0.54276   0.82308   0.77302   0.00000  Uiso   1.00
O1767  O     0.67693   0.54276   0.22698   0.00000  Uiso   1.00
O1768  O     0.82308   0.95725   0.77302   0.00000  Uiso   1.00
O1769  O     0.54276   0.82308   0.22698   0.00000  Uiso   1.00
O1770  O     0.75000   0.96964   0.33755   0.00000  Uiso   1.00
O1771  O     0.95725   0.67693   0.77302   0.00000  Uiso   1.00
O1772  O     0.82308   0.95725   0.22698   0.00000  Uiso   1.00
O1773  O     0.67693   0.54276   0.77302   0.00000  Uiso   1.00
O1774  O     0.68869   0.89941   0.17245   0.00000  Uiso   1.00
O1775  O     0.63310   0.91104   0.14615   0.00000  Uiso   1.00
O1776  O     0.81042   0.60176   0.82698   0.00000  Uiso   1.00
O1777  O     0.86559   0.58958   0.85400   0.00000  Uiso   1.00
O1778  O     0.60078   0.68893   0.17260   0.00000  Uiso   1.00
O1779  O     0.58931   0.63341   0.14604   0.00000  Uiso   1.00
O1780  O     0.89805   0.80984   0.82659   0.00000  Uiso   1.00
O1781  O     0.75000   0.53037   0.66245   0.00000  Uiso   1.00
O1782  O     0.90927   0.86492   0.85428   0.00000  Uiso   1.00
O1783  O     0.81136   0.60057   0.17241   0.00000  Uiso   1.00
O1784  O     0.86696   0.58888   0.14617   0.00000  Uiso   1.00
O1785  O     0.58491   0.96692   0.76293   0.00000  Uiso   1.00
O1786  O     0.62022   0.96996   0.70887   0.00000  Uiso   1.00
O1787  O     0.89923   0.81112   0.17258   0.00000  Uiso   1.00
O1788  O     0.91071   0.86665   0.14605   0.00000  Uiso   1.00
O1789  O     0.60167   0.69007   0.82668   0.00000  Uiso   1.00
O1790  O     0.59092   0.63490   0.85436   0.00000  Uiso   1.00
O1791  O     0.68261   0.61494   0.83544   0.00000  Uiso   1.00
O1792  O     0.53037   0.75000   0.33755   0.00000  Uiso   1.00
O1793  O     0.63960   0.57063   0.84241   0.00000  Uiso   1.00
O1794  O     0.82133   0.88634   0.16158   0.00000  Uiso   1.00
O1795  O     0.86196   0.93331   0.16030   0.00000  Uiso   1.00
O1796  O     0.53302   0.91477   0.76334   0.00000  Uiso   1.00
O1797  O     0.53015   0.88018   0.70873   0.00000  Uiso   1.00
O1798  O     0.88660   0.67794   0.16108   0.00000  Uiso   1.00
O1799  O     0.93399   0.63780   0.16081   0.00000  Uiso   1.00
O1800  O     0.81659   0.88578   0.83467   0.00000  Uiso   1.00
O1801  O     0.86099   0.92848   0.84306   0.00000  Uiso   1.00
O1802  O     0.67883   0.61363   0.16174   0.00000  Uiso   1.00
O1803  O     0.96964   0.75000   0.66245   0.00000  Uiso   1.00
O1804  O     0.63795   0.56688   0.16016   0.00000  Uiso   1.00
O1805  O     0.88785   0.68301   0.83474   0.00000  Uiso   1.00
O1806  O     0.92881   0.63703   0.84318   0.00000  Uiso   1.00
O1807  O     0.61359   0.82205   0.16108   0.00000  Uiso   1.00
O1808  O     0.56604   0.86200   0.16080   0.00000  Uiso   1.00
O1809  O     0.93299   0.63782   0.66524   0.00000  Uiso   1.00
O1810  O     0.88706   0.67883   0.65683   0.00000  Uiso   1.00
O1811  O     0.57196   0.86351   0.33884   0.00000  Uiso   1.00
O1812  O     0.61207   0.81610   0.33924   0.00000  Uiso   1.00
O1813  O     0.86496   0.93259   0.66454   0.00000  Uiso   1.00
O1814  O     0.75000   0.53037   0.33755   0.00000  Uiso   1.00
O1815  O     0.82062   0.88961   0.65760   0.00000  Uiso   1.00
O1816  O     0.63634   0.57133   0.33841   0.00000  Uiso   1.00
O1817  O     0.68331   0.61196   0.33970   0.00000  Uiso   1.00
O1818  O     0.66477   0.78302   0.73667   0.00000  Uiso   1.00
O1819  O     0.63018   0.78015   0.79127   0.00000  Uiso   1.00
O1820  O     0.92795   0.63661   0.33890   0.00000  Uiso   1.00
O1821  O     0.88779   0.68397   0.33919   0.00000  Uiso   1.00
O1822  O     0.63578   0.56660   0.66532   0.00000  Uiso   1.00
O1823  O     0.67848   0.61099   0.65694   0.00000  Uiso   1.00
O1824  O     0.86363   0.92883   0.33826   0.00000  Uiso   1.00
Zn1825 Zn    0.70660   0.50000   0.21735   0.00000  Uiso   1.00
Zn1826 Zn    0.54341   0.75000   0.28265   0.00000  Uiso   1.00
Zn1827 Zn    0.75000   0.95660   0.71735   0.00000  Uiso   1.00
Zn1828 Zn    0.75000   0.54341   0.28265   0.00000  Uiso   1.00
Zn1829 Zn    0.54341   0.75000   0.71735   0.00000  Uiso   1.00
Zn1830 Zn    0.95660   0.75000   0.28265   0.00000  Uiso   1.00
Zn1831 Zn    0.75000   0.54341   0.71735   0.00000  Uiso   1.00
Zn1832 Zn    0.75000   0.95660   0.28265   0.00000  Uiso   1.00
Zn1833 Zn    0.79341   0.50000   0.78265   0.00000  Uiso   1.00
Zn1834 Zn    0.50000   0.70660   0.21735   0.00000  Uiso   1.00
Zn1835 Zn    0.50000   0.79341   0.78265   0.00000  Uiso   1.00
Zn1836 Zn    0.79341   0.50000   0.21735   0.00000  Uiso   1.00
Zn1837 Zn    0.70660   0.50000   0.78265   0.00000  Uiso   1.00
Zn1838 Zn    0.50000   0.79341   0.21735   0.00000  Uiso   1.00
Zn1839 Zn    0.50000   0.70660   0.78265   0.00000  Uiso   1.00
Zn1840 Zn    0.95660   0.75000   0.71735   0.00000  Uiso   1.00
loop_
_geom_bond_atom_site_label_1
_geom_bond_atom_site_label_2
_geom_bond_distance
_geom_bond_site_symmetry_2
_ccdc_geom_bond_type
C1     C79     1.388   .     A
C1     H201    1.077   .     S
C1     C4      1.405   .     A
C2     H202    1.077   .     S
C2     C14     1.405   .     A
C2     C1036   1.387   .     S
C3     C179    1.405   .     A
C3     C38     1.424   .     A
C3     C122    1.424   .     A
C4     C34     1.425   .     A
C4     C123    1.425   .     A
C5     C125    1.424   .     A
C5     C112    1.405   .     A
C5     C496    1.424   .     S
C6     C37     1.425   .     A
C6     C126    1.424   .     A
C6     C124    1.405   .     A
C7     C127    1.424   .     A
C7     C135    1.405   .     A
C7     C958    1.424   .     S
C8     C35     1.405   .     A
C8     C128    1.424   .     A
C8     C959    1.424   .     S
C9     C46     1.405   .     A
C9     C40     1.425   .     A
C9     C129    1.424   .     A
C10    C130    1.424   .     A
C10    C57     1.405   .     A
C10    C501    1.424   1_455 S
C11    C68     1.405   .     A
C11    C42     1.425   .     A
C11    C131    1.424   .     A
C12    C132    1.424   .     A
C12    C190    1.405   .     A
C12    C39     1.424   .     A
C13    H213    1.077   .     S
C13    C117    1.387   .     A
C13    C15     1.405   .     A
C14    C133    1.424   .     A
C14    C960    1.425   .     S
C15    C134    1.424   .     A
C15    C41     1.424   .     A
C16    C136    1.425   .     A
C16    C24     1.405   .     A
C16    C502    1.425   1_455 S
C17    C182    1.412   .     A
C17    C152    1.460   .     S
C17    C180    1.412   .     A
C18    C181    1.411   .     A
C18    C178    1.411   .     A
C18    C153    1.460   .     S
C19    C177    1.411   .     A
C19    C184    1.412   .     A
C19    C145    1.460   .     S
C20    C176    1.410   .     A
C20    C183    1.411   .     A
C20    C147    1.460   .     S
C21    C186    1.412   .     A
C21    C175    1.412   .     A
C21    C148    1.460   .     S
C22    C149    1.459   .     S
C22    C174    1.413   .     A
C22    C185    1.413   .     A
C23    C188    1.411   .     A
C23    C150    1.460   .     S
C23    C173    1.412   .     A
C24    H224    1.077   .     S
C24    C578    1.388   1_455 S
C25    C187    1.410   .     A
C25    C151    1.460   .     S
C25    C172    1.411   .     A
C26    C191    1.415   .     A
C26    C161    1.456   .     S
C26    C171    1.415   .     A
C27    C162    1.456   .     S
C27    C170    1.415   .     A
C27    C189    1.415   .     A
C28    C169    1.413   .     A
C28    C154    1.458   .     S
C28    C193    1.413   .     A
C29    C155    1.455   .     S
C29    C192    1.415   .     A
C29    C167    1.415   .     A
C30    C156    1.456   .     S
C30    C195    1.415   .     A
C30    C166    1.415   .     A
C31    C165    1.415   .     A
C31    C158    1.456   .     S
C31    C194    1.415   .     A
C32    C164    1.415   .     A
C32    C159    1.456   .     S
C32    C197    1.415   .     A
C33    C163    1.415   .     A
C33    C196    1.415   .     A
C33    C160    1.455   .     S
C34    C36     1.403   .     A
C34    C658    1.425   1_455 S
C35    H234    1.077   .     S
C35    C1035   1.387   .     S
C36    C199    1.424   .     A
C36    C465    1.424   1_455 S
C37    C38     1.403   .     A
C37    C1120   1.425   1_545 S
C38    C927    1.424   1_545 S
C39    C928    1.424   1_545 S
C39    C40     1.403   1_556 S
C40    C934    1.425   1_545 S
C40    C39     1.403   1_554 S
C41    C470    1.424   .     S
C41    C42     1.403   1_556 S
C42    C476    1.425   .     S
C42    C41     1.403   1_554 S
C43    C44     1.530   .     S
C43    H242    1.106   .     S
C43    C119    1.531   .     S
C43    H243    1.109   .     S
C44    H238    1.110   .     S
C44    H240    1.109   .     S
C44    H239    1.109   .     S
C45    C47     1.530   .     S
C45    C120    1.532   .     S
C45    H248    1.109   .     S
C45    H247    1.106   .     S
C46    H235    1.077   .     S
C46    C116    1.387   .     A
C47    H245    1.109   .     S
C47    H244    1.110   .     S
C47    H246    1.110   .     S
C48    H253    1.106   .     S
C48    C121    1.531   .     S
C48    H254    1.109   .     S
C48    C49     1.530   .     S
C49    H250    1.109   .     S
C49    H249    1.110   .     S
C49    H251    1.110   .     S
C50    H258    1.106   .     S
C50    C122    1.531   .     S
C50    C51     1.530   .     S
C50    H259    1.108   .     S
C51    H255    1.109   .     S
C51    H256    1.110   .     S
C51    H257    1.110   .     S
C52    H265    1.109   .     S
C52    H264    1.106   .     S
C52    C53     1.530   .     S
C52    C123    1.531   .     S
C53    H261    1.109   .     S
C53    H260    1.110   .     S
C53    H262    1.109   .     S
C54    H269    1.106   .     S
C54    C125    1.531   .     S
C54    C55     1.530   .     S
C54    H270    1.108   .     S
C55    H268    1.110   .     S
C55    H266    1.110   .     S
C55    H267    1.109   .     S
C56    C126    1.531   .     S
C56    H276    1.109   .     S
C56    C58     1.530   .     S
C56    H275    1.106   .     S
C57    H236    1.078   .     S
C57    C577    1.387   1_455 S
C58    H272    1.109   .     S
C58    H273    1.109   .     S
C58    H271    1.110   .     S
C59    H280    1.106   .     S
C59    C60     1.530   .     S
C59    C127    1.531   .     S
C59    H281    1.108   .     S
C60    H277    1.110   .     S
C60    H278    1.109   .     S
C60    H279    1.109   .     S
C61    H286    1.106   .     S
C61    C62     1.530   .     S
C61    C128    1.531   .     S
C61    H287    1.108   .     S
C62    H284    1.110   .     S
C62    H283    1.110   .     S
C62    H282    1.109   .     S
C63    H292    1.109   .     S
C63    C64     1.530   .     S
C63    C129    1.531   .     S
C63    H291    1.106   .     S
C64    H288    1.110   .     S
C64    H290    1.110   .     S
C64    H289    1.109   .     S
C65    H297    1.106   .     S
C65    C130    1.532   .     S
C65    H298    1.109   .     S
C65    C66     1.530   .     S
C66    H295    1.110   .     S
C66    H293    1.110   .     S
C66    H754    1.109   1_455 S
C67    H303    1.109   .     S
C67    H302    1.106   .     S
C67    C69     1.530   .     S
C67    C131    1.531   .     S
C68    C118    1.387   .     A
C68    H237    1.077   .     S
C69    H301    1.109   .     S
C69    H300    1.109   .     S
C69    H299    1.110   .     S
C70    H309    1.108   .     S
C70    C132    1.531   .     S
C70    C71     1.530   .     S
C70    H308    1.106   .     S
C71    H306    1.110   .     S
C71    H304    1.109   .     S
C71    H305    1.109   .     S
C72    H313    1.106   .     S
C72    C73     1.530   .     S
C72    C133    1.531   .     S
C72    H314    1.109   .     S
C73    H310    1.110   .     S
C73    H312    1.109   .     S
C73    H311    1.109   .     S
C74    C134    1.531   .     S
C74    H320    1.108   .     S
C74    H319    1.106   .     S
C74    C75     1.530   .     S
C75    H317    1.110   .     S
C75    H315    1.110   .     S
C75    H316    1.109   .     S
C76    H324    1.106   .     S
C76    C136    1.531   .     S
C76    H325    1.109   .     S
C76    C77     1.530   .     S
C77    H321    1.110   .     S
C77    H323    1.109   .     S
C77    H322    1.109   .     S
C78    C163    1.492   .     S
C78    O395    1.398   .     S
C78    O394    1.223   .     D
C79    C139    1.462   .     S
C79    C606    1.387   1_455 S
C80    O396    1.223   .     D
C80    O397    1.398   .     S
C80    C164    1.491   .     S
C81    O398    1.223   .     D
C81    O399    1.398   .     S
C81    C165    1.492   .     S
C82    O402    1.398   .     S
C82    C166    1.491   .     S
C82    O400    1.223   .     D
C83    O404    1.398   .     S
C83    C167    1.492   .     S
C83    O403    1.223   .     D
C84    O406    1.398   .     S
C84    O405    1.222   .     D
C84    C169    1.489   .     S
C85    O408    1.398   .     S
C85    O407    1.223   .     D
C85    C170    1.492   .     S
C86    O409    1.223   .     D
C86    O410    1.398   .     S
C86    C171    1.492   .     S
C87    O411    1.222   .     D
C87    C172    1.480   .     S
C87    O413    1.397   .     S
C88    C173    1.481   .     S
C88    O415    1.397   .     S
C88    O414    1.222   .     D
C89    C174    1.488   .     S
C89    O417    1.398   .     S
C89    O416    1.222   .     D
C90    C140    1.462   .     S
C90    C157    1.387   .     A
C90    C572    1.387   1_455 S
C91    O419    1.397   .     S
C91    C175    1.481   .     S
C91    O418    1.222   .     D
C92    C176    1.480   .     S
C92    O420    1.222   .     D
C92    O421    1.396   .     S
C93    C177    1.481   .     S
C93    O422    1.222   .     D
C93    O424    1.397   .     S
C94    C178    1.481   .     S
C94    O425    1.222   .     D
C94    O426    1.397   .     S
C95    O427    1.222   .     D
C95    C180    1.481   .     S
C95    O428    1.397   .     S
C96    O430    1.397   .     S
C96    C181    1.481   .     S
C96    O429    1.222   .     D
C97    O432    1.397   .     S
C97    C182    1.481   .     S
C97    O431    1.222   .     D
C98    C183    1.480   .     S
C98    O435    1.397   .     S
C98    O433    1.222   .     D
C99    O437    1.397   .     S
C99    C184    1.481   .     S
C99    O436    1.222   .     D
C100   O439    1.398   .     S
C100   C185    1.488   .     S
C100   O438    1.222   .     D
C101   C137    1.461   .     S
C101   C124    1.387   .     A
C101   C1088   1.387   1_545 S
C102   C186    1.481   .     S
C102   O440    1.222   .     D
C102   O441    1.397   .     S
C103   C187    1.480   .     S
C103   O442    1.222   .     D
C103   O443    1.396   .     S
C104   C188    1.481   .     S
C104   O331    1.397   .     S
C104   O444    1.222   .     D
C105   C189    1.492   .     S
C105   O333    1.398   .     S
C105   O332    1.223   .     D
C106   O334    1.223   .     D
C106   O335    1.398   .     S
C106   C191    1.491   .     S
C107   C192    1.492   .     S
C107   O336    1.223   .     D
C107   O337    1.398   .     S
C108   O339    1.398   .     S
C108   O338    1.222   .     D
C108   C193    1.489   .     S
C109   O340    1.223   .     D
C109   C194    1.492   .     S
C109   O342    1.398   .     S
C110   C195    1.492   .     S
C110   O343    1.223   .     D
C110   O344    1.398   .     S
C111   O345    1.223   .     D
C111   C196    1.492   .     S
C111   O346    1.398   .     S
C112   H241    1.077   .     S
C112   C550    1.387   .     S
C113   C179    1.387   .     A
C113   C138    1.462   .     S
C113   C1055   1.387   1_545 S
C114   C197    1.491   .     S
C114   O347    1.223   .     D
C114   O348    1.398   .     S
C115   C190    1.387   .     A
C115   C143    1.462   .     S
C115   C955    1.387   1_545 S
C116   C144    1.461   .     S
C116   C922    1.387   1_545 S
C117   C141    1.462   .     S
C117   C517    1.387   .     S
C118   C484    1.388   .     S
C118   C602    1.462   .     S
C119   C198    1.425   .     A
C119   C125    1.420   .     A
C120   C199    1.424   .     A
C120   C123    1.420   .     A
C121   C127    1.420   .     A
C121   C200    1.424   .     A
C122   C126    1.420   .     A
C124   H252    1.077   .     S
C128   C133    1.420   1_556 S
C129   C132    1.420   1_554 S
C130   C136    1.420   1_556 S
C131   C134    1.420   1_554 S
C132   C129    1.420   1_556 S
C133   C128    1.420   1_554 S
C134   C131    1.420   1_556 S
C135   H263    1.077   .     S
C135   C1033   1.387   .     S
C136   C130    1.420   1_554 S
C137   O434    1.281   .     A
C137   O1310   1.281   1_545 S
C138   O401    1.281   .     A
C138   O1250   1.281   1_545 S
C139   O412    1.281   .     A
C139   O801    1.281   1_455 S
C140   O349    1.281   .     A
C140   O883    1.281   1_455 S
C141   O814    1.281   .     A
C141   O810    1.281   .     S
C142   C578    1.462   1_455 S
C142   O351    1.281   .     S
C142   O355    1.281   .     S
C143   O352    1.281   .     A
C143   O356    1.281   .     A
C144   O353    1.281   .     A
C144   O358    1.281   .     A
C145   O359    1.281   .     A
C145   O387    1.281   .     A
C146   H274    1.077   .     S
C146   C198    1.405   .     A
C146   C539    1.387   .     S
C147   O360    1.280   .     A
C147   O388    1.281   .     A
C148   O361    1.281   .     A
C148   O385    1.281   .     A
C149   O362    1.280   .     A
C149   O386    1.280   .     A
C150   O392    1.281   .     A
C150   O363    1.281   .     A
C151   O393    1.280   .     A
C151   O364    1.281   .     A
C152   O389    1.281   .     A
C152   O365    1.281   .     A
C153   O391    1.280   .     A
C153   O366    1.280   .     A
C154   O367    1.280   .     A
C154   O378    1.280   .     A
C155   O369    1.280   .     A
C155   O380    1.280   .     A
C156   O376    1.279   .     A
C156   O370    1.280   .     A
C157   C199    1.405   .     A
C157   H285    1.078   .     S
C158   O377    1.279   .     A
C158   O371    1.280   .     A
C159   O383    1.280   .     A
C159   O372    1.280   .     A
C160   O373    1.279   .     A
C160   O384    1.279   .     A
C161   O381    1.280   .     A
C161   O374    1.279   .     A
C162   O382    1.280   .     A
C162   O375    1.279   .     A
C163   C180    1.401   .     A
C164   C178    1.402   .     A
C165   C177    1.402   .     A
C166   C176    1.402   .     A
C167   C175    1.401   .     A
C168   C200    1.405   .     A
C168   H296    1.077   .     S
C168   C1021   1.387   .     S
C169   C174    1.406   .     A
C170   C173    1.402   .     A
C171   C172    1.402   .     A
C179   H307    1.077   .     S
C181   C197    1.402   .     A
C182   C196    1.401   .     A
C183   C195    1.402   .     A
C184   C194    1.402   .     A
C185   C193    1.406   .     A
C186   C192    1.401   .     A
C187   C191    1.402   .     A
C188   C189    1.402   .     A
C190   H318    1.077   .     S
C198   C494    1.425   .     S
C200   C957    1.425   .     S
H203   O402    1.014   .     S
H204   O404    1.014   .     S
H205   O406    1.014   .     S
H206   O408    1.014   .     S
H207   O410    1.014   .     S
H208   O413    1.012   .     S
H209   O415    1.012   .     S
H210   O417    1.014   .     S
H211   O419    1.012   .     S
H212   O421    1.012   .     S
H214   O424    1.012   .     S
H215   O426    1.012   .     S
H216   O428    1.012   .     S
H217   O430    1.012   .     S
H218   O432    1.012   .     S
H219   O435    1.012   .     S
H220   O437    1.012   .     S
H221   O439    1.014   .     S
H222   O441    1.012   .     S
H223   O443    1.012   .     S
H225   O331    1.012   .     S
H226   O333    1.014   .     S
H227   O335    1.014   .     S
H228   O337    1.014   .     S
H229   O339    1.014   .     S
H230   O342    1.014   .     S
H231   O344    1.014   .     S
H232   O346    1.014   .     S
H233   O348    1.014   .     S
H294   C526    1.109   .     S
H326   O395    1.014   .     S
H327   O397    1.014   .     S
H328   O399    1.014   .     S
O329   Zn448   1.949   .     S
O329   Zn456   1.949   .     S
O329   Zn445   1.949   .     S
O329   Zn1372  1.949   1_545 S
O330   Zn447   1.952   .     S
O330   C1058   1.281   .     S
O341   Zn450   1.952   .     S
O341   C599    1.281   .     S
O349   Zn449   1.952   .     S
O350   Zn459   1.952   .     S
O350   C601    1.281   1_455 S
O351   Zn458   1.952   .     S
O352   Zn453   1.952   .     S
O353   Zn445   1.952   .     S
O354   C601    1.281   1_455 A
O354   Zn455   1.952   .     S
O355   Zn454   1.952   .     S
O356   Zn457   1.952   .     S
O357   Zn451   1.949   .     S
O357   Zn457   1.949   .     S
O357   Zn453   1.949   .     S
O357   Zn1367  1.949   1_545 S
O358   Zn456   1.952   .     S
O359   Zn448   1.937   .     S
O360   Zn447   1.937   .     S
O361   Zn450   1.937   .     S
O362   Zn449   1.937   .     S
O363   Zn452   1.937   .     S
O364   Zn451   1.937   .     S
O365   Zn446   1.937   .     S
O366   Zn460   1.937   .     S
O367   Zn447   1.937   .     S
O368   Zn458   1.949   .     S
O368   Zn454   1.949   .     S
O368   Zn446   1.949   .     S
O368   Zn910   1.949   1_455 S
O369   Zn448   1.937   .     S
O370   Zn460   1.937   .     S
O371   Zn446   1.937   .     S
O372   Zn451   1.937   .     S
O373   Zn452   1.937   .     S
O374   Zn449   1.937   .     S
O375   Zn450   1.937   .     S
O376   Zn915   1.937   .     S
O377   Zn454   1.937   .     S
O378   Zn1377  1.937   .     S
O379   Zn459   1.949   .     S
O379   Zn455   1.949   .     S
O379   Zn449   1.949   .     S
O379   Zn920   1.949   1_455 S
O380   Zn456   1.937   .     S
O381   Zn459   1.937   .     S
O382   Zn918   1.937   .     S
O383   Zn453   1.937   .     S
O384   Zn1365  1.937   .     S
O385   Zn914   1.937   .     S
O386   Zn455   1.937   .     S
O387   Zn445   1.937   .     S
O388   Zn1373  1.937   .     S
O389   Zn458   1.937   .     S
O390   Zn452   1.952   .     S
O390   C1057   1.281   .     S
O391   Zn919   1.937   .     S
O392   Zn1376  1.937   .     S
O393   Zn457   1.937   .     S
O401   Zn451   1.952   .     S
O412   Zn446   1.952   .     S
O423   Zn460   1.952   .     S
O423   C600    1.281   .     S
O434   Zn448   1.952   .     S
Zn445  O1304   1.937   1_545 S
Zn447  O1277   1.949   .     S
Zn450  O828    1.949   .     S
Zn452  O1249   1.949   .     S
Zn453  O1308   1.937   1_545 S
Zn454  O845    1.937   1_455 S
Zn455  O836    1.937   1_455 S
Zn456  O1312   1.937   1_545 S
Zn457  O1298   1.937   1_545 S
Zn458  O842    1.937   1_455 S
Zn459  O851    1.937   1_455 S
Zn460  O839    1.949   .     S
C461   C539    1.388   .     A
C461   H661    1.077   .     S
C461   C464    1.405   .     A
C462   H662    1.077   .     S
C462   C474    1.405   .     A
C462   C1496   1.387   .     S
C463   C639    1.405   .     A
C463   C498    1.424   .     A
C463   C582    1.424   .     A
C464   C494    1.425   .     A
C464   C583    1.425   .     A
C465   C585    1.424   .     A
C465   C572    1.405   .     A
C465   C36     1.424   1_655 S
C466   C497    1.425   .     A
C466   C586    1.424   .     A
C466   C584    1.405   .     A
C467   C587    1.424   .     A
C467   C595    1.405   .     A
C467   C1418   1.424   .     S
C468   C495    1.405   .     A
C468   C588    1.424   .     A
C468   C1419   1.424   .     S
C469   C506    1.405   .     A
C469   C500    1.425   .     A
C469   C589    1.424   .     A
C470   C590    1.424   .     A
C470   C517    1.405   .     A
C471   C528    1.405   .     A
C471   C502    1.425   .     A
C471   C591    1.424   .     A
C472   C592    1.424   .     A
C472   C650    1.405   .     A
C472   C499    1.424   .     A
C473   H673    1.077   .     S
C473   C577    1.387   .     A
C473   C475    1.405   .     A
C474   C593    1.424   .     A
C474   C1420   1.425   .     S
C475   C594    1.424   .     A
C475   C501    1.424   .     A
C476   C596    1.425   .     A
C476   C484    1.405   .     A
C477   C642    1.412   .     A
C477   C612    1.460   .     S
C477   C640    1.412   .     A
C478   C641    1.411   .     A
C478   C638    1.411   .     A
C478   C613    1.460   .     S
C479   C637    1.411   .     A
C479   C644    1.412   .     A
C479   C605    1.460   .     S
C480   C636    1.410   .     A
C480   C643    1.411   .     A
C480   C607    1.460   .     S
C481   C646    1.412   .     A
C481   C635    1.412   .     A
C481   C608    1.460   .     S
C482   C609    1.459   .     S
C482   C634    1.413   .     A
C482   C645    1.413   .     A
C483   C648    1.411   .     A
C483   C610    1.460   .     S
C483   C633    1.412   .     A
C484   H684    1.077   .     S
C485   C647    1.410   .     A
C485   C611    1.460   .     S
C485   C632    1.411   .     A
C486   C651    1.415   .     A
C486   C621    1.456   .     S
C486   C631    1.415   .     A
C487   C622    1.456   .     S
C487   C630    1.415   .     A
C487   C649    1.415   .     A
C488   C629    1.413   .     A
C488   C614    1.458   .     S
C488   C653    1.413   .     A
C489   C615    1.455   .     S
C489   C652    1.415   .     A
C489   C627    1.415   .     A
C490   C616    1.456   .     S
C490   C655    1.415   .     A
C490   C626    1.415   .     A
C491   C625    1.415   .     A
C491   C618    1.456   .     S
C491   C654    1.415   .     A
C492   C624    1.415   .     A
C492   C619    1.456   .     S
C492   C657    1.415   .     A
C493   C623    1.415   .     A
C493   C656    1.415   .     A
C493   C620    1.455   .     S
C494   C496    1.403   .     A
C495   H694    1.077   .     S
C495   C1495   1.387   .     S
C496   C659    1.424   .     A
C497   C498    1.403   .     A
C497   C1580   1.425   1_545 S
C498   C1387   1.424   1_545 S
C499   C1388   1.424   1_545 S
C499   C500    1.403   1_556 S
C500   C1394   1.425   1_545 S
C500   C499    1.403   1_554 S
C501   C10     1.424   1_655 S
C501   C502    1.403   1_556 S
C502   C16     1.425   1_655 S
C502   C501    1.403   1_554 S
C503   C504    1.530   .     S
C503   H702    1.106   .     S
C503   C579    1.531   .     S
C503   H703    1.109   .     S
C504   H698    1.110   .     S
C504   H700    1.109   .     S
C504   H699    1.109   .     S
C505   C507    1.530   .     S
C505   C580    1.532   .     S
C505   H708    1.109   .     S
C505   H707    1.106   .     S
C506   H695    1.077   .     S
C506   C576    1.387   .     A
C507   H705    1.109   .     S
C507   H704    1.110   .     S
C507   H706    1.110   .     S
C508   H713    1.106   .     S
C508   C581    1.531   .     S
C508   H714    1.109   .     S
C508   C509    1.530   .     S
C509   H710    1.109   .     S
C509   H709    1.110   .     S
C509   H711    1.110   .     S
C510   H718    1.106   .     S
C510   C582    1.531   .     S
C510   C511    1.530   .     S
C510   H719    1.108   .     S
C511   H715    1.109   .     S
C511   H716    1.110   .     S
C511   H717    1.110   .     S
C512   H725    1.109   .     S
C512   H724    1.106   .     S
C512   C513    1.530   .     S
C512   C583    1.531   .     S
C513   H721    1.109   .     S
C513   H720    1.110   .     S
C513   H722    1.109   .     S
C514   H729    1.106   .     S
C514   C585    1.531   .     S
C514   C515    1.530   .     S
C514   H730    1.108   .     S
C515   H728    1.110   .     S
C515   H726    1.110   .     S
C515   H727    1.109   .     S
C516   C586    1.531   .     S
C516   H736    1.109   .     S
C516   C518    1.530   .     S
C516   H735    1.106   .     S
C517   H696    1.078   .     S
C518   H732    1.109   .     S
C518   H733    1.109   .     S
C518   H731    1.110   .     S
C519   H740    1.106   .     S
C519   C520    1.530   .     S
C519   C587    1.531   .     S
C519   H741    1.108   .     S
C520   H737    1.110   .     S
C520   H738    1.109   .     S
C520   H739    1.109   .     S
C521   H746    1.106   .     S
C521   C522    1.530   .     S
C521   C588    1.531   .     S
C521   H747    1.108   .     S
C522   H744    1.110   .     S
C522   H743    1.110   .     S
C522   H742    1.109   .     S
C523   H752    1.109   .     S
C523   C524    1.530   .     S
C523   C589    1.531   .     S
C523   H751    1.106   .     S
C524   H748    1.110   .     S
C524   H750    1.110   .     S
C524   H749    1.109   .     S
C525   H757    1.106   .     S
C525   C590    1.532   .     S
C525   H758    1.109   .     S
C525   C526    1.530   .     S
C526   H755    1.110   .     S
C526   H753    1.110   .     S
C527   H763    1.109   .     S
C527   H762    1.106   .     S
C527   C529    1.530   .     S
C527   C591    1.531   .     S
C528   C578    1.387   .     A
C528   H697    1.077   .     S
C529   H761    1.109   .     S
C529   H760    1.109   .     S
C529   H759    1.110   .     S
C530   H769    1.108   .     S
C530   C592    1.531   .     S
C530   C531    1.530   .     S
C530   H768    1.106   .     S
C531   H766    1.110   .     S
C531   H764    1.109   .     S
C531   H765    1.109   .     S
C532   H773    1.106   .     S
C532   C533    1.530   .     S
C532   C593    1.531   .     S
C532   H774    1.109   .     S
C533   H770    1.110   .     S
C533   H772    1.109   .     S
C533   H771    1.109   .     S
C534   C594    1.531   .     S
C534   H780    1.108   .     S
C534   H779    1.106   .     S
C534   C535    1.530   .     S
C535   H777    1.110   .     S
C535   H775    1.110   .     S
C535   H776    1.109   .     S
C536   H784    1.106   .     S
C536   C596    1.531   .     S
C536   H785    1.109   .     S
C536   C537    1.530   .     S
C537   H781    1.110   .     S
C537   H783    1.109   .     S
C537   H782    1.109   .     S
C538   C623    1.492   .     S
C538   O855    1.398   .     S
C538   O854    1.223   .     D
C539   C599    1.462   .     S
C540   O856    1.223   .     D
C540   O857    1.398   .     S
C540   C624    1.491   .     S
C541   O858    1.223   .     D
C541   O859    1.398   .     S
C541   C625    1.492   .     S
C542   O862    1.398   .     S
C542   C626    1.491   .     S
C542   O860    1.223   .     D
C543   O864    1.398   .     S
C543   C627    1.492   .     S
C543   O863    1.223   .     D
C544   O866    1.398   .     S
C544   O865    1.222   .     D
C544   C629    1.489   .     S
C545   O868    1.398   .     S
C545   O867    1.223   .     D
C545   C630    1.492   .     S
C546   O869    1.223   .     D
C546   O870    1.398   .     S
C546   C631    1.492   .     S
C547   O871    1.222   .     D
C547   C632    1.480   .     S
C547   O873    1.397   .     S
C548   C633    1.481   .     S
C548   O875    1.397   .     S
C548   O874    1.222   .     D
C549   C634    1.488   .     S
C549   O877    1.398   .     S
C549   O876    1.222   .     D
C550   C600    1.462   .     S
C550   C617    1.387   .     A
C551   O879    1.397   .     S
C551   C635    1.481   .     S
C551   O878    1.222   .     D
C552   C636    1.480   .     S
C552   O880    1.222   .     D
C552   O881    1.396   .     S
C553   C637    1.481   .     S
C553   O882    1.222   .     D
C553   O884    1.397   .     S
C554   C638    1.481   .     S
C554   O885    1.222   .     D
C554   O886    1.397   .     S
C555   O887    1.222   .     D
C555   C640    1.481   .     S
C555   O888    1.397   .     S
C556   O890    1.397   .     S
C556   C641    1.481   .     S
C556   O889    1.222   .     D
C557   O892    1.397   .     S
C557   C642    1.481   .     S
C557   O891    1.222   .     D
C558   C643    1.480   .     S
C558   O895    1.397   .     S
C558   O893    1.222   .     D
C559   O897    1.397   .     S
C559   C644    1.481   .     S
C559   O896    1.222   .     D
C560   O899    1.398   .     S
C560   C645    1.488   .     S
C560   O898    1.222   .     D
C561   C597    1.461   .     S
C561   C584    1.387   .     A
C561   C1548   1.387   1_545 S
C562   C646    1.481   .     S
C562   O900    1.222   .     D
C562   O901    1.397   .     S
C563   C647    1.480   .     S
C563   O902    1.222   .     D
C563   O903    1.396   .     S
C564   C648    1.481   .     S
C564   O791    1.397   .     S
C564   O904    1.222   .     D
C565   C649    1.492   .     S
C565   O793    1.398   .     S
C565   O792    1.223   .     D
C566   O794    1.223   .     D
C566   O795    1.398   .     S
C566   C651    1.491   .     S
C567   C652    1.492   .     S
C567   O796    1.223   .     D
C567   O797    1.398   .     S
C568   O799    1.398   .     S
C568   O798    1.222   .     D
C568   C653    1.489   .     S
C569   O800    1.223   .     D
C569   C654    1.492   .     S
C569   O802    1.398   .     S
C570   C655    1.492   .     S
C570   O803    1.223   .     D
C570   O804    1.398   .     S
C571   O805    1.223   .     D
C571   C656    1.492   .     S
C571   O806    1.398   .     S
C572   H701    1.077   .     S
C572   C90     1.387   1_655 S
C573   C639    1.387   .     A
C573   C598    1.462   .     S
C573   C1515   1.387   1_545 S
C574   C657    1.491   .     S
C574   O807    1.223   .     D
C574   O808    1.398   .     S
C575   C650    1.387   .     A
C575   C603    1.462   .     S
C575   C1415   1.387   1_545 S
C576   C604    1.461   .     S
C576   C1382   1.387   1_545 S
C577   C601    1.462   .     S
C577   C57     1.387   1_655 S
C578   C24     1.388   1_655 S
C578   C142    1.462   1_655 S
C579   C658    1.425   .     A
C579   C585    1.420   .     A
C580   C659    1.424   .     A
C580   C583    1.420   .     A
C581   C587    1.420   .     A
C581   C660    1.424   .     A
C582   C586    1.420   .     A
C584   H712    1.077   .     S
C588   C593    1.420   1_556 S
C589   C592    1.420   1_554 S
C590   C596    1.420   1_556 S
C591   C594    1.420   1_554 S
C592   C589    1.420   1_556 S
C593   C588    1.420   1_554 S
C594   C591    1.420   1_556 S
C595   H723    1.077   .     S
C595   C1493   1.387   .     S
C596   C590    1.420   1_554 S
C597   O894    1.281   .     A
C597   O1770   1.281   1_545 S
C598   O861    1.281   .     A
C598   O1710   1.281   1_545 S
C599   O872    1.281   .     A
C600   O809    1.281   .     A
C601   O354    1.281   1_655 A
C601   O350    1.281   1_655 S
C602   O811    1.281   .     S
C602   O815    1.281   .     S
C603   O812    1.281   .     A
C603   O816    1.281   .     A
C604   O813    1.281   .     A
C604   O818    1.281   .     A
C605   O819    1.281   .     A
C605   O847    1.281   .     A
C606   H734    1.077   .     S
C606   C658    1.405   .     A
C606   C79     1.387   1_655 S
C607   O820    1.280   .     A
C607   O848    1.281   .     A
C608   O821    1.281   .     A
C608   O845    1.281   .     A
C609   O822    1.280   .     A
C609   O846    1.280   .     A
C610   O852    1.281   .     A
C610   O823    1.281   .     A
C611   O853    1.280   .     A
C611   O824    1.281   .     A
C612   O849    1.281   .     A
C612   O825    1.281   .     A
C613   O851    1.280   .     A
C613   O826    1.280   .     A
C614   O827    1.280   .     A
C614   O838    1.280   .     A
C615   O829    1.280   .     A
C615   O840    1.280   .     A
C616   O836    1.279   .     A
C616   O830    1.280   .     A
C617   C659    1.405   .     A
C617   H745    1.078   .     S
C618   O837    1.279   .     A
C618   O831    1.280   .     A
C619   O843    1.280   .     A
C619   O832    1.280   .     A
C620   O833    1.279   .     A
C620   O844    1.279   .     A
C621   O841    1.280   .     A
C621   O834    1.279   .     A
C622   O842    1.280   .     A
C622   O835    1.279   .     A
C623   C640    1.401   .     A
C624   C638    1.402   .     A
C625   C637    1.402   .     A
C626   C636    1.402   .     A
C627   C635    1.401   .     A
C628   C660    1.405   .     A
C628   H756    1.077   .     S
C628   C1481   1.387   .     S
C629   C634    1.406   .     A
C630   C633    1.402   .     A
C631   C632    1.402   .     A
C639   H767    1.077   .     S
C641   C657    1.402   .     A
C642   C656    1.401   .     A
C643   C655    1.402   .     A
C644   C654    1.402   .     A
C645   C653    1.406   .     A
C646   C652    1.401   .     A
C647   C651    1.402   .     A
C648   C649    1.402   .     A
C650   H778    1.077   .     S
C658   C34     1.425   1_655 S
C660   C1417   1.425   .     S
H663   O862    1.014   .     S
H664   O864    1.014   .     S
H665   O866    1.014   .     S
H666   O868    1.014   .     S
H667   O870    1.014   .     S
H668   O873    1.012   .     S
H669   O875    1.012   .     S
H670   O877    1.014   .     S
H671   O879    1.012   .     S
H672   O881    1.012   .     S
H674   O884    1.012   .     S
H675   O886    1.012   .     S
H676   O888    1.012   .     S
H677   O890    1.012   .     S
H678   O892    1.012   .     S
H679   O895    1.012   .     S
H680   O897    1.012   .     S
H681   O899    1.014   .     S
H682   O901    1.012   .     S
H683   O903    1.012   .     S
H685   O791    1.012   .     S
H686   O793    1.014   .     S
H687   O795    1.014   .     S
H688   O797    1.014   .     S
H689   O799    1.014   .     S
H690   O802    1.014   .     S
H691   O804    1.014   .     S
H692   O806    1.014   .     S
H693   O808    1.014   .     S
H754   C66     1.109   1_655 S
H786   O855    1.014   .     S
H787   O857    1.014   .     S
H788   O859    1.014   .     S
O789   Zn908   1.949   .     S
O789   Zn916   1.949   .     S
O789   Zn905   1.949   .     S
O789   Zn1832  1.949   1_545 S
O790   Zn907   1.952   .     S
O790   C1518   1.281   .     S
O801   Zn910   1.952   .     S
O801   C139    1.281   1_655 S
O809   Zn909   1.952   .     S
O810   Zn919   1.952   .     S
O811   Zn918   1.952   .     S
O812   Zn913   1.952   .     S
O813   Zn905   1.952   .     S
O814   Zn915   1.952   .     S
O815   Zn914   1.952   .     S
O816   Zn917   1.952   .     S
O817   Zn911   1.949   .     S
O817   Zn917   1.949   .     S
O817   Zn913   1.949   .     S
O817   Zn1827  1.949   1_545 S
O818   Zn916   1.952   .     S
O819   Zn908   1.937   .     S
O820   Zn907   1.937   .     S
O821   Zn910   1.937   .     S
O822   Zn909   1.937   .     S
O823   Zn912   1.937   .     S
O824   Zn911   1.937   .     S
O825   Zn906   1.937   .     S
O826   Zn920   1.937   .     S
O827   Zn907   1.937   .     S
O828   Zn918   1.949   .     S
O828   Zn914   1.949   .     S
O828   Zn906   1.949   .     S
O829   Zn908   1.937   .     S
O830   Zn920   1.937   .     S
O831   Zn906   1.937   .     S
O832   Zn911   1.937   .     S
O833   Zn912   1.937   .     S
O834   Zn909   1.937   .     S
O835   Zn910   1.937   .     S
O836   Zn455   1.937   1_655 S
O837   Zn914   1.937   .     S
O838   Zn1837  1.937   .     S
O839   Zn919   1.949   .     S
O839   Zn915   1.949   .     S
O839   Zn909   1.949   .     S
O840   Zn916   1.937   .     S
O841   Zn919   1.937   .     S
O842   Zn458   1.937   1_655 S
O843   Zn913   1.937   .     S
O844   Zn1825  1.937   .     S
O845   Zn454   1.937   1_655 S
O846   Zn915   1.937   .     S
O847   Zn905   1.937   .     S
O848   Zn1833  1.937   .     S
O849   Zn918   1.937   .     S
O850   Zn912   1.952   .     S
O850   C1517   1.281   .     S
O851   Zn459   1.937   1_655 S
O852   Zn1836  1.937   .     S
O853   Zn917   1.937   .     S
O861   Zn911   1.952   .     S
O872   Zn906   1.952   .     S
O883   Zn920   1.952   .     S
O883   C140    1.281   1_655 S
O894   Zn908   1.952   .     S
Zn905  O1764   1.937   1_545 S
Zn907  O1737   1.949   .     S
Zn910  O368    1.949   1_655 S
Zn912  O1709   1.949   .     S
Zn913  O1768   1.937   1_545 S
Zn916  O1772   1.937   1_545 S
Zn917  O1758   1.937   1_545 S
Zn920  O379    1.949   1_655 S
C921   C999    1.388   .     A
C921   H1121   1.077   .     S
C921   C924    1.405   .     A
C922   H1122   1.077   .     S
C922   C934    1.405   .     A
C922   C116    1.387   1_565 S
C923   C1099   1.405   .     A
C923   C958    1.424   .     A
C923   C1042   1.424   .     A
C924   C954    1.425   .     A
C924   C1043   1.425   .     A
C925   C1045   1.424   .     A
C925   C1032   1.405   .     A
C925   C1416   1.424   .     S
C926   C957    1.425   .     A
C926   C1046   1.424   .     A
C926   C1044   1.405   .     A
C927   C1047   1.424   .     A
C927   C1055   1.405   .     A
C927   C38     1.424   1_565 S
C928   C955    1.405   .     A
C928   C1048   1.424   .     A
C928   C39     1.424   1_565 S
C929   C966    1.405   .     A
C929   C960    1.425   .     A
C929   C1049   1.424   .     A
C930   C1050   1.424   .     A
C930   C977    1.405   .     A
C930   C1421   1.424   1_455 S
C931   C988    1.405   .     A
C931   C962    1.425   .     A
C931   C1051   1.424   .     A
C932   C1052   1.424   .     A
C932   C1110   1.405   .     A
C932   C959    1.424   .     A
C933   H1133   1.077   .     S
C933   C1037   1.387   .     A
C933   C935    1.405   .     A
C934   C1053   1.424   .     A
C934   C40     1.425   1_565 S
C935   C1054   1.424   .     A
C935   C961    1.424   .     A
C936   C1056   1.425   .     A
C936   C944    1.405   .     A
C936   C1422   1.425   1_455 S
C937   C1102   1.412   .     A
C937   C1072   1.460   .     S
C937   C1100   1.412   .     A
C938   C1101   1.411   .     A
C938   C1098   1.411   .     A
C938   C1073   1.460   .     S
C939   C1097   1.411   .     A
C939   C1104   1.412   .     A
C939   C1065   1.460   .     S
C940   C1096   1.410   .     A
C940   C1103   1.411   .     A
C940   C1067   1.460   .     S
C941   C1106   1.412   .     A
C941   C1095   1.412   .     A
C941   C1068   1.460   .     S
C942   C1069   1.459   .     S
C942   C1094   1.413   .     A
C942   C1105   1.413   .     A
C943   C1108   1.411   .     A
C943   C1070   1.460   .     S
C943   C1093   1.412   .     A
C944   H1144   1.077   .     S
C944   C1498   1.388   1_455 S
C945   C1107   1.410   .     A
C945   C1071   1.460   .     S
C945   C1092   1.411   .     A
C946   C1111   1.415   .     A
C946   C1081   1.456   .     S
C946   C1091   1.415   .     A
C947   C1082   1.456   .     S
C947   C1090   1.415   .     A
C947   C1109   1.415   .     A
C948   C1089   1.413   .     A
C948   C1074   1.458   .     S
C948   C1113   1.413   .     A
C949   C1075   1.455   .     S
C949   C1112   1.415   .     A
C949   C1087   1.415   .     A
C950   C1076   1.456   .     S
C950   C1115   1.415   .     A
C950   C1086   1.415   .     A
C951   C1085   1.415   .     A
C951   C1078   1.456   .     S
C951   C1114   1.415   .     A
C952   C1084   1.415   .     A
C952   C1079   1.456   .     S
C952   C1117   1.415   .     A
C953   C1083   1.415   .     A
C953   C1116   1.415   .     A
C953   C1080   1.455   .     S
C954   C956    1.403   .     A
C954   C1578   1.425   1_455 S
C955   H1154   1.077   .     S
C955   C115    1.387   1_565 S
C956   C1119   1.424   .     A
C956   C1385   1.424   1_455 S
C957   C958    1.403   .     A
C959   C960    1.403   1_556 S
C960   C959    1.403   1_554 S
C961   C1390   1.424   .     S
C961   C962    1.403   1_556 S
C962   C1396   1.425   .     S
C962   C961    1.403   1_554 S
C963   C964    1.530   .     S
C963   H1162   1.106   .     S
C963   C1039   1.531   .     S
C963   H1163   1.109   .     S
C964   H1158   1.110   .     S
C964   H1160   1.109   .     S
C964   H1159   1.109   .     S
C965   C967    1.530   .     S
C965   C1040   1.532   .     S
C965   H1168   1.109   .     S
C965   H1167   1.106   .     S
C966   H1155   1.077   .     S
C966   C1036   1.387   .     A
C967   H1165   1.109   .     S
C967   H1164   1.110   .     S
C967   H1166   1.110   .     S
C968   H1173   1.106   .     S
C968   C1041   1.531   .     S
C968   H1174   1.109   .     S
C968   C969    1.530   .     S
C969   H1170   1.109   .     S
C969   H1169   1.110   .     S
C969   H1171   1.110   .     S
C970   H1178   1.106   .     S
C970   C1042   1.531   .     S
C970   C971    1.530   .     S
C970   H1179   1.108   .     S
C971   H1175   1.109   .     S
C971   H1176   1.110   .     S
C971   H1177   1.110   .     S
C972   H1185   1.109   .     S
C972   H1184   1.106   .     S
C972   C973    1.530   .     S
C972   C1043   1.531   .     S
C973   H1181   1.109   .     S
C973   H1180   1.110   .     S
C973   H1182   1.109   .     S
C974   H1189   1.106   .     S
C974   C1045   1.531   .     S
C974   C975    1.530   .     S
C974   H1190   1.108   .     S
C975   H1188   1.110   .     S
C975   H1186   1.110   .     S
C975   H1187   1.109   .     S
C976   C1046   1.531   .     S
C976   H1196   1.109   .     S
C976   C978    1.530   .     S
C976   H1195   1.106   .     S
C977   H1156   1.078   .     S
C977   C1497   1.387   1_455 S
C978   H1192   1.109   .     S
C978   H1193   1.109   .     S
C978   H1191   1.110   .     S
C979   H1200   1.106   .     S
C979   C980    1.530   .     S
C979   C1047   1.531   .     S
C979   H1201   1.108   .     S
C980   H1197   1.110   .     S
C980   H1198   1.109   .     S
C980   H1199   1.109   .     S
C981   H1206   1.106   .     S
C981   C982    1.530   .     S
C981   C1048   1.531   .     S
C981   H1207   1.108   .     S
C982   H1204   1.110   .     S
C982   H1203   1.110   .     S
C982   H1202   1.109   .     S
C983   H1212   1.109   .     S
C983   C984    1.530   .     S
C983   C1049   1.531   .     S
C983   H1211   1.106   .     S
C984   H1208   1.110   .     S
C984   H1210   1.110   .     S
C984   H1209   1.109   .     S
C985   H1217   1.106   .     S
C985   C1050   1.532   .     S
C985   H1218   1.109   .     S
C985   C986    1.530   .     S
C986   H1215   1.110   .     S
C986   H1213   1.110   .     S
C986   H1674   1.109   1_455 S
C987   H1223   1.109   .     S
C987   H1222   1.106   .     S
C987   C989    1.530   .     S
C987   C1051   1.531   .     S
C988   C1038   1.387   .     A
C988   H1157   1.077   .     S
C989   H1221   1.109   .     S
C989   H1220   1.109   .     S
C989   H1219   1.110   .     S
C990   H1229   1.108   .     S
C990   C1052   1.531   .     S
C990   C991    1.530   .     S
C990   H1228   1.106   .     S
C991   H1226   1.110   .     S
C991   H1224   1.109   .     S
C991   H1225   1.109   .     S
C992   H1233   1.106   .     S
C992   C993    1.530   .     S
C992   C1053   1.531   .     S
C992   H1234   1.109   .     S
C993   H1230   1.110   .     S
C993   H1232   1.109   .     S
C993   H1231   1.109   .     S
C994   C1054   1.531   .     S
C994   H1240   1.108   .     S
C994   H1239   1.106   .     S
C994   C995    1.530   .     S
C995   H1237   1.110   .     S
C995   H1235   1.110   .     S
C995   H1236   1.109   .     S
C996   H1244   1.106   .     S
C996   C1056   1.531   .     S
C996   H1245   1.109   .     S
C996   C997    1.530   .     S
C997   H1241   1.110   .     S
C997   H1243   1.109   .     S
C997   H1242   1.109   .     S
C998   C1083   1.492   .     S
C998   O1315   1.398   .     S
C998   O1314   1.223   .     D
C999   C1059   1.462   .     S
C999   C1526   1.387   1_455 S
C1000  O1316   1.223   .     D
C1000  O1317   1.398   .     S
C1000  C1084   1.491   .     S
C1001  O1318   1.223   .     D
C1001  O1319   1.398   .     S
C1001  C1085   1.492   .     S
C1002  O1322   1.398   .     S
C1002  C1086   1.491   .     S
C1002  O1320   1.223   .     D
C1003  O1324   1.398   .     S
C1003  C1087   1.492   .     S
C1003  O1323   1.223   .     D
C1004  O1326   1.398   .     S
C1004  O1325   1.222   .     D
C1004  C1089   1.489   .     S
C1005  O1328   1.398   .     S
C1005  O1327   1.223   .     D
C1005  C1090   1.492   .     S
C1006  O1329   1.223   .     D
C1006  O1330   1.398   .     S
C1006  C1091   1.492   .     S
C1007  O1331   1.222   .     D
C1007  C1092   1.480   .     S
C1007  O1333   1.397   .     S
C1008  C1093   1.481   .     S
C1008  O1335   1.397   .     S
C1008  O1334   1.222   .     D
C1009  C1094   1.488   .     S
C1009  O1337   1.398   .     S
C1009  O1336   1.222   .     D
C1010  C1060   1.462   .     S
C1010  C1077   1.387   .     A
C1010  C1492   1.387   1_455 S
C1011  O1339   1.397   .     S
C1011  C1095   1.481   .     S
C1011  O1338   1.222   .     D
C1012  C1096   1.480   .     S
C1012  O1340   1.222   .     D
C1012  O1341   1.396   .     S
C1013  C1097   1.481   .     S
C1013  O1342   1.222   .     D
C1013  O1344   1.397   .     S
C1014  C1098   1.481   .     S
C1014  O1345   1.222   .     D
C1014  O1346   1.397   .     S
C1015  O1347   1.222   .     D
C1015  C1100   1.481   .     S
C1015  O1348   1.397   .     S
C1016  O1350   1.397   .     S
C1016  C1101   1.481   .     S
C1016  O1349   1.222   .     D
C1017  O1352   1.397   .     S
C1017  C1102   1.481   .     S
C1017  O1351   1.222   .     D
C1018  C1103   1.480   .     S
C1018  O1355   1.397   .     S
C1018  O1353   1.222   .     D
C1019  O1357   1.397   .     S
C1019  C1104   1.481   .     S
C1019  O1356   1.222   .     D
C1020  O1359   1.398   .     S
C1020  C1105   1.488   .     S
C1020  O1358   1.222   .     D
C1021  C1057   1.461   .     S
C1021  C1044   1.387   .     A
C1022  C1106   1.481   .     S
C1022  O1360   1.222   .     D
C1022  O1361   1.397   .     S
C1023  C1107   1.480   .     S
C1023  O1362   1.222   .     D
C1023  O1363   1.396   .     S
C1024  C1108   1.481   .     S
C1024  O1251   1.397   .     S
C1024  O1364   1.222   .     D
C1025  C1109   1.492   .     S
C1025  O1253   1.398   .     S
C1025  O1252   1.223   .     D
C1026  O1254   1.223   .     D
C1026  O1255   1.398   .     S
C1026  C1111   1.491   .     S
C1027  C1112   1.492   .     S
C1027  O1256   1.223   .     D
C1027  O1257   1.398   .     S
C1028  O1259   1.398   .     S
C1028  O1258   1.222   .     D
C1028  C1113   1.489   .     S
C1029  O1260   1.223   .     D
C1029  C1114   1.492   .     S
C1029  O1262   1.398   .     S
C1030  C1115   1.492   .     S
C1030  O1263   1.223   .     D
C1030  O1264   1.398   .     S
C1031  O1265   1.223   .     D
C1031  C1116   1.492   .     S
C1031  O1266   1.398   .     S
C1032  H1161   1.077   .     S
C1032  C1470   1.387   .     S
C1033  C1099   1.387   .     A
C1033  C1058   1.462   .     S
C1034  C1117   1.491   .     S
C1034  O1267   1.223   .     D
C1034  O1268   1.398   .     S
C1035  C1110   1.387   .     A
C1035  C1063   1.462   .     S
C1036  C1064   1.461   .     S
C1037  C1061   1.462   .     S
C1037  C1437   1.387   .     S
C1038  C1404   1.388   .     S
C1038  C1522   1.462   .     S
C1039  C1118   1.425   .     A
C1039  C1045   1.420   .     A
C1040  C1119   1.424   .     A
C1040  C1043   1.420   .     A
C1041  C1047   1.420   .     A
C1041  C1120   1.424   .     A
C1042  C1046   1.420   .     A
C1044  H1172   1.077   .     S
C1048  C1053   1.420   1_556 S
C1049  C1052   1.420   1_554 S
C1050  C1056   1.420   1_556 S
C1051  C1054   1.420   1_554 S
C1052  C1049   1.420   1_556 S
C1053  C1048   1.420   1_554 S
C1054  C1051   1.420   1_556 S
C1055  H1183   1.077   .     S
C1055  C113    1.387   1_565 S
C1056  C1050   1.420   1_554 S
C1057  O1354   1.281   .     A
C1058  O1321   1.281   .     A
C1059  O1332   1.281   .     A
C1059  O1721   1.281   1_455 S
C1060  O1269   1.281   .     A
C1060  O1803   1.281   1_455 S
C1061  O1734   1.281   .     A
C1061  O1730   1.281   .     S
C1062  C1498   1.462   1_455 S
C1062  O1271   1.281   .     S
C1062  O1275   1.281   .     S
C1063  O1272   1.281   .     A
C1063  O1276   1.281   .     A
C1064  O1273   1.281   .     A
C1064  O1278   1.281   .     A
C1065  O1279   1.281   .     A
C1065  O1307   1.281   .     A
C1066  H1194   1.077   .     S
C1066  C1118   1.405   .     A
C1066  C1459   1.387   .     S
C1067  O1280   1.280   .     A
C1067  O1308   1.281   .     A
C1068  O1281   1.281   .     A
C1068  O1305   1.281   .     A
C1069  O1282   1.280   .     A
C1069  O1306   1.280   .     A
C1070  O1312   1.281   .     A
C1070  O1283   1.281   .     A
C1071  O1313   1.280   .     A
C1071  O1284   1.281   .     A
C1072  O1309   1.281   .     A
C1072  O1285   1.281   .     A
C1073  O1311   1.280   .     A
C1073  O1286   1.280   .     A
C1074  O1287   1.280   .     A
C1074  O1298   1.280   .     A
C1075  O1289   1.280   .     A
C1075  O1300   1.280   .     A
C1076  O1296   1.279   .     A
C1076  O1290   1.280   .     A
C1077  C1119   1.405   .     A
C1077  H1205   1.078   .     S
C1078  O1297   1.279   .     A
C1078  O1291   1.280   .     A
C1079  O1303   1.280   .     A
C1079  O1292   1.280   .     A
C1080  O1293   1.279   .     A
C1080  O1304   1.279   .     A
C1081  O1301   1.280   .     A
C1081  O1294   1.279   .     A
C1082  O1302   1.280   .     A
C1082  O1295   1.279   .     A
C1083  C1100   1.401   .     A
C1084  C1098   1.402   .     A
C1085  C1097   1.402   .     A
C1086  C1096   1.402   .     A
C1087  C1095   1.401   .     A
C1088  C1120   1.405   .     A
C1088  H1216   1.077   .     S
C1088  C101    1.387   1_565 S
C1089  C1094   1.406   .     A
C1090  C1093   1.402   .     A
C1091  C1092   1.402   .     A
C1099  H1227   1.077   .     S
C1101  C1117   1.402   .     A
C1102  C1116   1.401   .     A
C1103  C1115   1.402   .     A
C1104  C1114   1.402   .     A
C1105  C1113   1.406   .     A
C1106  C1112   1.401   .     A
C1107  C1111   1.402   .     A
C1108  C1109   1.402   .     A
C1110  H1238   1.077   .     S
C1118  C1414   1.425   .     S
C1120  C37     1.425   1_565 S
H1123  O1322   1.014   .     S
H1124  O1324   1.014   .     S
H1125  O1326   1.014   .     S
H1126  O1328   1.014   .     S
H1127  O1330   1.014   .     S
H1128  O1333   1.012   .     S
H1129  O1335   1.012   .     S
H1130  O1337   1.014   .     S
H1131  O1339   1.012   .     S
H1132  O1341   1.012   .     S
H1134  O1344   1.012   .     S
H1135  O1346   1.012   .     S
H1136  O1348   1.012   .     S
H1137  O1350   1.012   .     S
H1138  O1352   1.012   .     S
H1139  O1355   1.012   .     S
H1140  O1357   1.012   .     S
H1141  O1359   1.014   .     S
H1142  O1361   1.012   .     S
H1143  O1363   1.012   .     S
H1145  O1251   1.012   .     S
H1146  O1253   1.014   .     S
H1147  O1255   1.014   .     S
H1148  O1257   1.014   .     S
H1149  O1259   1.014   .     S
H1150  O1262   1.014   .     S
H1151  O1264   1.014   .     S
H1152  O1266   1.014   .     S
H1153  O1268   1.014   .     S
H1214  C1446   1.109   .     S
H1246  O1315   1.014   .     S
H1247  O1317   1.014   .     S
H1248  O1319   1.014   .     S
O1249  Zn1368  1.949   .     S
O1249  Zn1376  1.949   .     S
O1249  Zn1365  1.949   .     S
O1250  Zn1367  1.952   .     S
O1250  C138    1.281   1_565 S
O1261  Zn1370  1.952   .     S
O1261  C1519   1.281   .     S
O1269  Zn1369  1.952   .     S
O1270  Zn1379  1.952   .     S
O1270  C1521   1.281   1_455 S
O1271  Zn1378  1.952   .     S
O1272  Zn1373  1.952   .     S
O1273  Zn1365  1.952   .     S
O1274  C1521   1.281   1_455 A
O1274  Zn1375  1.952   .     S
O1275  Zn1374  1.952   .     S
O1276  Zn1377  1.952   .     S
O1277  Zn1371  1.949   .     S
O1277  Zn1377  1.949   .     S
O1277  Zn1373  1.949   .     S
O1278  Zn1376  1.952   .     S
O1279  Zn1368  1.937   .     S
O1280  Zn1367  1.937   .     S
O1281  Zn1370  1.937   .     S
O1282  Zn1369  1.937   .     S
O1283  Zn1372  1.937   .     S
O1284  Zn1371  1.937   .     S
O1285  Zn1366  1.937   .     S
O1286  Zn1380  1.937   .     S
O1287  Zn1367  1.937   .     S
O1288  Zn1378  1.949   .     S
O1288  Zn1374  1.949   .     S
O1288  Zn1366  1.949   .     S
O1288  Zn1830  1.949   1_455 S
O1289  Zn1368  1.937   .     S
O1290  Zn1380  1.937   .     S
O1291  Zn1366  1.937   .     S
O1292  Zn1371  1.937   .     S
O1293  Zn1372  1.937   .     S
O1294  Zn1369  1.937   .     S
O1295  Zn1370  1.937   .     S
O1296  Zn1835  1.937   .     S
O1297  Zn1374  1.937   .     S
O1298  Zn457   1.937   1_565 S
O1299  Zn1379  1.949   .     S
O1299  Zn1375  1.949   .     S
O1299  Zn1369  1.949   .     S
O1299  Zn1840  1.949   1_455 S
O1300  Zn1376  1.937   .     S
O1301  Zn1379  1.937   .     S
O1302  Zn1838  1.937   .     S
O1303  Zn1373  1.937   .     S
O1304  Zn445   1.937   1_565 S
O1305  Zn1834  1.937   .     S
O1306  Zn1375  1.937   .     S
O1307  Zn1365  1.937   .     S
O1308  Zn453   1.937   1_565 S
O1309  Zn1378  1.937   .     S
O1310  Zn1372  1.952   .     S
O1310  C137    1.281   1_565 S
O1311  Zn1839  1.937   .     S
O1312  Zn456   1.937   1_565 S
O1313  Zn1377  1.937   .     S
O1321  Zn1371  1.952   .     S
O1332  Zn1366  1.952   .     S
O1343  Zn1380  1.952   .     S
O1343  C1520   1.281   .     S
O1354  Zn1368  1.952   .     S
Zn1367 O357    1.949   1_565 S
Zn1370 O1748   1.949   .     S
Zn1372 O329    1.949   1_565 S
Zn1374 O1765   1.937   1_455 S
Zn1375 O1756   1.937   1_455 S
Zn1378 O1762   1.937   1_455 S
Zn1379 O1771   1.937   1_455 S
Zn1380 O1759   1.949   .     S
C1381  C1459   1.388   .     A
C1381  H1581   1.077   .     S
C1381  C1384   1.405   .     A
C1382  H1582   1.077   .     S
C1382  C1394   1.405   .     A
C1382  C576    1.387   1_565 S
C1383  C1559   1.405   .     A
C1383  C1418   1.424   .     A
C1383  C1502   1.424   .     A
C1384  C1414   1.425   .     A
C1384  C1503   1.425   .     A
C1385  C1505   1.424   .     A
C1385  C1492   1.405   .     A
C1385  C956    1.424   1_655 S
C1386  C1417   1.425   .     A
C1386  C1506   1.424   .     A
C1386  C1504   1.405   .     A
C1387  C1507   1.424   .     A
C1387  C1515   1.405   .     A
C1387  C498    1.424   1_565 S
C1388  C1415   1.405   .     A
C1388  C1508   1.424   .     A
C1388  C499    1.424   1_565 S
C1389  C1426   1.405   .     A
C1389  C1420   1.425   .     A
C1389  C1509   1.424   .     A
C1390  C1510   1.424   .     A
C1390  C1437   1.405   .     A
C1391  C1448   1.405   .     A
C1391  C1422   1.425   .     A
C1391  C1511   1.424   .     A
C1392  C1512   1.424   .     A
C1392  C1570   1.405   .     A
C1392  C1419   1.424   .     A
C1393  H1593   1.077   .     S
C1393  C1497   1.387   .     A
C1393  C1395   1.405   .     A
C1394  C1513   1.424   .     A
C1394  C500    1.425   1_565 S
C1395  C1514   1.424   .     A
C1395  C1421   1.424   .     A
C1396  C1516   1.425   .     A
C1396  C1404   1.405   .     A
C1397  C1562   1.412   .     A
C1397  C1532   1.460   .     S
C1397  C1560   1.412   .     A
C1398  C1561   1.411   .     A
C1398  C1558   1.411   .     A
C1398  C1533   1.460   .     S
C1399  C1557   1.411   .     A
C1399  C1564   1.412   .     A
C1399  C1525   1.460   .     S
C1400  C1556   1.410   .     A
C1400  C1563   1.411   .     A
C1400  C1527   1.460   .     S
C1401  C1566   1.412   .     A
C1401  C1555   1.412   .     A
C1401  C1528   1.460   .     S
C1402  C1529   1.459   .     S
C1402  C1554   1.413   .     A
C1402  C1565   1.413   .     A
C1403  C1568   1.411   .     A
C1403  C1530   1.460   .     S
C1403  C1553   1.412   .     A
C1404  H1604   1.077   .     S
C1405  C1567   1.410   .     A
C1405  C1531   1.460   .     S
C1405  C1552   1.411   .     A
C1406  C1571   1.415   .     A
C1406  C1541   1.456   .     S
C1406  C1551   1.415   .     A
C1407  C1542   1.456   .     S
C1407  C1550   1.415   .     A
C1407  C1569   1.415   .     A
C1408  C1549   1.413   .     A
C1408  C1534   1.458   .     S
C1408  C1573   1.413   .     A
C1409  C1535   1.455   .     S
C1409  C1572   1.415   .     A
C1409  C1547   1.415   .     A
C1410  C1536   1.456   .     S
C1410  C1575   1.415   .     A
C1410  C1546   1.415   .     A
C1411  C1545   1.415   .     A
C1411  C1538   1.456   .     S
C1411  C1574   1.415   .     A
C1412  C1544   1.415   .     A
C1412  C1539   1.456   .     S
C1412  C1577   1.415   .     A
C1413  C1543   1.415   .     A
C1413  C1576   1.415   .     A
C1413  C1540   1.455   .     S
C1414  C1416   1.403   .     A
C1415  H1614   1.077   .     S
C1415  C575    1.387   1_565 S
C1416  C1579   1.424   .     A
C1417  C1418   1.403   .     A
C1419  C1420   1.403   1_556 S
C1420  C1419   1.403   1_554 S
C1421  C930    1.424   1_655 S
C1421  C1422   1.403   1_556 S
C1422  C936    1.425   1_655 S
C1422  C1421   1.403   1_554 S
C1423  C1424   1.530   .     S
C1423  H1622   1.106   .     S
C1423  C1499   1.531   .     S
C1423  H1623   1.109   .     S
C1424  H1618   1.110   .     S
C1424  H1620   1.109   .     S
C1424  H1619   1.109   .     S
C1425  C1427   1.530   .     S
C1425  C1500   1.532   .     S
C1425  H1628   1.109   .     S
C1425  H1627   1.106   .     S
C1426  H1615   1.077   .     S
C1426  C1496   1.387   .     A
C1427  H1625   1.109   .     S
C1427  H1624   1.110   .     S
C1427  H1626   1.110   .     S
C1428  H1633   1.106   .     S
C1428  C1501   1.531   .     S
C1428  H1634   1.109   .     S
C1428  C1429   1.530   .     S
C1429  H1630   1.109   .     S
C1429  H1629   1.110   .     S
C1429  H1631   1.110   .     S
C1430  H1638   1.106   .     S
C1430  C1502   1.531   .     S
C1430  C1431   1.530   .     S
C1430  H1639   1.108   .     S
C1431  H1635   1.109   .     S
C1431  H1636   1.110   .     S
C1431  H1637   1.110   .     S
C1432  H1645   1.109   .     S
C1432  H1644   1.106   .     S
C1432  C1433   1.530   .     S
C1432  C1503   1.531   .     S
C1433  H1641   1.109   .     S
C1433  H1640   1.110   .     S
C1433  H1642   1.109   .     S
C1434  H1649   1.106   .     S
C1434  C1505   1.531   .     S
C1434  C1435   1.530   .     S
C1434  H1650   1.108   .     S
C1435  H1648   1.110   .     S
C1435  H1646   1.110   .     S
C1435  H1647   1.109   .     S
C1436  C1506   1.531   .     S
C1436  H1656   1.109   .     S
C1436  C1438   1.530   .     S
C1436  H1655   1.106   .     S
C1437  H1616   1.078   .     S
C1438  H1652   1.109   .     S
C1438  H1653   1.109   .     S
C1438  H1651   1.110   .     S
C1439  H1660   1.106   .     S
C1439  C1440   1.530   .     S
C1439  C1507   1.531   .     S
C1439  H1661   1.108   .     S
C1440  H1657   1.110   .     S
C1440  H1658   1.109   .     S
C1440  H1659   1.109   .     S
C1441  H1666   1.106   .     S
C1441  C1442   1.530   .     S
C1441  C1508   1.531   .     S
C1441  H1667   1.108   .     S
C1442  H1664   1.110   .     S
C1442  H1663   1.110   .     S
C1442  H1662   1.109   .     S
C1443  H1672   1.109   .     S
C1443  C1444   1.530   .     S
C1443  C1509   1.531   .     S
C1443  H1671   1.106   .     S
C1444  H1668   1.110   .     S
C1444  H1670   1.110   .     S
C1444  H1669   1.109   .     S
C1445  H1677   1.106   .     S
C1445  C1510   1.532   .     S
C1445  H1678   1.109   .     S
C1445  C1446   1.530   .     S
C1446  H1675   1.110   .     S
C1446  H1673   1.110   .     S
C1447  H1683   1.109   .     S
C1447  H1682   1.106   .     S
C1447  C1449   1.530   .     S
C1447  C1511   1.531   .     S
C1448  C1498   1.387   .     A
C1448  H1617   1.077   .     S
C1449  H1681   1.109   .     S
C1449  H1680   1.109   .     S
C1449  H1679   1.110   .     S
C1450  H1689   1.108   .     S
C1450  C1512   1.531   .     S
C1450  C1451   1.530   .     S
C1450  H1688   1.106   .     S
C1451  H1686   1.110   .     S
C1451  H1684   1.109   .     S
C1451  H1685   1.109   .     S
C1452  H1693   1.106   .     S
C1452  C1453   1.530   .     S
C1452  C1513   1.531   .     S
C1452  H1694   1.109   .     S
C1453  H1690   1.110   .     S
C1453  H1692   1.109   .     S
C1453  H1691   1.109   .     S
C1454  C1514   1.531   .     S
C1454  H1700   1.108   .     S
C1454  H1699   1.106   .     S
C1454  C1455   1.530   .     S
C1455  H1697   1.110   .     S
C1455  H1695   1.110   .     S
C1455  H1696   1.109   .     S
C1456  H1704   1.106   .     S
C1456  C1516   1.531   .     S
C1456  H1705   1.109   .     S
C1456  C1457   1.530   .     S
C1457  H1701   1.110   .     S
C1457  H1703   1.109   .     S
C1457  H1702   1.109   .     S
C1458  C1543   1.492   .     S
C1458  O1775   1.398   .     S
C1458  O1774   1.223   .     D
C1459  C1519   1.462   .     S
C1460  O1776   1.223   .     D
C1460  O1777   1.398   .     S
C1460  C1544   1.491   .     S
C1461  O1778   1.223   .     D
C1461  O1779   1.398   .     S
C1461  C1545   1.492   .     S
C1462  O1782   1.398   .     S
C1462  C1546   1.491   .     S
C1462  O1780   1.223   .     D
C1463  O1784   1.398   .     S
C1463  C1547   1.492   .     S
C1463  O1783   1.223   .     D
C1464  O1786   1.398   .     S
C1464  O1785   1.222   .     D
C1464  C1549   1.489   .     S
C1465  O1788   1.398   .     S
C1465  O1787   1.223   .     D
C1465  C1550   1.492   .     S
C1466  O1789   1.223   .     D
C1466  O1790   1.398   .     S
C1466  C1551   1.492   .     S
C1467  O1791   1.222   .     D
C1467  C1552   1.480   .     S
C1467  O1793   1.397   .     S
C1468  C1553   1.481   .     S
C1468  O1795   1.397   .     S
C1468  O1794   1.222   .     D
C1469  C1554   1.488   .     S
C1469  O1797   1.398   .     S
C1469  O1796   1.222   .     D
C1470  C1520   1.462   .     S
C1470  C1537   1.387   .     A
C1471  O1799   1.397   .     S
C1471  C1555   1.481   .     S
C1471  O1798   1.222   .     D
C1472  C1556   1.480   .     S
C1472  O1800   1.222   .     D
C1472  O1801   1.396   .     S
C1473  C1557   1.481   .     S
C1473  O1802   1.222   .     D
C1473  O1804   1.397   .     S
C1474  C1558   1.481   .     S
C1474  O1805   1.222   .     D
C1474  O1806   1.397   .     S
C1475  O1807   1.222   .     D
C1475  C1560   1.481   .     S
C1475  O1808   1.397   .     S
C1476  O1810   1.397   .     S
C1476  C1561   1.481   .     S
C1476  O1809   1.222   .     D
C1477  O1812   1.397   .     S
C1477  C1562   1.481   .     S
C1477  O1811   1.222   .     D
C1478  C1563   1.480   .     S
C1478  O1815   1.397   .     S
C1478  O1813   1.222   .     D
C1479  O1817   1.397   .     S
C1479  C1564   1.481   .     S
C1479  O1816   1.222   .     D
C1480  O1819   1.398   .     S
C1480  C1565   1.488   .     S
C1480  O1818   1.222   .     D
C1481  C1517   1.461   .     S
C1481  C1504   1.387   .     A
C1482  C1566   1.481   .     S
C1482  O1820   1.222   .     D
C1482  O1821   1.397   .     S
C1483  C1567   1.480   .     S
C1483  O1822   1.222   .     D
C1483  O1823   1.396   .     S
C1484  C1568   1.481   .     S
C1484  O1711   1.397   .     S
C1484  O1824   1.222   .     D
C1485  C1569   1.492   .     S
C1485  O1713   1.398   .     S
C1485  O1712   1.223   .     D
C1486  O1714   1.223   .     D
C1486  O1715   1.398   .     S
C1486  C1571   1.491   .     S
C1487  C1572   1.492   .     S
C1487  O1716   1.223   .     D
C1487  O1717   1.398   .     S
C1488  O1719   1.398   .     S
C1488  O1718   1.222   .     D
C1488  C1573   1.489   .     S
C1489  O1720   1.223   .     D
C1489  C1574   1.492   .     S
C1489  O1722   1.398   .     S
C1490  C1575   1.492   .     S
C1490  O1723   1.223   .     D
C1490  O1724   1.398   .     S
C1491  O1725   1.223   .     D
C1491  C1576   1.492   .     S
C1491  O1726   1.398   .     S
C1492  H1621   1.077   .     S
C1492  C1010   1.387   1_655 S
C1493  C1559   1.387   .     A
C1493  C1518   1.462   .     S
C1494  C1577   1.491   .     S
C1494  O1727   1.223   .     D
C1494  O1728   1.398   .     S
C1495  C1570   1.387   .     A
C1495  C1523   1.462   .     S
C1496  C1524   1.461   .     S
C1497  C1521   1.462   .     S
C1497  C977    1.387   1_655 S
C1498  C944    1.388   1_655 S
C1498  C1062   1.462   1_655 S
C1499  C1578   1.425   .     A
C1499  C1505   1.420   .     A
C1500  C1579   1.424   .     A
C1500  C1503   1.420   .     A
C1501  C1507   1.420   .     A
C1501  C1580   1.424   .     A
C1502  C1506   1.420   .     A
C1504  H1632   1.077   .     S
C1508  C1513   1.420   1_556 S
C1509  C1512   1.420   1_554 S
C1510  C1516   1.420   1_556 S
C1511  C1514   1.420   1_554 S
C1512  C1509   1.420   1_556 S
C1513  C1508   1.420   1_554 S
C1514  C1511   1.420   1_556 S
C1515  H1643   1.077   .     S
C1515  C573    1.387   1_565 S
C1516  C1510   1.420   1_554 S
C1517  O1814   1.281   .     A
C1518  O1781   1.281   .     A
C1519  O1792   1.281   .     A
C1520  O1729   1.281   .     A
C1521  O1274   1.281   1_655 A
C1521  O1270   1.281   1_655 S
C1522  O1731   1.281   .     S
C1522  O1735   1.281   .     S
C1523  O1732   1.281   .     A
C1523  O1736   1.281   .     A
C1524  O1733   1.281   .     A
C1524  O1738   1.281   .     A
C1525  O1739   1.281   .     A
C1525  O1767   1.281   .     A
C1526  H1654   1.077   .     S
C1526  C1578   1.405   .     A
C1526  C999    1.387   1_655 S
C1527  O1740   1.280   .     A
C1527  O1768   1.281   .     A
C1528  O1741   1.281   .     A
C1528  O1765   1.281   .     A
C1529  O1742   1.280   .     A
C1529  O1766   1.280   .     A
C1530  O1772   1.281   .     A
C1530  O1743   1.281   .     A
C1531  O1773   1.280   .     A
C1531  O1744   1.281   .     A
C1532  O1769   1.281   .     A
C1532  O1745   1.281   .     A
C1533  O1771   1.280   .     A
C1533  O1746   1.280   .     A
C1534  O1747   1.280   .     A
C1534  O1758   1.280   .     A
C1535  O1749   1.280   .     A
C1535  O1760   1.280   .     A
C1536  O1756   1.279   .     A
C1536  O1750   1.280   .     A
C1537  C1579   1.405   .     A
C1537  H1665   1.078   .     S
C1538  O1757   1.279   .     A
C1538  O1751   1.280   .     A
C1539  O1763   1.280   .     A
C1539  O1752   1.280   .     A
C1540  O1753   1.279   .     A
C1540  O1764   1.279   .     A
C1541  O1761   1.280   .     A
C1541  O1754   1.279   .     A
C1542  O1762   1.280   .     A
C1542  O1755   1.279   .     A
C1543  C1560   1.401   .     A
C1544  C1558   1.402   .     A
C1545  C1557   1.402   .     A
C1546  C1556   1.402   .     A
C1547  C1555   1.401   .     A
C1548  C1580   1.405   .     A
C1548  H1676   1.077   .     S
C1548  C561    1.387   1_565 S
C1549  C1554   1.406   .     A
C1550  C1553   1.402   .     A
C1551  C1552   1.402   .     A
C1559  H1687   1.077   .     S
C1561  C1577   1.402   .     A
C1562  C1576   1.401   .     A
C1563  C1575   1.402   .     A
C1564  C1574   1.402   .     A
C1565  C1573   1.406   .     A
C1566  C1572   1.401   .     A
C1567  C1571   1.402   .     A
C1568  C1569   1.402   .     A
C1570  H1698   1.077   .     S
C1578  C954    1.425   1_655 S
C1580  C497    1.425   1_565 S
H1583  O1782   1.014   .     S
H1584  O1784   1.014   .     S
H1585  O1786   1.014   .     S
H1586  O1788   1.014   .     S
H1587  O1790   1.014   .     S
H1588  O1793   1.012   .     S
H1589  O1795   1.012   .     S
H1590  O1797   1.014   .     S
H1591  O1799   1.012   .     S
H1592  O1801   1.012   .     S
H1594  O1804   1.012   .     S
H1595  O1806   1.012   .     S
H1596  O1808   1.012   .     S
H1597  O1810   1.012   .     S
H1598  O1812   1.012   .     S
H1599  O1815   1.012   .     S
H1600  O1817   1.012   .     S
H1601  O1819   1.014   .     S
H1602  O1821   1.012   .     S
H1603  O1823   1.012   .     S
H1605  O1711   1.012   .     S
H1606  O1713   1.014   .     S
H1607  O1715   1.014   .     S
H1608  O1717   1.014   .     S
H1609  O1719   1.014   .     S
H1610  O1722   1.014   .     S
H1611  O1724   1.014   .     S
H1612  O1726   1.014   .     S
H1613  O1728   1.014   .     S
H1674  C986    1.109   1_655 S
H1706  O1775   1.014   .     S
H1707  O1777   1.014   .     S
H1708  O1779   1.014   .     S
O1709  Zn1828  1.949   .     S
O1709  Zn1836  1.949   .     S
O1709  Zn1825  1.949   .     S
O1710  Zn1827  1.952   .     S
O1710  C598    1.281   1_565 S
O1721  Zn1830  1.952   .     S
O1721  C1059   1.281   1_655 S
O1729  Zn1829  1.952   .     S
O1730  Zn1839  1.952   .     S
O1731  Zn1838  1.952   .     S
O1732  Zn1833  1.952   .     S
O1733  Zn1825  1.952   .     S
O1734  Zn1835  1.952   .     S
O1735  Zn1834  1.952   .     S
O1736  Zn1837  1.952   .     S
O1737  Zn1831  1.949   .     S
O1737  Zn1837  1.949   .     S
O1737  Zn1833  1.949   .     S
O1738  Zn1836  1.952   .     S
O1739  Zn1828  1.937   .     S
O1740  Zn1827  1.937   .     S
O1741  Zn1830  1.937   .     S
O1742  Zn1829  1.937   .     S
O1743  Zn1832  1.937   .     S
O1744  Zn1831  1.937   .     S
O1745  Zn1826  1.937   .     S
O1746  Zn1840  1.937   .     S
O1747  Zn1827  1.937   .     S
O1748  Zn1838  1.949   .     S
O1748  Zn1834  1.949   .     S
O1748  Zn1826  1.949   .     S
O1749  Zn1828  1.937   .     S
O1750  Zn1840  1.937   .     S
O1751  Zn1826  1.937   .     S
O1752  Zn1831  1.937   .     S
O1753  Zn1832  1.937   .     S
O1754  Zn1829  1.937   .     S
O1755  Zn1830  1.937   .     S
O1756  Zn1375  1.937   1_655 S
O1757  Zn1834  1.937   .     S
O1758  Zn917   1.937   1_565 S
O1759  Zn1839  1.949   .     S
O1759  Zn1835  1.949   .     S
O1759  Zn1829  1.949   .     S
O1760  Zn1836  1.937   .     S
O1761  Zn1839  1.937   .     S
O1762  Zn1378  1.937   1_655 S
O1763  Zn1833  1.937   .     S
O1764  Zn905   1.937   1_565 S
O1765  Zn1374  1.937   1_655 S
O1766  Zn1835  1.937   .     S
O1767  Zn1825  1.937   .     S
O1768  Zn913   1.937   1_565 S
O1769  Zn1838  1.937   .     S
O1770  Zn1832  1.952   .     S
O1770  C597    1.281   1_565 S
O1771  Zn1379  1.937   1_655 S
O1772  Zn916   1.937   1_565 S
O1773  Zn1837  1.937   .     S
O1781  Zn1831  1.952   .     S
O1792  Zn1826  1.952   .     S
O1803  Zn1840  1.952   .     S
O1803  C1060   1.281   1_655 S
O1814  Zn1828  1.952   .     S
Zn1827 O817    1.949   1_565 S
Zn1830 O1288   1.949   1_655 S
Zn1832 O789    1.949   1_565 S
Zn1840 O1299   1.949   1_655 S
