data_str_m3_o1_o16_pcu_sym.68
_audit_creation_date              2020-01-03
_audit_creation_method            'Materials Studio'
_symmetry_space_group_name_H-M    'P1'
_symmetry_Int_Tables_number       1
_symmetry_cell_setting            triclinic
loop_
_symmetry_equiv_pos_as_xyz
  x,y,z
_cell_length_a                    29.9242
_cell_length_b                    31.7253
_cell_length_c                    26.1830
_cell_angle_alpha                 91.0289
_cell_angle_beta                  72.0469
_cell_angle_gamma                 91.4233
loop_
_atom_site_label
_atom_site_type_symbol
_atom_site_fract_x
_atom_site_fract_y
_atom_site_fract_z
_atom_site_U_iso_or_equiv
_atom_site_adp_type
_atom_site_occupancy
O1     O     0.12846   0.22775   0.25000   0.00000  Uiso   1.00
O2     O     0.20490   0.22774   0.25000   0.00000  Uiso   1.00
C3     C     0.16674   0.24645   0.25145   0.00000  Uiso   1.00
O4     O     0.10947   0.16666   0.32681   0.00000  Uiso   1.00
O5     O     0.18591   0.16665   0.32681   0.00000  Uiso   1.00
C6     C     0.14143   0.15733   0.34924   0.00000  Uiso   1.00
Zn7    Zn    0.11562   0.16667   0.25000   0.00000  Uiso   1.00
Zn8    Zn    0.21771   0.16666   0.25000   0.00000  Uiso   1.00
O9     O     0.12843   0.10559   0.24999   0.00000  Uiso   1.00
O10    O     0.20488   0.10558   0.24999   0.00000  Uiso   1.00
O11    O     0.14742   0.16668   0.17319   0.00000  Uiso   1.00
O12    O     0.22387   0.16667   0.17319   0.00000  Uiso   1.00
C13    C     0.16637   0.08688   0.24955   0.00000  Uiso   1.00
C14    C     0.19252   0.16666   0.14808   0.00000  Uiso   1.00
C15    C     0.26614   0.15018   0.00366   0.00000  Uiso   1.00
H16    H     0.27708   0.12170   0.40398   0.00000  Uiso   1.00
H17    H     0.30258   0.14911   0.47962   0.00000  Uiso   1.00
C18    C     0.20758   0.16194   0.08963   0.00000  Uiso   1.00
C19    C     0.08040   0.12767   0.43178   0.00000  Uiso   1.00
C20    C     0.06655   0.12504   0.48776   0.00000  Uiso   1.00
C21    C     0.09885   0.13358   0.01548   0.00000  Uiso   1.00
C22    C     0.14713   0.13866   0.48684   0.00000  Uiso   1.00
C23    C     0.16087   0.13511   0.43058   0.00000  Uiso   1.00
C24    C     0.18271   0.14559   0.01143   0.00000  Uiso   1.00
C25    C     0.23050   0.14180   0.48058   0.00000  Uiso   1.00
C26    C     0.24188   0.12881   0.42723   0.00000  Uiso   1.00
C27    C     0.20751   0.12499   0.40256   0.00000  Uiso   1.00
C28    C     0.17225   0.15734   0.06514   0.00000  Uiso   1.00
C29    C     0.25522   0.15928   0.05824   0.00000  Uiso   1.00
C30    C     0.12708   0.13979   0.40410   0.00000  Uiso   1.00
H31    H     0.13635   0.16308   0.08851   0.00000  Uiso   1.00
H32    H     0.08598   0.13196   0.05873   0.00000  Uiso   1.00
H33    H     0.03096   0.11583   0.00998   0.00000  Uiso   1.00
H34    H     0.21772   0.11323   0.36162   0.00000  Uiso   1.00
C35    C     0.16582   0.31322   0.29959   0.00000  Uiso   1.00
C36    C     0.16547   0.02335   0.29806   0.00000  Uiso   1.00
H37    H     0.16468   0.04218   0.33330   0.00000  Uiso   1.00
C38    C     0.16543   0.04279   0.25085   0.00000  Uiso   1.00
C39    C     0.16652   0.02036   0.20447   0.00000  Uiso   1.00
H40    H     0.16752   0.03620   0.16784   0.00000  Uiso   1.00
C41    C     0.16737   0.31053   0.20528   0.00000  Uiso   1.00
H42    H     0.16825   0.29254   0.16937   0.00000  Uiso   1.00
C43    C     0.16726   0.29070   0.25239   0.00000  Uiso   1.00
C44    C     0.31367   0.13426   0.22791   0.00000  Uiso   1.00
H45    H     0.29832   0.10844   0.21116   0.00000  Uiso   1.00
C46    C     0.02797   0.13373   0.22693   0.00000  Uiso   1.00
N47    N     0.04760   0.16668   0.25001   0.00000  Uiso   1.00
C48    C     0.01867   0.19922   0.27260   0.00000  Uiso   1.00
H49    H     0.03211   0.22537   0.29098   0.00000  Uiso   1.00
C50    C     0.30441   0.19922   0.27248   0.00000  Uiso   1.00
H51    H     0.28259   0.22549   0.29055   0.00000  Uiso   1.00
N52    N     0.28573   0.16665   0.25000   0.00000  Uiso   1.00
N53    N     0.29288   0.16516   0.08075   0.00000  Uiso   1.00
O54    O     0.32225   0.19674   0.06524   0.00000  Uiso   1.00
O55    O     0.30406   0.13430   0.10621   0.00000  Uiso   1.00
S56    S     0.05732   0.08703   0.19721   0.00000  Uiso   1.00
O57    O     0.05898   0.05763   0.24089   0.00000  Uiso   1.00
O58    O     0.02993   0.06500   0.16468   0.00000  Uiso   1.00
O59    O     0.11172   0.09642   0.15590   0.00000  Uiso   1.00
H60    H     0.11626   0.07580   0.12597   0.00000  Uiso   1.00
S61    S     0.04265   0.10687   0.39721   0.00000  Uiso   1.00
O62    O     0.02225   0.14268   0.37562   0.00000  Uiso   1.00
O63    O     0.07024   0.07965   0.35138   0.00000  Uiso   1.00
O64    O     0.33295   0.07723   0.43861   0.00000  Uiso   1.00
H65    H     0.32131   0.05840   0.41470   0.00000  Uiso   1.00
S66    S     0.16205   0.28809   0.36073   0.00000  Uiso   1.00
O67    O     0.20605   0.26387   0.35413   0.00000  Uiso   1.00
O68    O     0.15627   0.32011   0.40523   0.00000  Uiso   1.00
O69    O     0.11552   0.25455   0.37661   0.00000  Uiso   1.00
H70    H     0.11596   0.24113   0.41034   0.00000  Uiso   1.00
O71    O     0.46179   0.22775   0.25000   0.00000  Uiso   1.00
O72    O     0.53823   0.22774   0.25000   0.00000  Uiso   1.00
C73    C     0.50008   0.24645   0.25145   0.00000  Uiso   1.00
O74    O     0.44280   0.16666   0.32681   0.00000  Uiso   1.00
O75    O     0.51924   0.16665   0.32681   0.00000  Uiso   1.00
C76    C     0.47476   0.15733   0.34924   0.00000  Uiso   1.00
Zn77   Zn    0.44896   0.16667   0.25000   0.00000  Uiso   1.00
Zn78   Zn    0.55104   0.16666   0.25000   0.00000  Uiso   1.00
O79    O     0.46177   0.10559   0.24999   0.00000  Uiso   1.00
O80    O     0.53821   0.10558   0.24999   0.00000  Uiso   1.00
O81    O     0.48076   0.16668   0.17319   0.00000  Uiso   1.00
O82    O     0.55720   0.16667   0.17319   0.00000  Uiso   1.00
C83    C     0.49971   0.08688   0.24955   0.00000  Uiso   1.00
C84    C     0.52586   0.16666   0.14808   0.00000  Uiso   1.00
C85    C     0.59947   0.15018   0.00366   0.00000  Uiso   1.00
H86    H     0.61041   0.12170   0.40398   0.00000  Uiso   1.00
H87    H     0.63591   0.14911   0.47962   0.00000  Uiso   1.00
C88    C     0.54091   0.16194   0.08963   0.00000  Uiso   1.00
C89    C     0.41373   0.12767   0.43178   0.00000  Uiso   1.00
C90    C     0.39988   0.12504   0.48776   0.00000  Uiso   1.00
C91    C     0.43218   0.13358   0.01548   0.00000  Uiso   1.00
C92    C     0.48046   0.13866   0.48684   0.00000  Uiso   1.00
C93    C     0.49420   0.13511   0.43058   0.00000  Uiso   1.00
C94    C     0.51604   0.14559   0.01143   0.00000  Uiso   1.00
C95    C     0.56383   0.14180   0.48058   0.00000  Uiso   1.00
C96    C     0.57521   0.12881   0.42723   0.00000  Uiso   1.00
C97    C     0.54084   0.12499   0.40256   0.00000  Uiso   1.00
C98    C     0.50558   0.15734   0.06514   0.00000  Uiso   1.00
C99    C     0.58856   0.15928   0.05824   0.00000  Uiso   1.00
C100   C     0.46041   0.13979   0.40410   0.00000  Uiso   1.00
H101   H     0.46969   0.16308   0.08851   0.00000  Uiso   1.00
H102   H     0.41932   0.13196   0.05873   0.00000  Uiso   1.00
H103   H     0.36429   0.11583   0.00998   0.00000  Uiso   1.00
H104   H     0.55106   0.11323   0.36162   0.00000  Uiso   1.00
C105   C     0.49916   0.31322   0.29959   0.00000  Uiso   1.00
C106   C     0.49880   0.02335   0.29806   0.00000  Uiso   1.00
H107   H     0.49801   0.04218   0.33330   0.00000  Uiso   1.00
C108   C     0.49877   0.04279   0.25085   0.00000  Uiso   1.00
C109   C     0.49986   0.02036   0.20447   0.00000  Uiso   1.00
H110   H     0.50086   0.03620   0.16784   0.00000  Uiso   1.00
C111   C     0.50070   0.31053   0.20528   0.00000  Uiso   1.00
H112   H     0.50159   0.29254   0.16937   0.00000  Uiso   1.00
C113   C     0.50060   0.29070   0.25239   0.00000  Uiso   1.00
C114   C     0.64700   0.13426   0.22791   0.00000  Uiso   1.00
H115   H     0.63166   0.10844   0.21116   0.00000  Uiso   1.00
C116   C     0.36130   0.13373   0.22693   0.00000  Uiso   1.00
N117   N     0.38093   0.16668   0.25001   0.00000  Uiso   1.00
C118   C     0.35201   0.19922   0.27260   0.00000  Uiso   1.00
H119   H     0.36545   0.22537   0.29098   0.00000  Uiso   1.00
C120   C     0.63775   0.19922   0.27248   0.00000  Uiso   1.00
H121   H     0.61592   0.22549   0.29055   0.00000  Uiso   1.00
N122   N     0.61906   0.16665   0.25000   0.00000  Uiso   1.00
N123   N     0.62621   0.16516   0.08075   0.00000  Uiso   1.00
O124   O     0.65558   0.19674   0.06524   0.00000  Uiso   1.00
O125   O     0.63739   0.13430   0.10621   0.00000  Uiso   1.00
S126   S     0.39065   0.08703   0.19721   0.00000  Uiso   1.00
O127   O     0.39231   0.05763   0.24089   0.00000  Uiso   1.00
O128   O     0.36326   0.06500   0.16468   0.00000  Uiso   1.00
O129   O     0.44506   0.09642   0.15590   0.00000  Uiso   1.00
H130   H     0.44959   0.07580   0.12597   0.00000  Uiso   1.00
S131   S     0.37599   0.10687   0.39721   0.00000  Uiso   1.00
O132   O     0.35559   0.14268   0.37562   0.00000  Uiso   1.00
O133   O     0.40358   0.07965   0.35138   0.00000  Uiso   1.00
O134   O     0.66629   0.07723   0.43861   0.00000  Uiso   1.00
H135   H     0.65464   0.05840   0.41470   0.00000  Uiso   1.00
S136   S     0.49538   0.28809   0.36073   0.00000  Uiso   1.00
O137   O     0.53938   0.26387   0.35413   0.00000  Uiso   1.00
O138   O     0.48960   0.32011   0.40523   0.00000  Uiso   1.00
O139   O     0.44886   0.25455   0.37661   0.00000  Uiso   1.00
H140   H     0.44929   0.24113   0.41034   0.00000  Uiso   1.00
O141   O     0.79512   0.22775   0.25000   0.00000  Uiso   1.00
O142   O     0.87157   0.22774   0.25000   0.00000  Uiso   1.00
C143   C     0.83341   0.24645   0.25145   0.00000  Uiso   1.00
O144   O     0.77613   0.16666   0.32681   0.00000  Uiso   1.00
O145   O     0.85258   0.16665   0.32681   0.00000  Uiso   1.00
C146   C     0.80809   0.15733   0.34924   0.00000  Uiso   1.00
Zn147  Zn    0.78229   0.16667   0.25000   0.00000  Uiso   1.00
Zn148  Zn    0.88438   0.16666   0.25000   0.00000  Uiso   1.00
O149   O     0.79510   0.10559   0.24999   0.00000  Uiso   1.00
O150   O     0.87154   0.10558   0.24999   0.00000  Uiso   1.00
O151   O     0.81409   0.16668   0.17319   0.00000  Uiso   1.00
O152   O     0.89053   0.16667   0.17319   0.00000  Uiso   1.00
C153   C     0.83304   0.08688   0.24955   0.00000  Uiso   1.00
C154   C     0.85919   0.16666   0.14808   0.00000  Uiso   1.00
C155   C     0.93281   0.15018   0.00366   0.00000  Uiso   1.00
H156   H     0.94374   0.12170   0.40398   0.00000  Uiso   1.00
H157   H     0.96924   0.14911   0.47962   0.00000  Uiso   1.00
C158   C     0.87424   0.16194   0.08963   0.00000  Uiso   1.00
C159   C     0.74706   0.12767   0.43178   0.00000  Uiso   1.00
C160   C     0.73322   0.12504   0.48776   0.00000  Uiso   1.00
C161   C     0.76551   0.13358   0.01548   0.00000  Uiso   1.00
C162   C     0.81380   0.13866   0.48684   0.00000  Uiso   1.00
C163   C     0.82754   0.13511   0.43058   0.00000  Uiso   1.00
C164   C     0.84938   0.14559   0.01143   0.00000  Uiso   1.00
C165   C     0.89717   0.14180   0.48058   0.00000  Uiso   1.00
C166   C     0.90855   0.12881   0.42723   0.00000  Uiso   1.00
C167   C     0.87418   0.12499   0.40256   0.00000  Uiso   1.00
C168   C     0.83892   0.15734   0.06514   0.00000  Uiso   1.00
C169   C     0.92189   0.15928   0.05824   0.00000  Uiso   1.00
C170   C     0.79375   0.13979   0.40410   0.00000  Uiso   1.00
H171   H     0.80302   0.16308   0.08851   0.00000  Uiso   1.00
H172   H     0.75265   0.13196   0.05873   0.00000  Uiso   1.00
H173   H     0.69762   0.11583   0.00998   0.00000  Uiso   1.00
H174   H     0.88439   0.11323   0.36162   0.00000  Uiso   1.00
C175   C     0.83249   0.31322   0.29959   0.00000  Uiso   1.00
C176   C     0.83214   0.02335   0.29806   0.00000  Uiso   1.00
H177   H     0.83135   0.04218   0.33330   0.00000  Uiso   1.00
C178   C     0.83210   0.04279   0.25085   0.00000  Uiso   1.00
C179   C     0.83319   0.02036   0.20447   0.00000  Uiso   1.00
H180   H     0.83419   0.03620   0.16784   0.00000  Uiso   1.00
C181   C     0.83403   0.31053   0.20528   0.00000  Uiso   1.00
H182   H     0.83492   0.29254   0.16937   0.00000  Uiso   1.00
C183   C     0.83393   0.29070   0.25239   0.00000  Uiso   1.00
C184   C     0.98033   0.13426   0.22791   0.00000  Uiso   1.00
H185   H     0.96499   0.10844   0.21116   0.00000  Uiso   1.00
C186   C     0.69463   0.13373   0.22693   0.00000  Uiso   1.00
N187   N     0.71426   0.16668   0.25001   0.00000  Uiso   1.00
C188   C     0.68534   0.19922   0.27260   0.00000  Uiso   1.00
H189   H     0.69878   0.22537   0.29098   0.00000  Uiso   1.00
C190   C     0.97108   0.19922   0.27248   0.00000  Uiso   1.00
H191   H     0.94925   0.22549   0.29055   0.00000  Uiso   1.00
N192   N     0.95239   0.16665   0.25000   0.00000  Uiso   1.00
N193   N     0.95954   0.16516   0.08075   0.00000  Uiso   1.00
O194   O     0.98892   0.19674   0.06524   0.00000  Uiso   1.00
O195   O     0.97073   0.13430   0.10621   0.00000  Uiso   1.00
S196   S     0.72399   0.08703   0.19721   0.00000  Uiso   1.00
O197   O     0.72564   0.05763   0.24089   0.00000  Uiso   1.00
O198   O     0.69659   0.06500   0.16468   0.00000  Uiso   1.00
O199   O     0.77839   0.09642   0.15590   0.00000  Uiso   1.00
H200   H     0.78293   0.07580   0.12597   0.00000  Uiso   1.00
S201   S     0.70932   0.10687   0.39721   0.00000  Uiso   1.00
O202   O     0.68892   0.14268   0.37562   0.00000  Uiso   1.00
O203   O     0.73691   0.07965   0.35138   0.00000  Uiso   1.00
O204   O     0.99962   0.07723   0.43861   0.00000  Uiso   1.00
H205   H     0.98798   0.05840   0.41470   0.00000  Uiso   1.00
S206   S     0.82872   0.28809   0.36073   0.00000  Uiso   1.00
O207   O     0.87271   0.26387   0.35413   0.00000  Uiso   1.00
O208   O     0.82293   0.32011   0.40523   0.00000  Uiso   1.00
O209   O     0.78219   0.25455   0.37661   0.00000  Uiso   1.00
H210   H     0.78263   0.24113   0.41034   0.00000  Uiso   1.00
O211   O     0.12846   0.56108   0.25000   0.00000  Uiso   1.00
O212   O     0.20490   0.56107   0.25000   0.00000  Uiso   1.00
C213   C     0.16674   0.57978   0.25145   0.00000  Uiso   1.00
O214   O     0.10947   0.50000   0.32681   0.00000  Uiso   1.00
O215   O     0.18591   0.49999   0.32681   0.00000  Uiso   1.00
C216   C     0.14143   0.49067   0.34924   0.00000  Uiso   1.00
Zn217  Zn    0.11562   0.50001   0.25000   0.00000  Uiso   1.00
Zn218  Zn    0.21771   0.49999   0.25000   0.00000  Uiso   1.00
O219   O     0.12843   0.43893   0.24999   0.00000  Uiso   1.00
O220   O     0.20488   0.43892   0.24999   0.00000  Uiso   1.00
O221   O     0.14742   0.50001   0.17319   0.00000  Uiso   1.00
O222   O     0.22387   0.50000   0.17319   0.00000  Uiso   1.00
C223   C     0.16637   0.42022   0.24955   0.00000  Uiso   1.00
C224   C     0.19252   0.49999   0.14808   0.00000  Uiso   1.00
C225   C     0.26614   0.48351   0.00366   0.00000  Uiso   1.00
H226   H     0.27708   0.45503   0.40398   0.00000  Uiso   1.00
H227   H     0.30258   0.48244   0.47962   0.00000  Uiso   1.00
C228   C     0.20758   0.49528   0.08963   0.00000  Uiso   1.00
C229   C     0.08040   0.46100   0.43178   0.00000  Uiso   1.00
C230   C     0.06655   0.45837   0.48776   0.00000  Uiso   1.00
C231   C     0.09885   0.46692   0.01548   0.00000  Uiso   1.00
C232   C     0.14713   0.47199   0.48684   0.00000  Uiso   1.00
C233   C     0.16087   0.46845   0.43058   0.00000  Uiso   1.00
C234   C     0.18271   0.47892   0.01143   0.00000  Uiso   1.00
C235   C     0.23050   0.47513   0.48058   0.00000  Uiso   1.00
C236   C     0.24188   0.46214   0.42723   0.00000  Uiso   1.00
C237   C     0.20751   0.45833   0.40256   0.00000  Uiso   1.00
C238   C     0.17225   0.49068   0.06514   0.00000  Uiso   1.00
C239   C     0.25522   0.49261   0.05824   0.00000  Uiso   1.00
C240   C     0.12708   0.47312   0.40410   0.00000  Uiso   1.00
H241   H     0.13635   0.49641   0.08851   0.00000  Uiso   1.00
H242   H     0.08598   0.46529   0.05873   0.00000  Uiso   1.00
H243   H     0.03096   0.44917   0.00998   0.00000  Uiso   1.00
H244   H     0.21772   0.44657   0.36162   0.00000  Uiso   1.00
C245   C     0.16582   0.64656   0.29959   0.00000  Uiso   1.00
C246   C     0.16547   0.35668   0.29806   0.00000  Uiso   1.00
H247   H     0.16468   0.37551   0.33330   0.00000  Uiso   1.00
C248   C     0.16543   0.37613   0.25085   0.00000  Uiso   1.00
C249   C     0.16652   0.35370   0.20447   0.00000  Uiso   1.00
H250   H     0.16752   0.36953   0.16784   0.00000  Uiso   1.00
C251   C     0.16737   0.64386   0.20528   0.00000  Uiso   1.00
H252   H     0.16825   0.62587   0.16937   0.00000  Uiso   1.00
C253   C     0.16726   0.62403   0.25239   0.00000  Uiso   1.00
C254   C     0.31367   0.46759   0.22791   0.00000  Uiso   1.00
H255   H     0.29832   0.44178   0.21116   0.00000  Uiso   1.00
C256   C     0.02797   0.46707   0.22693   0.00000  Uiso   1.00
N257   N     0.04760   0.50001   0.25001   0.00000  Uiso   1.00
C258   C     0.01867   0.53256   0.27260   0.00000  Uiso   1.00
H259   H     0.03211   0.55870   0.29098   0.00000  Uiso   1.00
C260   C     0.30441   0.53256   0.27248   0.00000  Uiso   1.00
H261   H     0.28259   0.55882   0.29055   0.00000  Uiso   1.00
N262   N     0.28573   0.49998   0.25000   0.00000  Uiso   1.00
N263   N     0.29288   0.49849   0.08075   0.00000  Uiso   1.00
O264   O     0.32225   0.53007   0.06524   0.00000  Uiso   1.00
O265   O     0.30406   0.46763   0.10621   0.00000  Uiso   1.00
S266   S     0.05732   0.42036   0.19721   0.00000  Uiso   1.00
O267   O     0.05898   0.39096   0.24089   0.00000  Uiso   1.00
O268   O     0.02993   0.39834   0.16468   0.00000  Uiso   1.00
O269   O     0.11172   0.42976   0.15590   0.00000  Uiso   1.00
H270   H     0.11626   0.40913   0.12597   0.00000  Uiso   1.00
S271   S     0.04265   0.44020   0.39721   0.00000  Uiso   1.00
O272   O     0.02225   0.47601   0.37562   0.00000  Uiso   1.00
O273   O     0.07024   0.41298   0.35138   0.00000  Uiso   1.00
O274   O     0.33295   0.41057   0.43861   0.00000  Uiso   1.00
H275   H     0.32131   0.39173   0.41470   0.00000  Uiso   1.00
S276   S     0.16205   0.62142   0.36073   0.00000  Uiso   1.00
O277   O     0.20605   0.59720   0.35413   0.00000  Uiso   1.00
O278   O     0.15627   0.65345   0.40523   0.00000  Uiso   1.00
O279   O     0.11552   0.58788   0.37661   0.00000  Uiso   1.00
H280   H     0.11596   0.57446   0.41034   0.00000  Uiso   1.00
O281   O     0.46179   0.56108   0.25000   0.00000  Uiso   1.00
O282   O     0.53823   0.56107   0.25000   0.00000  Uiso   1.00
C283   C     0.50008   0.57978   0.25145   0.00000  Uiso   1.00
O284   O     0.44280   0.50000   0.32681   0.00000  Uiso   1.00
O285   O     0.51924   0.49999   0.32681   0.00000  Uiso   1.00
C286   C     0.47476   0.49067   0.34924   0.00000  Uiso   1.00
Zn287  Zn    0.44896   0.50001   0.25000   0.00000  Uiso   1.00
Zn288  Zn    0.55104   0.49999   0.25000   0.00000  Uiso   1.00
O289   O     0.46177   0.43893   0.24999   0.00000  Uiso   1.00
O290   O     0.53821   0.43892   0.24999   0.00000  Uiso   1.00
O291   O     0.48076   0.50001   0.17319   0.00000  Uiso   1.00
O292   O     0.55720   0.50000   0.17319   0.00000  Uiso   1.00
C293   C     0.49971   0.42022   0.24955   0.00000  Uiso   1.00
C294   C     0.52586   0.49999   0.14808   0.00000  Uiso   1.00
C295   C     0.59947   0.48351   0.00366   0.00000  Uiso   1.00
H296   H     0.61041   0.45503   0.40398   0.00000  Uiso   1.00
H297   H     0.63591   0.48244   0.47962   0.00000  Uiso   1.00
C298   C     0.54091   0.49528   0.08963   0.00000  Uiso   1.00
C299   C     0.41373   0.46100   0.43178   0.00000  Uiso   1.00
C300   C     0.39988   0.45837   0.48776   0.00000  Uiso   1.00
C301   C     0.43218   0.46692   0.01548   0.00000  Uiso   1.00
C302   C     0.48046   0.47199   0.48684   0.00000  Uiso   1.00
C303   C     0.49420   0.46845   0.43058   0.00000  Uiso   1.00
C304   C     0.51604   0.47892   0.01143   0.00000  Uiso   1.00
C305   C     0.56383   0.47513   0.48058   0.00000  Uiso   1.00
C306   C     0.57521   0.46214   0.42723   0.00000  Uiso   1.00
C307   C     0.54084   0.45833   0.40256   0.00000  Uiso   1.00
C308   C     0.50558   0.49068   0.06514   0.00000  Uiso   1.00
C309   C     0.58856   0.49261   0.05824   0.00000  Uiso   1.00
C310   C     0.46041   0.47312   0.40410   0.00000  Uiso   1.00
H311   H     0.46969   0.49641   0.08851   0.00000  Uiso   1.00
H312   H     0.41932   0.46529   0.05873   0.00000  Uiso   1.00
H313   H     0.36429   0.44917   0.00998   0.00000  Uiso   1.00
H314   H     0.55106   0.44657   0.36162   0.00000  Uiso   1.00
C315   C     0.49916   0.64656   0.29959   0.00000  Uiso   1.00
C316   C     0.49880   0.35668   0.29806   0.00000  Uiso   1.00
H317   H     0.49801   0.37551   0.33330   0.00000  Uiso   1.00
C318   C     0.49877   0.37613   0.25085   0.00000  Uiso   1.00
C319   C     0.49986   0.35370   0.20447   0.00000  Uiso   1.00
H320   H     0.50086   0.36953   0.16784   0.00000  Uiso   1.00
C321   C     0.50070   0.64386   0.20528   0.00000  Uiso   1.00
H322   H     0.50159   0.62587   0.16937   0.00000  Uiso   1.00
C323   C     0.50060   0.62403   0.25239   0.00000  Uiso   1.00
C324   C     0.64700   0.46759   0.22791   0.00000  Uiso   1.00
H325   H     0.63166   0.44178   0.21116   0.00000  Uiso   1.00
C326   C     0.36130   0.46707   0.22693   0.00000  Uiso   1.00
N327   N     0.38093   0.50001   0.25001   0.00000  Uiso   1.00
C328   C     0.35201   0.53256   0.27260   0.00000  Uiso   1.00
H329   H     0.36545   0.55870   0.29098   0.00000  Uiso   1.00
C330   C     0.63775   0.53256   0.27248   0.00000  Uiso   1.00
H331   H     0.61592   0.55882   0.29055   0.00000  Uiso   1.00
N332   N     0.61906   0.49998   0.25000   0.00000  Uiso   1.00
N333   N     0.62621   0.49849   0.08075   0.00000  Uiso   1.00
O334   O     0.65558   0.53007   0.06524   0.00000  Uiso   1.00
O335   O     0.63739   0.46763   0.10621   0.00000  Uiso   1.00
S336   S     0.39065   0.42036   0.19721   0.00000  Uiso   1.00
O337   O     0.39231   0.39096   0.24089   0.00000  Uiso   1.00
O338   O     0.36326   0.39834   0.16468   0.00000  Uiso   1.00
O339   O     0.44506   0.42976   0.15590   0.00000  Uiso   1.00
H340   H     0.44959   0.40913   0.12597   0.00000  Uiso   1.00
S341   S     0.37599   0.44020   0.39721   0.00000  Uiso   1.00
O342   O     0.35559   0.47601   0.37562   0.00000  Uiso   1.00
O343   O     0.40358   0.41298   0.35138   0.00000  Uiso   1.00
O344   O     0.66629   0.41057   0.43861   0.00000  Uiso   1.00
H345   H     0.65464   0.39173   0.41470   0.00000  Uiso   1.00
S346   S     0.49538   0.62142   0.36073   0.00000  Uiso   1.00
O347   O     0.53938   0.59720   0.35413   0.00000  Uiso   1.00
O348   O     0.48960   0.65345   0.40523   0.00000  Uiso   1.00
O349   O     0.44886   0.58788   0.37661   0.00000  Uiso   1.00
H350   H     0.44929   0.57446   0.41034   0.00000  Uiso   1.00
O351   O     0.79512   0.56108   0.25000   0.00000  Uiso   1.00
O352   O     0.87157   0.56107   0.25000   0.00000  Uiso   1.00
C353   C     0.83341   0.57978   0.25145   0.00000  Uiso   1.00
O354   O     0.77613   0.50000   0.32681   0.00000  Uiso   1.00
O355   O     0.85258   0.49999   0.32681   0.00000  Uiso   1.00
C356   C     0.80809   0.49067   0.34924   0.00000  Uiso   1.00
Zn357  Zn    0.78229   0.50001   0.25000   0.00000  Uiso   1.00
Zn358  Zn    0.88438   0.49999   0.25000   0.00000  Uiso   1.00
O359   O     0.79510   0.43893   0.24999   0.00000  Uiso   1.00
O360   O     0.87154   0.43892   0.24999   0.00000  Uiso   1.00
O361   O     0.81409   0.50001   0.17319   0.00000  Uiso   1.00
O362   O     0.89053   0.50000   0.17319   0.00000  Uiso   1.00
C363   C     0.83304   0.42022   0.24955   0.00000  Uiso   1.00
C364   C     0.85919   0.49999   0.14808   0.00000  Uiso   1.00
C365   C     0.93281   0.48351   0.00366   0.00000  Uiso   1.00
H366   H     0.94374   0.45503   0.40398   0.00000  Uiso   1.00
H367   H     0.96924   0.48244   0.47962   0.00000  Uiso   1.00
C368   C     0.87424   0.49528   0.08963   0.00000  Uiso   1.00
C369   C     0.74706   0.46100   0.43178   0.00000  Uiso   1.00
C370   C     0.73322   0.45837   0.48776   0.00000  Uiso   1.00
C371   C     0.76551   0.46692   0.01548   0.00000  Uiso   1.00
C372   C     0.81380   0.47199   0.48684   0.00000  Uiso   1.00
C373   C     0.82754   0.46845   0.43058   0.00000  Uiso   1.00
C374   C     0.84938   0.47892   0.01143   0.00000  Uiso   1.00
C375   C     0.89717   0.47513   0.48058   0.00000  Uiso   1.00
C376   C     0.90855   0.46214   0.42723   0.00000  Uiso   1.00
C377   C     0.87418   0.45833   0.40256   0.00000  Uiso   1.00
C378   C     0.83892   0.49068   0.06514   0.00000  Uiso   1.00
C379   C     0.92189   0.49261   0.05824   0.00000  Uiso   1.00
C380   C     0.79375   0.47312   0.40410   0.00000  Uiso   1.00
H381   H     0.80302   0.49641   0.08851   0.00000  Uiso   1.00
H382   H     0.75265   0.46529   0.05873   0.00000  Uiso   1.00
H383   H     0.69762   0.44917   0.00998   0.00000  Uiso   1.00
H384   H     0.88439   0.44657   0.36162   0.00000  Uiso   1.00
C385   C     0.83249   0.64656   0.29959   0.00000  Uiso   1.00
C386   C     0.83214   0.35668   0.29806   0.00000  Uiso   1.00
H387   H     0.83135   0.37551   0.33330   0.00000  Uiso   1.00
C388   C     0.83210   0.37613   0.25085   0.00000  Uiso   1.00
C389   C     0.83319   0.35370   0.20447   0.00000  Uiso   1.00
H390   H     0.83419   0.36953   0.16784   0.00000  Uiso   1.00
C391   C     0.83403   0.64386   0.20528   0.00000  Uiso   1.00
H392   H     0.83492   0.62587   0.16937   0.00000  Uiso   1.00
C393   C     0.83393   0.62403   0.25239   0.00000  Uiso   1.00
C394   C     0.98033   0.46759   0.22791   0.00000  Uiso   1.00
H395   H     0.96499   0.44178   0.21116   0.00000  Uiso   1.00
C396   C     0.69463   0.46707   0.22693   0.00000  Uiso   1.00
N397   N     0.71426   0.50001   0.25001   0.00000  Uiso   1.00
C398   C     0.68534   0.53256   0.27260   0.00000  Uiso   1.00
H399   H     0.69878   0.55870   0.29098   0.00000  Uiso   1.00
C400   C     0.97108   0.53256   0.27248   0.00000  Uiso   1.00
H401   H     0.94925   0.55882   0.29055   0.00000  Uiso   1.00
N402   N     0.95239   0.49998   0.25000   0.00000  Uiso   1.00
N403   N     0.95954   0.49849   0.08075   0.00000  Uiso   1.00
O404   O     0.98892   0.53007   0.06524   0.00000  Uiso   1.00
O405   O     0.97073   0.46763   0.10621   0.00000  Uiso   1.00
S406   S     0.72399   0.42036   0.19721   0.00000  Uiso   1.00
O407   O     0.72564   0.39096   0.24089   0.00000  Uiso   1.00
O408   O     0.69659   0.39834   0.16468   0.00000  Uiso   1.00
O409   O     0.77839   0.42976   0.15590   0.00000  Uiso   1.00
H410   H     0.78293   0.40913   0.12597   0.00000  Uiso   1.00
S411   S     0.70932   0.44020   0.39721   0.00000  Uiso   1.00
O412   O     0.68892   0.47601   0.37562   0.00000  Uiso   1.00
O413   O     0.73691   0.41298   0.35138   0.00000  Uiso   1.00
O414   O     0.99962   0.41057   0.43861   0.00000  Uiso   1.00
H415   H     0.98798   0.39173   0.41470   0.00000  Uiso   1.00
S416   S     0.82872   0.62142   0.36073   0.00000  Uiso   1.00
O417   O     0.87271   0.59720   0.35413   0.00000  Uiso   1.00
O418   O     0.82293   0.65345   0.40523   0.00000  Uiso   1.00
O419   O     0.78219   0.58788   0.37661   0.00000  Uiso   1.00
H420   H     0.78263   0.57446   0.41034   0.00000  Uiso   1.00
O421   O     0.12846   0.89442   0.25000   0.00000  Uiso   1.00
O422   O     0.20490   0.89441   0.25000   0.00000  Uiso   1.00
C423   C     0.16674   0.91311   0.25145   0.00000  Uiso   1.00
O424   O     0.10947   0.83333   0.32681   0.00000  Uiso   1.00
O425   O     0.18591   0.83332   0.32681   0.00000  Uiso   1.00
C426   C     0.14143   0.82400   0.34924   0.00000  Uiso   1.00
Zn427  Zn    0.11562   0.83334   0.25000   0.00000  Uiso   1.00
Zn428  Zn    0.21771   0.83333   0.25000   0.00000  Uiso   1.00
O429   O     0.12843   0.77226   0.24999   0.00000  Uiso   1.00
O430   O     0.20488   0.77225   0.24999   0.00000  Uiso   1.00
O431   O     0.14742   0.83335   0.17319   0.00000  Uiso   1.00
O432   O     0.22387   0.83334   0.17319   0.00000  Uiso   1.00
C433   C     0.16637   0.75355   0.24955   0.00000  Uiso   1.00
C434   C     0.19252   0.83332   0.14808   0.00000  Uiso   1.00
C435   C     0.26614   0.81684   0.00366   0.00000  Uiso   1.00
H436   H     0.27708   0.78837   0.40398   0.00000  Uiso   1.00
H437   H     0.30258   0.81577   0.47962   0.00000  Uiso   1.00
C438   C     0.20758   0.82861   0.08963   0.00000  Uiso   1.00
C439   C     0.08040   0.79434   0.43178   0.00000  Uiso   1.00
C440   C     0.06655   0.79171   0.48776   0.00000  Uiso   1.00
C441   C     0.09885   0.80025   0.01548   0.00000  Uiso   1.00
C442   C     0.14713   0.80532   0.48684   0.00000  Uiso   1.00
C443   C     0.16087   0.80178   0.43058   0.00000  Uiso   1.00
C444   C     0.18271   0.81225   0.01143   0.00000  Uiso   1.00
C445   C     0.23050   0.80846   0.48058   0.00000  Uiso   1.00
C446   C     0.24188   0.79547   0.42723   0.00000  Uiso   1.00
C447   C     0.20751   0.79166   0.40256   0.00000  Uiso   1.00
C448   C     0.17225   0.82401   0.06514   0.00000  Uiso   1.00
C449   C     0.25522   0.82595   0.05824   0.00000  Uiso   1.00
C450   C     0.12708   0.80646   0.40410   0.00000  Uiso   1.00
H451   H     0.13635   0.82974   0.08851   0.00000  Uiso   1.00
H452   H     0.08598   0.79863   0.05873   0.00000  Uiso   1.00
H453   H     0.03096   0.78250   0.00998   0.00000  Uiso   1.00
H454   H     0.21772   0.77990   0.36162   0.00000  Uiso   1.00
C455   C     0.16582   0.97989   0.29959   0.00000  Uiso   1.00
C456   C     0.16547   0.69002   0.29806   0.00000  Uiso   1.00
H457   H     0.16468   0.70884   0.33330   0.00000  Uiso   1.00
C458   C     0.16543   0.70946   0.25085   0.00000  Uiso   1.00
C459   C     0.16652   0.68703   0.20447   0.00000  Uiso   1.00
H460   H     0.16752   0.70287   0.16784   0.00000  Uiso   1.00
C461   C     0.16737   0.97720   0.20528   0.00000  Uiso   1.00
H462   H     0.16825   0.95920   0.16937   0.00000  Uiso   1.00
C463   C     0.16726   0.95736   0.25239   0.00000  Uiso   1.00
C464   C     0.31367   0.80092   0.22791   0.00000  Uiso   1.00
H465   H     0.29832   0.77511   0.21116   0.00000  Uiso   1.00
C466   C     0.02797   0.80040   0.22693   0.00000  Uiso   1.00
N467   N     0.04760   0.83334   0.25001   0.00000  Uiso   1.00
C468   C     0.01867   0.86589   0.27260   0.00000  Uiso   1.00
H469   H     0.03211   0.89203   0.29098   0.00000  Uiso   1.00
C470   C     0.30441   0.86589   0.27248   0.00000  Uiso   1.00
H471   H     0.28259   0.89215   0.29055   0.00000  Uiso   1.00
N472   N     0.28573   0.83331   0.25000   0.00000  Uiso   1.00
N473   N     0.29288   0.83183   0.08075   0.00000  Uiso   1.00
O474   O     0.32225   0.86341   0.06524   0.00000  Uiso   1.00
O475   O     0.30406   0.80097   0.10621   0.00000  Uiso   1.00
S476   S     0.05732   0.75370   0.19721   0.00000  Uiso   1.00
O477   O     0.05898   0.72429   0.24089   0.00000  Uiso   1.00
O478   O     0.02993   0.73167   0.16468   0.00000  Uiso   1.00
O479   O     0.11172   0.76309   0.15590   0.00000  Uiso   1.00
H480   H     0.11626   0.74247   0.12597   0.00000  Uiso   1.00
S481   S     0.04265   0.77353   0.39721   0.00000  Uiso   1.00
O482   O     0.02225   0.80934   0.37562   0.00000  Uiso   1.00
O483   O     0.07024   0.74631   0.35138   0.00000  Uiso   1.00
O484   O     0.33295   0.74390   0.43861   0.00000  Uiso   1.00
H485   H     0.32131   0.72507   0.41470   0.00000  Uiso   1.00
S486   S     0.16205   0.95476   0.36073   0.00000  Uiso   1.00
O487   O     0.20605   0.93053   0.35413   0.00000  Uiso   1.00
O488   O     0.15627   0.98678   0.40523   0.00000  Uiso   1.00
O489   O     0.11552   0.92121   0.37661   0.00000  Uiso   1.00
H490   H     0.11596   0.90779   0.41034   0.00000  Uiso   1.00
O491   O     0.46179   0.89442   0.25000   0.00000  Uiso   1.00
O492   O     0.53823   0.89441   0.25000   0.00000  Uiso   1.00
C493   C     0.50008   0.91311   0.25145   0.00000  Uiso   1.00
O494   O     0.44280   0.83333   0.32681   0.00000  Uiso   1.00
O495   O     0.51924   0.83332   0.32681   0.00000  Uiso   1.00
C496   C     0.47476   0.82400   0.34924   0.00000  Uiso   1.00
Zn497  Zn    0.44896   0.83334   0.25000   0.00000  Uiso   1.00
Zn498  Zn    0.55104   0.83333   0.25000   0.00000  Uiso   1.00
O499   O     0.46177   0.77226   0.24999   0.00000  Uiso   1.00
O500   O     0.53821   0.77225   0.24999   0.00000  Uiso   1.00
O501   O     0.48076   0.83335   0.17319   0.00000  Uiso   1.00
O502   O     0.55720   0.83334   0.17319   0.00000  Uiso   1.00
C503   C     0.49971   0.75355   0.24955   0.00000  Uiso   1.00
C504   C     0.52586   0.83332   0.14808   0.00000  Uiso   1.00
C505   C     0.59947   0.81684   0.00366   0.00000  Uiso   1.00
H506   H     0.61041   0.78837   0.40398   0.00000  Uiso   1.00
H507   H     0.63591   0.81577   0.47962   0.00000  Uiso   1.00
C508   C     0.54091   0.82861   0.08963   0.00000  Uiso   1.00
C509   C     0.41373   0.79434   0.43178   0.00000  Uiso   1.00
C510   C     0.39988   0.79171   0.48776   0.00000  Uiso   1.00
C511   C     0.43218   0.80025   0.01548   0.00000  Uiso   1.00
C512   C     0.48046   0.80532   0.48684   0.00000  Uiso   1.00
C513   C     0.49420   0.80178   0.43058   0.00000  Uiso   1.00
C514   C     0.51604   0.81225   0.01143   0.00000  Uiso   1.00
C515   C     0.56383   0.80846   0.48058   0.00000  Uiso   1.00
C516   C     0.57521   0.79547   0.42723   0.00000  Uiso   1.00
C517   C     0.54084   0.79166   0.40256   0.00000  Uiso   1.00
C518   C     0.50558   0.82401   0.06514   0.00000  Uiso   1.00
C519   C     0.58856   0.82595   0.05824   0.00000  Uiso   1.00
C520   C     0.46041   0.80646   0.40410   0.00000  Uiso   1.00
H521   H     0.46969   0.82974   0.08851   0.00000  Uiso   1.00
H522   H     0.41932   0.79863   0.05873   0.00000  Uiso   1.00
H523   H     0.36429   0.78250   0.00998   0.00000  Uiso   1.00
H524   H     0.55106   0.77990   0.36162   0.00000  Uiso   1.00
C525   C     0.49916   0.97989   0.29959   0.00000  Uiso   1.00
C526   C     0.49880   0.69002   0.29806   0.00000  Uiso   1.00
H527   H     0.49801   0.70884   0.33330   0.00000  Uiso   1.00
C528   C     0.49877   0.70946   0.25085   0.00000  Uiso   1.00
C529   C     0.49986   0.68703   0.20447   0.00000  Uiso   1.00
H530   H     0.50086   0.70287   0.16784   0.00000  Uiso   1.00
C531   C     0.50070   0.97720   0.20528   0.00000  Uiso   1.00
H532   H     0.50159   0.95920   0.16937   0.00000  Uiso   1.00
C533   C     0.50060   0.95736   0.25239   0.00000  Uiso   1.00
C534   C     0.64700   0.80092   0.22791   0.00000  Uiso   1.00
H535   H     0.63166   0.77511   0.21116   0.00000  Uiso   1.00
C536   C     0.36130   0.80040   0.22693   0.00000  Uiso   1.00
N537   N     0.38093   0.83334   0.25001   0.00000  Uiso   1.00
C538   C     0.35201   0.86589   0.27260   0.00000  Uiso   1.00
H539   H     0.36545   0.89203   0.29098   0.00000  Uiso   1.00
C540   C     0.63775   0.86589   0.27248   0.00000  Uiso   1.00
H541   H     0.61592   0.89215   0.29055   0.00000  Uiso   1.00
N542   N     0.61906   0.83331   0.25000   0.00000  Uiso   1.00
N543   N     0.62621   0.83183   0.08075   0.00000  Uiso   1.00
O544   O     0.65558   0.86341   0.06524   0.00000  Uiso   1.00
O545   O     0.63739   0.80097   0.10621   0.00000  Uiso   1.00
S546   S     0.39065   0.75370   0.19721   0.00000  Uiso   1.00
O547   O     0.39231   0.72429   0.24089   0.00000  Uiso   1.00
O548   O     0.36326   0.73167   0.16468   0.00000  Uiso   1.00
O549   O     0.44506   0.76309   0.15590   0.00000  Uiso   1.00
H550   H     0.44959   0.74247   0.12597   0.00000  Uiso   1.00
S551   S     0.37599   0.77353   0.39721   0.00000  Uiso   1.00
O552   O     0.35559   0.80934   0.37562   0.00000  Uiso   1.00
O553   O     0.40358   0.74631   0.35138   0.00000  Uiso   1.00
O554   O     0.66629   0.74390   0.43861   0.00000  Uiso   1.00
H555   H     0.65464   0.72507   0.41470   0.00000  Uiso   1.00
S556   S     0.49538   0.95476   0.36073   0.00000  Uiso   1.00
O557   O     0.53938   0.93053   0.35413   0.00000  Uiso   1.00
O558   O     0.48960   0.98678   0.40523   0.00000  Uiso   1.00
O559   O     0.44886   0.92121   0.37661   0.00000  Uiso   1.00
H560   H     0.44929   0.90779   0.41034   0.00000  Uiso   1.00
O561   O     0.79512   0.89442   0.25000   0.00000  Uiso   1.00
O562   O     0.87157   0.89441   0.25000   0.00000  Uiso   1.00
C563   C     0.83341   0.91311   0.25145   0.00000  Uiso   1.00
O564   O     0.77613   0.83333   0.32681   0.00000  Uiso   1.00
O565   O     0.85258   0.83332   0.32681   0.00000  Uiso   1.00
C566   C     0.80809   0.82400   0.34924   0.00000  Uiso   1.00
Zn567  Zn    0.78229   0.83334   0.25000   0.00000  Uiso   1.00
Zn568  Zn    0.88438   0.83333   0.25000   0.00000  Uiso   1.00
O569   O     0.79510   0.77226   0.24999   0.00000  Uiso   1.00
O570   O     0.87154   0.77225   0.24999   0.00000  Uiso   1.00
O571   O     0.81409   0.83335   0.17319   0.00000  Uiso   1.00
O572   O     0.89053   0.83334   0.17319   0.00000  Uiso   1.00
C573   C     0.83304   0.75355   0.24955   0.00000  Uiso   1.00
C574   C     0.85919   0.83332   0.14808   0.00000  Uiso   1.00
C575   C     0.93281   0.81684   0.00366   0.00000  Uiso   1.00
H576   H     0.94374   0.78837   0.40398   0.00000  Uiso   1.00
H577   H     0.96924   0.81577   0.47962   0.00000  Uiso   1.00
C578   C     0.87424   0.82861   0.08963   0.00000  Uiso   1.00
C579   C     0.74706   0.79434   0.43178   0.00000  Uiso   1.00
C580   C     0.73322   0.79171   0.48776   0.00000  Uiso   1.00
C581   C     0.76551   0.80025   0.01548   0.00000  Uiso   1.00
C582   C     0.81380   0.80532   0.48684   0.00000  Uiso   1.00
C583   C     0.82754   0.80178   0.43058   0.00000  Uiso   1.00
C584   C     0.84938   0.81225   0.01143   0.00000  Uiso   1.00
C585   C     0.89717   0.80846   0.48058   0.00000  Uiso   1.00
C586   C     0.90855   0.79547   0.42723   0.00000  Uiso   1.00
C587   C     0.87418   0.79166   0.40256   0.00000  Uiso   1.00
C588   C     0.83892   0.82401   0.06514   0.00000  Uiso   1.00
C589   C     0.92189   0.82595   0.05824   0.00000  Uiso   1.00
C590   C     0.79375   0.80646   0.40410   0.00000  Uiso   1.00
H591   H     0.80302   0.82974   0.08851   0.00000  Uiso   1.00
H592   H     0.75265   0.79863   0.05873   0.00000  Uiso   1.00
H593   H     0.69762   0.78250   0.00998   0.00000  Uiso   1.00
H594   H     0.88439   0.77990   0.36162   0.00000  Uiso   1.00
C595   C     0.83249   0.97989   0.29959   0.00000  Uiso   1.00
C596   C     0.83214   0.69002   0.29806   0.00000  Uiso   1.00
H597   H     0.83135   0.70884   0.33330   0.00000  Uiso   1.00
C598   C     0.83210   0.70946   0.25085   0.00000  Uiso   1.00
C599   C     0.83319   0.68703   0.20447   0.00000  Uiso   1.00
H600   H     0.83419   0.70287   0.16784   0.00000  Uiso   1.00
C601   C     0.83403   0.97720   0.20528   0.00000  Uiso   1.00
H602   H     0.83492   0.95920   0.16937   0.00000  Uiso   1.00
C603   C     0.83393   0.95736   0.25239   0.00000  Uiso   1.00
C604   C     0.98033   0.80092   0.22791   0.00000  Uiso   1.00
H605   H     0.96499   0.77511   0.21116   0.00000  Uiso   1.00
C606   C     0.69463   0.80040   0.22693   0.00000  Uiso   1.00
N607   N     0.71426   0.83334   0.25001   0.00000  Uiso   1.00
C608   C     0.68534   0.86589   0.27260   0.00000  Uiso   1.00
H609   H     0.69878   0.89203   0.29098   0.00000  Uiso   1.00
C610   C     0.97108   0.86589   0.27248   0.00000  Uiso   1.00
H611   H     0.94925   0.89215   0.29055   0.00000  Uiso   1.00
N612   N     0.95239   0.83331   0.25000   0.00000  Uiso   1.00
N613   N     0.95954   0.83183   0.08075   0.00000  Uiso   1.00
O614   O     0.98892   0.86341   0.06524   0.00000  Uiso   1.00
O615   O     0.97073   0.80097   0.10621   0.00000  Uiso   1.00
S616   S     0.72399   0.75370   0.19721   0.00000  Uiso   1.00
O617   O     0.72564   0.72429   0.24089   0.00000  Uiso   1.00
O618   O     0.69659   0.73167   0.16468   0.00000  Uiso   1.00
O619   O     0.77839   0.76309   0.15590   0.00000  Uiso   1.00
H620   H     0.78293   0.74247   0.12597   0.00000  Uiso   1.00
S621   S     0.70932   0.77353   0.39721   0.00000  Uiso   1.00
O622   O     0.68892   0.80934   0.37562   0.00000  Uiso   1.00
O623   O     0.73691   0.74631   0.35138   0.00000  Uiso   1.00
O624   O     0.99962   0.74390   0.43861   0.00000  Uiso   1.00
H625   H     0.98798   0.72507   0.41470   0.00000  Uiso   1.00
S626   S     0.82872   0.95476   0.36073   0.00000  Uiso   1.00
O627   O     0.87271   0.93053   0.35413   0.00000  Uiso   1.00
O628   O     0.82293   0.98678   0.40523   0.00000  Uiso   1.00
O629   O     0.78219   0.92121   0.37661   0.00000  Uiso   1.00
H630   H     0.78263   0.90779   0.41034   0.00000  Uiso   1.00
O631   O     0.12846   0.22775   0.75000   0.00000  Uiso   1.00
O632   O     0.20490   0.22774   0.75000   0.00000  Uiso   1.00
C633   C     0.16674   0.24645   0.75145   0.00000  Uiso   1.00
O634   O     0.10947   0.16666   0.82681   0.00000  Uiso   1.00
O635   O     0.18591   0.16665   0.82681   0.00000  Uiso   1.00
C636   C     0.14143   0.15733   0.84924   0.00000  Uiso   1.00
Zn637  Zn    0.11562   0.16667   0.75000   0.00000  Uiso   1.00
Zn638  Zn    0.21771   0.16666   0.75000   0.00000  Uiso   1.00
O639   O     0.12843   0.10559   0.74999   0.00000  Uiso   1.00
O640   O     0.20488   0.10558   0.74999   0.00000  Uiso   1.00
O641   O     0.14742   0.16668   0.67319   0.00000  Uiso   1.00
O642   O     0.22387   0.16667   0.67319   0.00000  Uiso   1.00
C643   C     0.16637   0.08688   0.74955   0.00000  Uiso   1.00
C644   C     0.19252   0.16666   0.64808   0.00000  Uiso   1.00
C645   C     0.26614   0.15018   0.50366   0.00000  Uiso   1.00
H646   H     0.27708   0.12170   0.90398   0.00000  Uiso   1.00
H647   H     0.30258   0.14911   0.97962   0.00000  Uiso   1.00
C648   C     0.20758   0.16194   0.58963   0.00000  Uiso   1.00
C649   C     0.08040   0.12767   0.93178   0.00000  Uiso   1.00
C650   C     0.06655   0.12504   0.98776   0.00000  Uiso   1.00
C651   C     0.09885   0.13358   0.51548   0.00000  Uiso   1.00
C652   C     0.14713   0.13866   0.98684   0.00000  Uiso   1.00
C653   C     0.16087   0.13511   0.93058   0.00000  Uiso   1.00
C654   C     0.18271   0.14559   0.51143   0.00000  Uiso   1.00
C655   C     0.23050   0.14180   0.98058   0.00000  Uiso   1.00
C656   C     0.24188   0.12881   0.92723   0.00000  Uiso   1.00
C657   C     0.20751   0.12499   0.90256   0.00000  Uiso   1.00
C658   C     0.17225   0.15734   0.56514   0.00000  Uiso   1.00
C659   C     0.25522   0.15928   0.55824   0.00000  Uiso   1.00
C660   C     0.12708   0.13979   0.90410   0.00000  Uiso   1.00
H661   H     0.13635   0.16308   0.58851   0.00000  Uiso   1.00
H662   H     0.08598   0.13196   0.55873   0.00000  Uiso   1.00
H663   H     0.03096   0.11583   0.50998   0.00000  Uiso   1.00
H664   H     0.21772   0.11323   0.86162   0.00000  Uiso   1.00
C665   C     0.16582   0.31322   0.79959   0.00000  Uiso   1.00
C666   C     0.16547   0.02335   0.79806   0.00000  Uiso   1.00
H667   H     0.16468   0.04218   0.83330   0.00000  Uiso   1.00
C668   C     0.16543   0.04279   0.75085   0.00000  Uiso   1.00
C669   C     0.16652   0.02036   0.70447   0.00000  Uiso   1.00
H670   H     0.16752   0.03620   0.66784   0.00000  Uiso   1.00
C671   C     0.16737   0.31053   0.70528   0.00000  Uiso   1.00
H672   H     0.16825   0.29254   0.66937   0.00000  Uiso   1.00
C673   C     0.16726   0.29070   0.75239   0.00000  Uiso   1.00
C674   C     0.31367   0.13426   0.72791   0.00000  Uiso   1.00
H675   H     0.29832   0.10844   0.71116   0.00000  Uiso   1.00
C676   C     0.02797   0.13373   0.72693   0.00000  Uiso   1.00
N677   N     0.04760   0.16668   0.75001   0.00000  Uiso   1.00
C678   C     0.01867   0.19922   0.77260   0.00000  Uiso   1.00
H679   H     0.03211   0.22537   0.79098   0.00000  Uiso   1.00
C680   C     0.30441   0.19922   0.77248   0.00000  Uiso   1.00
H681   H     0.28259   0.22549   0.79055   0.00000  Uiso   1.00
N682   N     0.28573   0.16665   0.75000   0.00000  Uiso   1.00
N683   N     0.29288   0.16516   0.58075   0.00000  Uiso   1.00
O684   O     0.32225   0.19674   0.56524   0.00000  Uiso   1.00
O685   O     0.30406   0.13430   0.60621   0.00000  Uiso   1.00
S686   S     0.05732   0.08703   0.69721   0.00000  Uiso   1.00
O687   O     0.05898   0.05763   0.74089   0.00000  Uiso   1.00
O688   O     0.02993   0.06500   0.66468   0.00000  Uiso   1.00
O689   O     0.11172   0.09642   0.65590   0.00000  Uiso   1.00
H690   H     0.11626   0.07580   0.62597   0.00000  Uiso   1.00
S691   S     0.04265   0.10687   0.89721   0.00000  Uiso   1.00
O692   O     0.02225   0.14268   0.87562   0.00000  Uiso   1.00
O693   O     0.07024   0.07965   0.85138   0.00000  Uiso   1.00
O694   O     0.33295   0.07723   0.93861   0.00000  Uiso   1.00
H695   H     0.32131   0.05840   0.91470   0.00000  Uiso   1.00
S696   S     0.16205   0.28809   0.86073   0.00000  Uiso   1.00
O697   O     0.20605   0.26387   0.85413   0.00000  Uiso   1.00
O698   O     0.15627   0.32011   0.90523   0.00000  Uiso   1.00
O699   O     0.11552   0.25455   0.87661   0.00000  Uiso   1.00
H700   H     0.11596   0.24113   0.91034   0.00000  Uiso   1.00
O701   O     0.46179   0.22775   0.75000   0.00000  Uiso   1.00
O702   O     0.53823   0.22774   0.75000   0.00000  Uiso   1.00
C703   C     0.50008   0.24645   0.75145   0.00000  Uiso   1.00
O704   O     0.44280   0.16666   0.82681   0.00000  Uiso   1.00
O705   O     0.51924   0.16665   0.82681   0.00000  Uiso   1.00
C706   C     0.47476   0.15733   0.84924   0.00000  Uiso   1.00
Zn707  Zn    0.44896   0.16667   0.75000   0.00000  Uiso   1.00
Zn708  Zn    0.55104   0.16666   0.75000   0.00000  Uiso   1.00
O709   O     0.46177   0.10559   0.74999   0.00000  Uiso   1.00
O710   O     0.53821   0.10558   0.74999   0.00000  Uiso   1.00
O711   O     0.48076   0.16668   0.67319   0.00000  Uiso   1.00
O712   O     0.55720   0.16667   0.67319   0.00000  Uiso   1.00
C713   C     0.49971   0.08688   0.74955   0.00000  Uiso   1.00
C714   C     0.52586   0.16666   0.64808   0.00000  Uiso   1.00
C715   C     0.59947   0.15018   0.50366   0.00000  Uiso   1.00
H716   H     0.61041   0.12170   0.90398   0.00000  Uiso   1.00
H717   H     0.63591   0.14911   0.97962   0.00000  Uiso   1.00
C718   C     0.54091   0.16194   0.58963   0.00000  Uiso   1.00
C719   C     0.41373   0.12767   0.93178   0.00000  Uiso   1.00
C720   C     0.39988   0.12504   0.98776   0.00000  Uiso   1.00
C721   C     0.43218   0.13358   0.51548   0.00000  Uiso   1.00
C722   C     0.48046   0.13866   0.98684   0.00000  Uiso   1.00
C723   C     0.49420   0.13511   0.93058   0.00000  Uiso   1.00
C724   C     0.51604   0.14559   0.51143   0.00000  Uiso   1.00
C725   C     0.56383   0.14180   0.98058   0.00000  Uiso   1.00
C726   C     0.57521   0.12881   0.92723   0.00000  Uiso   1.00
C727   C     0.54084   0.12499   0.90256   0.00000  Uiso   1.00
C728   C     0.50558   0.15734   0.56514   0.00000  Uiso   1.00
C729   C     0.58856   0.15928   0.55824   0.00000  Uiso   1.00
C730   C     0.46041   0.13979   0.90410   0.00000  Uiso   1.00
H731   H     0.46969   0.16308   0.58851   0.00000  Uiso   1.00
H732   H     0.41932   0.13196   0.55873   0.00000  Uiso   1.00
H733   H     0.36429   0.11583   0.50998   0.00000  Uiso   1.00
H734   H     0.55106   0.11323   0.86162   0.00000  Uiso   1.00
C735   C     0.49916   0.31322   0.79959   0.00000  Uiso   1.00
C736   C     0.49880   0.02335   0.79806   0.00000  Uiso   1.00
H737   H     0.49801   0.04218   0.83330   0.00000  Uiso   1.00
C738   C     0.49877   0.04279   0.75085   0.00000  Uiso   1.00
C739   C     0.49986   0.02036   0.70447   0.00000  Uiso   1.00
H740   H     0.50086   0.03620   0.66784   0.00000  Uiso   1.00
C741   C     0.50070   0.31053   0.70528   0.00000  Uiso   1.00
H742   H     0.50159   0.29254   0.66937   0.00000  Uiso   1.00
C743   C     0.50060   0.29070   0.75239   0.00000  Uiso   1.00
C744   C     0.64700   0.13426   0.72791   0.00000  Uiso   1.00
H745   H     0.63166   0.10844   0.71116   0.00000  Uiso   1.00
C746   C     0.36130   0.13373   0.72693   0.00000  Uiso   1.00
N747   N     0.38093   0.16668   0.75001   0.00000  Uiso   1.00
C748   C     0.35201   0.19922   0.77260   0.00000  Uiso   1.00
H749   H     0.36545   0.22537   0.79098   0.00000  Uiso   1.00
C750   C     0.63775   0.19922   0.77248   0.00000  Uiso   1.00
H751   H     0.61592   0.22549   0.79055   0.00000  Uiso   1.00
N752   N     0.61906   0.16665   0.75000   0.00000  Uiso   1.00
N753   N     0.62621   0.16516   0.58075   0.00000  Uiso   1.00
O754   O     0.65558   0.19674   0.56524   0.00000  Uiso   1.00
O755   O     0.63739   0.13430   0.60621   0.00000  Uiso   1.00
S756   S     0.39065   0.08703   0.69721   0.00000  Uiso   1.00
O757   O     0.39231   0.05763   0.74089   0.00000  Uiso   1.00
O758   O     0.36326   0.06500   0.66468   0.00000  Uiso   1.00
O759   O     0.44506   0.09642   0.65590   0.00000  Uiso   1.00
H760   H     0.44959   0.07580   0.62597   0.00000  Uiso   1.00
S761   S     0.37599   0.10687   0.89721   0.00000  Uiso   1.00
O762   O     0.35559   0.14268   0.87562   0.00000  Uiso   1.00
O763   O     0.40358   0.07965   0.85138   0.00000  Uiso   1.00
O764   O     0.66629   0.07723   0.93861   0.00000  Uiso   1.00
H765   H     0.65464   0.05840   0.91470   0.00000  Uiso   1.00
S766   S     0.49538   0.28809   0.86073   0.00000  Uiso   1.00
O767   O     0.53938   0.26387   0.85413   0.00000  Uiso   1.00
O768   O     0.48960   0.32011   0.90523   0.00000  Uiso   1.00
O769   O     0.44886   0.25455   0.87661   0.00000  Uiso   1.00
H770   H     0.44929   0.24113   0.91034   0.00000  Uiso   1.00
O771   O     0.79512   0.22775   0.75000   0.00000  Uiso   1.00
O772   O     0.87157   0.22774   0.75000   0.00000  Uiso   1.00
C773   C     0.83341   0.24645   0.75145   0.00000  Uiso   1.00
O774   O     0.77613   0.16666   0.82681   0.00000  Uiso   1.00
O775   O     0.85258   0.16665   0.82681   0.00000  Uiso   1.00
C776   C     0.80809   0.15733   0.84924   0.00000  Uiso   1.00
Zn777  Zn    0.78229   0.16667   0.75000   0.00000  Uiso   1.00
Zn778  Zn    0.88438   0.16666   0.75000   0.00000  Uiso   1.00
O779   O     0.79510   0.10559   0.74999   0.00000  Uiso   1.00
O780   O     0.87154   0.10558   0.74999   0.00000  Uiso   1.00
O781   O     0.81409   0.16668   0.67319   0.00000  Uiso   1.00
O782   O     0.89053   0.16667   0.67319   0.00000  Uiso   1.00
C783   C     0.83304   0.08688   0.74955   0.00000  Uiso   1.00
C784   C     0.85919   0.16666   0.64808   0.00000  Uiso   1.00
C785   C     0.93281   0.15018   0.50366   0.00000  Uiso   1.00
H786   H     0.94374   0.12170   0.90398   0.00000  Uiso   1.00
H787   H     0.96924   0.14911   0.97962   0.00000  Uiso   1.00
C788   C     0.87424   0.16194   0.58963   0.00000  Uiso   1.00
C789   C     0.74706   0.12767   0.93178   0.00000  Uiso   1.00
C790   C     0.73322   0.12504   0.98776   0.00000  Uiso   1.00
C791   C     0.76551   0.13358   0.51548   0.00000  Uiso   1.00
C792   C     0.81380   0.13866   0.98684   0.00000  Uiso   1.00
C793   C     0.82754   0.13511   0.93058   0.00000  Uiso   1.00
C794   C     0.84938   0.14559   0.51143   0.00000  Uiso   1.00
C795   C     0.89717   0.14180   0.98058   0.00000  Uiso   1.00
C796   C     0.90855   0.12881   0.92723   0.00000  Uiso   1.00
C797   C     0.87418   0.12499   0.90256   0.00000  Uiso   1.00
C798   C     0.83892   0.15734   0.56514   0.00000  Uiso   1.00
C799   C     0.92189   0.15928   0.55824   0.00000  Uiso   1.00
C800   C     0.79375   0.13979   0.90410   0.00000  Uiso   1.00
H801   H     0.80302   0.16308   0.58851   0.00000  Uiso   1.00
H802   H     0.75265   0.13196   0.55873   0.00000  Uiso   1.00
H803   H     0.69762   0.11583   0.50998   0.00000  Uiso   1.00
H804   H     0.88439   0.11323   0.86162   0.00000  Uiso   1.00
C805   C     0.83249   0.31322   0.79959   0.00000  Uiso   1.00
C806   C     0.83214   0.02335   0.79806   0.00000  Uiso   1.00
H807   H     0.83135   0.04218   0.83330   0.00000  Uiso   1.00
C808   C     0.83210   0.04279   0.75085   0.00000  Uiso   1.00
C809   C     0.83319   0.02036   0.70447   0.00000  Uiso   1.00
H810   H     0.83419   0.03620   0.66784   0.00000  Uiso   1.00
C811   C     0.83403   0.31053   0.70528   0.00000  Uiso   1.00
H812   H     0.83492   0.29254   0.66937   0.00000  Uiso   1.00
C813   C     0.83393   0.29070   0.75239   0.00000  Uiso   1.00
C814   C     0.98033   0.13426   0.72791   0.00000  Uiso   1.00
H815   H     0.96499   0.10844   0.71116   0.00000  Uiso   1.00
C816   C     0.69463   0.13373   0.72693   0.00000  Uiso   1.00
N817   N     0.71426   0.16668   0.75001   0.00000  Uiso   1.00
C818   C     0.68534   0.19922   0.77260   0.00000  Uiso   1.00
H819   H     0.69878   0.22537   0.79098   0.00000  Uiso   1.00
C820   C     0.97108   0.19922   0.77248   0.00000  Uiso   1.00
H821   H     0.94925   0.22549   0.79055   0.00000  Uiso   1.00
N822   N     0.95239   0.16665   0.75000   0.00000  Uiso   1.00
N823   N     0.95954   0.16516   0.58075   0.00000  Uiso   1.00
O824   O     0.98892   0.19674   0.56524   0.00000  Uiso   1.00
O825   O     0.97073   0.13430   0.60621   0.00000  Uiso   1.00
S826   S     0.72399   0.08703   0.69721   0.00000  Uiso   1.00
O827   O     0.72564   0.05763   0.74089   0.00000  Uiso   1.00
O828   O     0.69659   0.06500   0.66468   0.00000  Uiso   1.00
O829   O     0.77839   0.09642   0.65590   0.00000  Uiso   1.00
H830   H     0.78293   0.07580   0.62597   0.00000  Uiso   1.00
S831   S     0.70932   0.10687   0.89721   0.00000  Uiso   1.00
O832   O     0.68892   0.14268   0.87562   0.00000  Uiso   1.00
O833   O     0.73691   0.07965   0.85138   0.00000  Uiso   1.00
O834   O     0.99962   0.07723   0.93861   0.00000  Uiso   1.00
H835   H     0.98798   0.05840   0.91470   0.00000  Uiso   1.00
S836   S     0.82872   0.28809   0.86073   0.00000  Uiso   1.00
O837   O     0.87271   0.26387   0.85413   0.00000  Uiso   1.00
O838   O     0.82293   0.32011   0.90523   0.00000  Uiso   1.00
O839   O     0.78219   0.25455   0.87661   0.00000  Uiso   1.00
H840   H     0.78263   0.24113   0.91034   0.00000  Uiso   1.00
O841   O     0.12846   0.56108   0.75000   0.00000  Uiso   1.00
O842   O     0.20490   0.56107   0.75000   0.00000  Uiso   1.00
C843   C     0.16674   0.57978   0.75145   0.00000  Uiso   1.00
O844   O     0.10947   0.50000   0.82681   0.00000  Uiso   1.00
O845   O     0.18591   0.49999   0.82681   0.00000  Uiso   1.00
C846   C     0.14143   0.49067   0.84924   0.00000  Uiso   1.00
Zn847  Zn    0.11562   0.50001   0.75000   0.00000  Uiso   1.00
Zn848  Zn    0.21771   0.49999   0.75000   0.00000  Uiso   1.00
O849   O     0.12843   0.43893   0.74999   0.00000  Uiso   1.00
O850   O     0.20488   0.43892   0.74999   0.00000  Uiso   1.00
O851   O     0.14742   0.50001   0.67319   0.00000  Uiso   1.00
O852   O     0.22387   0.50000   0.67319   0.00000  Uiso   1.00
C853   C     0.16637   0.42022   0.74955   0.00000  Uiso   1.00
C854   C     0.19252   0.49999   0.64808   0.00000  Uiso   1.00
C855   C     0.26614   0.48351   0.50366   0.00000  Uiso   1.00
H856   H     0.27708   0.45503   0.90398   0.00000  Uiso   1.00
H857   H     0.30258   0.48244   0.97962   0.00000  Uiso   1.00
C858   C     0.20758   0.49528   0.58963   0.00000  Uiso   1.00
C859   C     0.08040   0.46100   0.93178   0.00000  Uiso   1.00
C860   C     0.06655   0.45837   0.98776   0.00000  Uiso   1.00
C861   C     0.09885   0.46692   0.51548   0.00000  Uiso   1.00
C862   C     0.14713   0.47199   0.98684   0.00000  Uiso   1.00
C863   C     0.16087   0.46845   0.93058   0.00000  Uiso   1.00
C864   C     0.18271   0.47892   0.51143   0.00000  Uiso   1.00
C865   C     0.23050   0.47513   0.98058   0.00000  Uiso   1.00
C866   C     0.24188   0.46214   0.92723   0.00000  Uiso   1.00
C867   C     0.20751   0.45833   0.90256   0.00000  Uiso   1.00
C868   C     0.17225   0.49068   0.56514   0.00000  Uiso   1.00
C869   C     0.25522   0.49261   0.55824   0.00000  Uiso   1.00
C870   C     0.12708   0.47312   0.90410   0.00000  Uiso   1.00
H871   H     0.13635   0.49641   0.58851   0.00000  Uiso   1.00
H872   H     0.08598   0.46529   0.55873   0.00000  Uiso   1.00
H873   H     0.03096   0.44917   0.50998   0.00000  Uiso   1.00
H874   H     0.21772   0.44657   0.86162   0.00000  Uiso   1.00
C875   C     0.16582   0.64656   0.79959   0.00000  Uiso   1.00
C876   C     0.16547   0.35668   0.79806   0.00000  Uiso   1.00
H877   H     0.16468   0.37551   0.83330   0.00000  Uiso   1.00
C878   C     0.16543   0.37613   0.75085   0.00000  Uiso   1.00
C879   C     0.16652   0.35370   0.70447   0.00000  Uiso   1.00
H880   H     0.16752   0.36953   0.66784   0.00000  Uiso   1.00
C881   C     0.16737   0.64386   0.70528   0.00000  Uiso   1.00
H882   H     0.16825   0.62587   0.66937   0.00000  Uiso   1.00
C883   C     0.16726   0.62403   0.75239   0.00000  Uiso   1.00
C884   C     0.31367   0.46759   0.72791   0.00000  Uiso   1.00
H885   H     0.29832   0.44178   0.71116   0.00000  Uiso   1.00
C886   C     0.02797   0.46707   0.72693   0.00000  Uiso   1.00
N887   N     0.04760   0.50001   0.75001   0.00000  Uiso   1.00
C888   C     0.01867   0.53256   0.77260   0.00000  Uiso   1.00
H889   H     0.03211   0.55870   0.79098   0.00000  Uiso   1.00
C890   C     0.30441   0.53256   0.77248   0.00000  Uiso   1.00
H891   H     0.28259   0.55882   0.79055   0.00000  Uiso   1.00
N892   N     0.28573   0.49998   0.75000   0.00000  Uiso   1.00
N893   N     0.29288   0.49849   0.58075   0.00000  Uiso   1.00
O894   O     0.32225   0.53007   0.56524   0.00000  Uiso   1.00
O895   O     0.30406   0.46763   0.60621   0.00000  Uiso   1.00
S896   S     0.05732   0.42036   0.69721   0.00000  Uiso   1.00
O897   O     0.05898   0.39096   0.74089   0.00000  Uiso   1.00
O898   O     0.02993   0.39834   0.66468   0.00000  Uiso   1.00
O899   O     0.11172   0.42976   0.65590   0.00000  Uiso   1.00
H900   H     0.11626   0.40913   0.62597   0.00000  Uiso   1.00
S901   S     0.04265   0.44020   0.89721   0.00000  Uiso   1.00
O902   O     0.02225   0.47601   0.87562   0.00000  Uiso   1.00
O903   O     0.07024   0.41298   0.85138   0.00000  Uiso   1.00
O904   O     0.33295   0.41057   0.93861   0.00000  Uiso   1.00
H905   H     0.32131   0.39173   0.91470   0.00000  Uiso   1.00
S906   S     0.16205   0.62142   0.86073   0.00000  Uiso   1.00
O907   O     0.20605   0.59720   0.85413   0.00000  Uiso   1.00
O908   O     0.15627   0.65345   0.90523   0.00000  Uiso   1.00
O909   O     0.11552   0.58788   0.87661   0.00000  Uiso   1.00
H910   H     0.11596   0.57446   0.91034   0.00000  Uiso   1.00
O911   O     0.46179   0.56108   0.75000   0.00000  Uiso   1.00
O912   O     0.53823   0.56107   0.75000   0.00000  Uiso   1.00
C913   C     0.50008   0.57978   0.75145   0.00000  Uiso   1.00
O914   O     0.44280   0.50000   0.82681   0.00000  Uiso   1.00
O915   O     0.51924   0.49999   0.82681   0.00000  Uiso   1.00
C916   C     0.47476   0.49067   0.84924   0.00000  Uiso   1.00
Zn917  Zn    0.44896   0.50001   0.75000   0.00000  Uiso   1.00
Zn918  Zn    0.55104   0.49999   0.75000   0.00000  Uiso   1.00
O919   O     0.46177   0.43893   0.74999   0.00000  Uiso   1.00
O920   O     0.53821   0.43892   0.74999   0.00000  Uiso   1.00
O921   O     0.48076   0.50001   0.67319   0.00000  Uiso   1.00
O922   O     0.55720   0.50000   0.67319   0.00000  Uiso   1.00
C923   C     0.49971   0.42022   0.74955   0.00000  Uiso   1.00
C924   C     0.52586   0.49999   0.64808   0.00000  Uiso   1.00
C925   C     0.59947   0.48351   0.50366   0.00000  Uiso   1.00
H926   H     0.61041   0.45503   0.90398   0.00000  Uiso   1.00
H927   H     0.63591   0.48244   0.97962   0.00000  Uiso   1.00
C928   C     0.54091   0.49528   0.58963   0.00000  Uiso   1.00
C929   C     0.41373   0.46100   0.93178   0.00000  Uiso   1.00
C930   C     0.39988   0.45837   0.98776   0.00000  Uiso   1.00
C931   C     0.43218   0.46692   0.51548   0.00000  Uiso   1.00
C932   C     0.48046   0.47199   0.98684   0.00000  Uiso   1.00
C933   C     0.49420   0.46845   0.93058   0.00000  Uiso   1.00
C934   C     0.51604   0.47892   0.51143   0.00000  Uiso   1.00
C935   C     0.56383   0.47513   0.98058   0.00000  Uiso   1.00
C936   C     0.57521   0.46214   0.92723   0.00000  Uiso   1.00
C937   C     0.54084   0.45833   0.90256   0.00000  Uiso   1.00
C938   C     0.50558   0.49068   0.56514   0.00000  Uiso   1.00
C939   C     0.58856   0.49261   0.55824   0.00000  Uiso   1.00
C940   C     0.46041   0.47312   0.90410   0.00000  Uiso   1.00
H941   H     0.46969   0.49641   0.58851   0.00000  Uiso   1.00
H942   H     0.41932   0.46529   0.55873   0.00000  Uiso   1.00
H943   H     0.36429   0.44917   0.50998   0.00000  Uiso   1.00
H944   H     0.55106   0.44657   0.86162   0.00000  Uiso   1.00
C945   C     0.49916   0.64656   0.79959   0.00000  Uiso   1.00
C946   C     0.49880   0.35668   0.79806   0.00000  Uiso   1.00
H947   H     0.49801   0.37551   0.83330   0.00000  Uiso   1.00
C948   C     0.49877   0.37613   0.75085   0.00000  Uiso   1.00
C949   C     0.49986   0.35370   0.70447   0.00000  Uiso   1.00
H950   H     0.50086   0.36953   0.66784   0.00000  Uiso   1.00
C951   C     0.50070   0.64386   0.70528   0.00000  Uiso   1.00
H952   H     0.50159   0.62587   0.66937   0.00000  Uiso   1.00
C953   C     0.50060   0.62403   0.75239   0.00000  Uiso   1.00
C954   C     0.64700   0.46759   0.72791   0.00000  Uiso   1.00
H955   H     0.63166   0.44178   0.71116   0.00000  Uiso   1.00
C956   C     0.36130   0.46707   0.72693   0.00000  Uiso   1.00
N957   N     0.38093   0.50001   0.75001   0.00000  Uiso   1.00
C958   C     0.35201   0.53256   0.77260   0.00000  Uiso   1.00
H959   H     0.36545   0.55870   0.79098   0.00000  Uiso   1.00
C960   C     0.63775   0.53256   0.77248   0.00000  Uiso   1.00
H961   H     0.61592   0.55882   0.79055   0.00000  Uiso   1.00
N962   N     0.61906   0.49998   0.75000   0.00000  Uiso   1.00
N963   N     0.62621   0.49849   0.58075   0.00000  Uiso   1.00
O964   O     0.65558   0.53007   0.56524   0.00000  Uiso   1.00
O965   O     0.63739   0.46763   0.60621   0.00000  Uiso   1.00
S966   S     0.39065   0.42036   0.69721   0.00000  Uiso   1.00
O967   O     0.39231   0.39096   0.74089   0.00000  Uiso   1.00
O968   O     0.36326   0.39834   0.66468   0.00000  Uiso   1.00
O969   O     0.44506   0.42976   0.65590   0.00000  Uiso   1.00
H970   H     0.44959   0.40913   0.62597   0.00000  Uiso   1.00
S971   S     0.37599   0.44020   0.89721   0.00000  Uiso   1.00
O972   O     0.35559   0.47601   0.87562   0.00000  Uiso   1.00
O973   O     0.40358   0.41298   0.85138   0.00000  Uiso   1.00
O974   O     0.66629   0.41057   0.93861   0.00000  Uiso   1.00
H975   H     0.65464   0.39173   0.91470   0.00000  Uiso   1.00
S976   S     0.49538   0.62142   0.86073   0.00000  Uiso   1.00
O977   O     0.53938   0.59720   0.85413   0.00000  Uiso   1.00
O978   O     0.48960   0.65345   0.90523   0.00000  Uiso   1.00
O979   O     0.44886   0.58788   0.87661   0.00000  Uiso   1.00
H980   H     0.44929   0.57446   0.91034   0.00000  Uiso   1.00
O981   O     0.79512   0.56108   0.75000   0.00000  Uiso   1.00
O982   O     0.87157   0.56107   0.75000   0.00000  Uiso   1.00
C983   C     0.83341   0.57978   0.75145   0.00000  Uiso   1.00
O984   O     0.77613   0.50000   0.82681   0.00000  Uiso   1.00
O985   O     0.85258   0.49999   0.82681   0.00000  Uiso   1.00
C986   C     0.80809   0.49067   0.84924   0.00000  Uiso   1.00
Zn987  Zn    0.78229   0.50001   0.75000   0.00000  Uiso   1.00
Zn988  Zn    0.88438   0.49999   0.75000   0.00000  Uiso   1.00
O989   O     0.79510   0.43893   0.74999   0.00000  Uiso   1.00
O990   O     0.87154   0.43892   0.74999   0.00000  Uiso   1.00
O991   O     0.81409   0.50001   0.67319   0.00000  Uiso   1.00
O992   O     0.89053   0.50000   0.67319   0.00000  Uiso   1.00
C993   C     0.83304   0.42022   0.74955   0.00000  Uiso   1.00
C994   C     0.85919   0.49999   0.64808   0.00000  Uiso   1.00
C995   C     0.93281   0.48351   0.50366   0.00000  Uiso   1.00
H996   H     0.94374   0.45503   0.90398   0.00000  Uiso   1.00
H997   H     0.96924   0.48244   0.97962   0.00000  Uiso   1.00
C998   C     0.87424   0.49528   0.58963   0.00000  Uiso   1.00
C999   C     0.74706   0.46100   0.93178   0.00000  Uiso   1.00
C1000  C     0.73322   0.45837   0.98776   0.00000  Uiso   1.00
C1001  C     0.76551   0.46692   0.51548   0.00000  Uiso   1.00
C1002  C     0.81380   0.47199   0.98684   0.00000  Uiso   1.00
C1003  C     0.82754   0.46845   0.93058   0.00000  Uiso   1.00
C1004  C     0.84938   0.47892   0.51143   0.00000  Uiso   1.00
C1005  C     0.89717   0.47513   0.98058   0.00000  Uiso   1.00
C1006  C     0.90855   0.46214   0.92723   0.00000  Uiso   1.00
C1007  C     0.87418   0.45833   0.90256   0.00000  Uiso   1.00
C1008  C     0.83892   0.49068   0.56514   0.00000  Uiso   1.00
C1009  C     0.92189   0.49261   0.55824   0.00000  Uiso   1.00
C1010  C     0.79375   0.47312   0.90410   0.00000  Uiso   1.00
H1011  H     0.80302   0.49641   0.58851   0.00000  Uiso   1.00
H1012  H     0.75265   0.46529   0.55873   0.00000  Uiso   1.00
H1013  H     0.69762   0.44917   0.50998   0.00000  Uiso   1.00
H1014  H     0.88439   0.44657   0.86162   0.00000  Uiso   1.00
C1015  C     0.83249   0.64656   0.79959   0.00000  Uiso   1.00
C1016  C     0.83214   0.35668   0.79806   0.00000  Uiso   1.00
H1017  H     0.83135   0.37551   0.83330   0.00000  Uiso   1.00
C1018  C     0.83210   0.37613   0.75085   0.00000  Uiso   1.00
C1019  C     0.83319   0.35370   0.70447   0.00000  Uiso   1.00
H1020  H     0.83419   0.36953   0.66784   0.00000  Uiso   1.00
C1021  C     0.83403   0.64386   0.70528   0.00000  Uiso   1.00
H1022  H     0.83492   0.62587   0.66937   0.00000  Uiso   1.00
C1023  C     0.83393   0.62403   0.75239   0.00000  Uiso   1.00
C1024  C     0.98033   0.46759   0.72791   0.00000  Uiso   1.00
H1025  H     0.96499   0.44178   0.71116   0.00000  Uiso   1.00
C1026  C     0.69463   0.46707   0.72693   0.00000  Uiso   1.00
N1027  N     0.71426   0.50001   0.75001   0.00000  Uiso   1.00
C1028  C     0.68534   0.53256   0.77260   0.00000  Uiso   1.00
H1029  H     0.69878   0.55870   0.79098   0.00000  Uiso   1.00
C1030  C     0.97108   0.53256   0.77248   0.00000  Uiso   1.00
H1031  H     0.94925   0.55882   0.79055   0.00000  Uiso   1.00
N1032  N     0.95239   0.49998   0.75000   0.00000  Uiso   1.00
N1033  N     0.95954   0.49849   0.58075   0.00000  Uiso   1.00
O1034  O     0.98892   0.53007   0.56524   0.00000  Uiso   1.00
O1035  O     0.97073   0.46763   0.60621   0.00000  Uiso   1.00
S1036  S     0.72399   0.42036   0.69721   0.00000  Uiso   1.00
O1037  O     0.72564   0.39096   0.74089   0.00000  Uiso   1.00
O1038  O     0.69659   0.39834   0.66468   0.00000  Uiso   1.00
O1039  O     0.77839   0.42976   0.65590   0.00000  Uiso   1.00
H1040  H     0.78293   0.40913   0.62597   0.00000  Uiso   1.00
S1041  S     0.70932   0.44020   0.89721   0.00000  Uiso   1.00
O1042  O     0.68892   0.47601   0.87562   0.00000  Uiso   1.00
O1043  O     0.73691   0.41298   0.85138   0.00000  Uiso   1.00
O1044  O     0.99962   0.41057   0.93861   0.00000  Uiso   1.00
H1045  H     0.98798   0.39173   0.91470   0.00000  Uiso   1.00
S1046  S     0.82872   0.62142   0.86073   0.00000  Uiso   1.00
O1047  O     0.87271   0.59720   0.85413   0.00000  Uiso   1.00
O1048  O     0.82293   0.65345   0.90523   0.00000  Uiso   1.00
O1049  O     0.78219   0.58788   0.87661   0.00000  Uiso   1.00
H1050  H     0.78263   0.57446   0.91034   0.00000  Uiso   1.00
O1051  O     0.12846   0.89442   0.75000   0.00000  Uiso   1.00
O1052  O     0.20490   0.89441   0.75000   0.00000  Uiso   1.00
C1053  C     0.16674   0.91311   0.75145   0.00000  Uiso   1.00
O1054  O     0.10947   0.83333   0.82681   0.00000  Uiso   1.00
O1055  O     0.18591   0.83332   0.82681   0.00000  Uiso   1.00
C1056  C     0.14143   0.82400   0.84924   0.00000  Uiso   1.00
Zn1057 Zn    0.11562   0.83334   0.75000   0.00000  Uiso   1.00
Zn1058 Zn    0.21771   0.83333   0.75000   0.00000  Uiso   1.00
O1059  O     0.12843   0.77226   0.74999   0.00000  Uiso   1.00
O1060  O     0.20488   0.77225   0.74999   0.00000  Uiso   1.00
O1061  O     0.14742   0.83335   0.67319   0.00000  Uiso   1.00
O1062  O     0.22387   0.83334   0.67319   0.00000  Uiso   1.00
C1063  C     0.16637   0.75355   0.74955   0.00000  Uiso   1.00
C1064  C     0.19252   0.83332   0.64808   0.00000  Uiso   1.00
C1065  C     0.26614   0.81684   0.50366   0.00000  Uiso   1.00
H1066  H     0.27708   0.78837   0.90398   0.00000  Uiso   1.00
H1067  H     0.30258   0.81577   0.97962   0.00000  Uiso   1.00
C1068  C     0.20758   0.82861   0.58963   0.00000  Uiso   1.00
C1069  C     0.08040   0.79434   0.93178   0.00000  Uiso   1.00
C1070  C     0.06655   0.79171   0.98776   0.00000  Uiso   1.00
C1071  C     0.09885   0.80025   0.51548   0.00000  Uiso   1.00
C1072  C     0.14713   0.80532   0.98684   0.00000  Uiso   1.00
C1073  C     0.16087   0.80178   0.93058   0.00000  Uiso   1.00
C1074  C     0.18271   0.81225   0.51143   0.00000  Uiso   1.00
C1075  C     0.23050   0.80846   0.98058   0.00000  Uiso   1.00
C1076  C     0.24188   0.79547   0.92723   0.00000  Uiso   1.00
C1077  C     0.20751   0.79166   0.90256   0.00000  Uiso   1.00
C1078  C     0.17225   0.82401   0.56514   0.00000  Uiso   1.00
C1079  C     0.25522   0.82595   0.55824   0.00000  Uiso   1.00
C1080  C     0.12708   0.80646   0.90410   0.00000  Uiso   1.00
H1081  H     0.13635   0.82974   0.58851   0.00000  Uiso   1.00
H1082  H     0.08598   0.79863   0.55873   0.00000  Uiso   1.00
H1083  H     0.03096   0.78250   0.50998   0.00000  Uiso   1.00
H1084  H     0.21772   0.77990   0.86162   0.00000  Uiso   1.00
C1085  C     0.16582   0.97989   0.79959   0.00000  Uiso   1.00
C1086  C     0.16547   0.69002   0.79806   0.00000  Uiso   1.00
H1087  H     0.16468   0.70884   0.83330   0.00000  Uiso   1.00
C1088  C     0.16543   0.70946   0.75085   0.00000  Uiso   1.00
C1089  C     0.16652   0.68703   0.70447   0.00000  Uiso   1.00
H1090  H     0.16752   0.70287   0.66784   0.00000  Uiso   1.00
C1091  C     0.16737   0.97720   0.70528   0.00000  Uiso   1.00
H1092  H     0.16825   0.95920   0.66937   0.00000  Uiso   1.00
C1093  C     0.16726   0.95736   0.75239   0.00000  Uiso   1.00
C1094  C     0.31367   0.80092   0.72791   0.00000  Uiso   1.00
H1095  H     0.29832   0.77511   0.71116   0.00000  Uiso   1.00
C1096  C     0.02797   0.80040   0.72693   0.00000  Uiso   1.00
N1097  N     0.04760   0.83334   0.75001   0.00000  Uiso   1.00
C1098  C     0.01867   0.86589   0.77260   0.00000  Uiso   1.00
H1099  H     0.03211   0.89203   0.79098   0.00000  Uiso   1.00
C1100  C     0.30441   0.86589   0.77248   0.00000  Uiso   1.00
H1101  H     0.28259   0.89215   0.79055   0.00000  Uiso   1.00
N1102  N     0.28573   0.83331   0.75000   0.00000  Uiso   1.00
N1103  N     0.29288   0.83183   0.58075   0.00000  Uiso   1.00
O1104  O     0.32225   0.86341   0.56524   0.00000  Uiso   1.00
O1105  O     0.30406   0.80097   0.60621   0.00000  Uiso   1.00
S1106  S     0.05732   0.75370   0.69721   0.00000  Uiso   1.00
O1107  O     0.05898   0.72429   0.74089   0.00000  Uiso   1.00
O1108  O     0.02993   0.73167   0.66468   0.00000  Uiso   1.00
O1109  O     0.11172   0.76309   0.65590   0.00000  Uiso   1.00
H1110  H     0.11626   0.74247   0.62597   0.00000  Uiso   1.00
S1111  S     0.04265   0.77353   0.89721   0.00000  Uiso   1.00
O1112  O     0.02225   0.80934   0.87562   0.00000  Uiso   1.00
O1113  O     0.07024   0.74631   0.85138   0.00000  Uiso   1.00
O1114  O     0.33295   0.74390   0.93861   0.00000  Uiso   1.00
H1115  H     0.32131   0.72507   0.91470   0.00000  Uiso   1.00
S1116  S     0.16205   0.95476   0.86073   0.00000  Uiso   1.00
O1117  O     0.20605   0.93053   0.85413   0.00000  Uiso   1.00
O1118  O     0.15627   0.98678   0.90523   0.00000  Uiso   1.00
O1119  O     0.11552   0.92121   0.87661   0.00000  Uiso   1.00
H1120  H     0.11596   0.90779   0.91034   0.00000  Uiso   1.00
O1121  O     0.46179   0.89442   0.75000   0.00000  Uiso   1.00
O1122  O     0.53823   0.89441   0.75000   0.00000  Uiso   1.00
C1123  C     0.50008   0.91311   0.75145   0.00000  Uiso   1.00
O1124  O     0.44280   0.83333   0.82681   0.00000  Uiso   1.00
O1125  O     0.51924   0.83332   0.82681   0.00000  Uiso   1.00
C1126  C     0.47476   0.82400   0.84924   0.00000  Uiso   1.00
Zn1127 Zn    0.44896   0.83334   0.75000   0.00000  Uiso   1.00
Zn1128 Zn    0.55104   0.83333   0.75000   0.00000  Uiso   1.00
O1129  O     0.46177   0.77226   0.74999   0.00000  Uiso   1.00
O1130  O     0.53821   0.77225   0.74999   0.00000  Uiso   1.00
O1131  O     0.48076   0.83335   0.67319   0.00000  Uiso   1.00
O1132  O     0.55720   0.83334   0.67319   0.00000  Uiso   1.00
C1133  C     0.49971   0.75355   0.74955   0.00000  Uiso   1.00
C1134  C     0.52586   0.83332   0.64808   0.00000  Uiso   1.00
C1135  C     0.59947   0.81684   0.50366   0.00000  Uiso   1.00
H1136  H     0.61041   0.78837   0.90398   0.00000  Uiso   1.00
H1137  H     0.63591   0.81577   0.97962   0.00000  Uiso   1.00
C1138  C     0.54091   0.82861   0.58963   0.00000  Uiso   1.00
C1139  C     0.41373   0.79434   0.93178   0.00000  Uiso   1.00
C1140  C     0.39988   0.79171   0.98776   0.00000  Uiso   1.00
C1141  C     0.43218   0.80025   0.51548   0.00000  Uiso   1.00
C1142  C     0.48046   0.80532   0.98684   0.00000  Uiso   1.00
C1143  C     0.49420   0.80178   0.93058   0.00000  Uiso   1.00
C1144  C     0.51604   0.81225   0.51143   0.00000  Uiso   1.00
C1145  C     0.56383   0.80846   0.98058   0.00000  Uiso   1.00
C1146  C     0.57521   0.79547   0.92723   0.00000  Uiso   1.00
C1147  C     0.54084   0.79166   0.90256   0.00000  Uiso   1.00
C1148  C     0.50558   0.82401   0.56514   0.00000  Uiso   1.00
C1149  C     0.58856   0.82595   0.55824   0.00000  Uiso   1.00
C1150  C     0.46041   0.80646   0.90410   0.00000  Uiso   1.00
H1151  H     0.46969   0.82974   0.58851   0.00000  Uiso   1.00
H1152  H     0.41932   0.79863   0.55873   0.00000  Uiso   1.00
H1153  H     0.36429   0.78250   0.50998   0.00000  Uiso   1.00
H1154  H     0.55106   0.77990   0.86162   0.00000  Uiso   1.00
C1155  C     0.49916   0.97989   0.79959   0.00000  Uiso   1.00
C1156  C     0.49880   0.69002   0.79806   0.00000  Uiso   1.00
H1157  H     0.49801   0.70884   0.83330   0.00000  Uiso   1.00
C1158  C     0.49877   0.70946   0.75085   0.00000  Uiso   1.00
C1159  C     0.49986   0.68703   0.70447   0.00000  Uiso   1.00
H1160  H     0.50086   0.70287   0.66784   0.00000  Uiso   1.00
C1161  C     0.50070   0.97720   0.70528   0.00000  Uiso   1.00
H1162  H     0.50159   0.95920   0.66937   0.00000  Uiso   1.00
C1163  C     0.50060   0.95736   0.75239   0.00000  Uiso   1.00
C1164  C     0.64700   0.80092   0.72791   0.00000  Uiso   1.00
H1165  H     0.63166   0.77511   0.71116   0.00000  Uiso   1.00
C1166  C     0.36130   0.80040   0.72693   0.00000  Uiso   1.00
N1167  N     0.38093   0.83334   0.75001   0.00000  Uiso   1.00
C1168  C     0.35201   0.86589   0.77260   0.00000  Uiso   1.00
H1169  H     0.36545   0.89203   0.79098   0.00000  Uiso   1.00
C1170  C     0.63775   0.86589   0.77248   0.00000  Uiso   1.00
H1171  H     0.61592   0.89215   0.79055   0.00000  Uiso   1.00
N1172  N     0.61906   0.83331   0.75000   0.00000  Uiso   1.00
N1173  N     0.62621   0.83183   0.58075   0.00000  Uiso   1.00
O1174  O     0.65558   0.86341   0.56524   0.00000  Uiso   1.00
O1175  O     0.63739   0.80097   0.60621   0.00000  Uiso   1.00
S1176  S     0.39065   0.75370   0.69721   0.00000  Uiso   1.00
O1177  O     0.39231   0.72429   0.74089   0.00000  Uiso   1.00
O1178  O     0.36326   0.73167   0.66468   0.00000  Uiso   1.00
O1179  O     0.44506   0.76309   0.65590   0.00000  Uiso   1.00
H1180  H     0.44959   0.74247   0.62597   0.00000  Uiso   1.00
S1181  S     0.37599   0.77353   0.89721   0.00000  Uiso   1.00
O1182  O     0.35559   0.80934   0.87562   0.00000  Uiso   1.00
O1183  O     0.40358   0.74631   0.85138   0.00000  Uiso   1.00
O1184  O     0.66629   0.74390   0.93861   0.00000  Uiso   1.00
H1185  H     0.65464   0.72507   0.91470   0.00000  Uiso   1.00
S1186  S     0.49538   0.95476   0.86073   0.00000  Uiso   1.00
O1187  O     0.53938   0.93053   0.85413   0.00000  Uiso   1.00
O1188  O     0.48960   0.98678   0.90523   0.00000  Uiso   1.00
O1189  O     0.44886   0.92121   0.87661   0.00000  Uiso   1.00
H1190  H     0.44929   0.90779   0.91034   0.00000  Uiso   1.00
O1191  O     0.79512   0.89442   0.75000   0.00000  Uiso   1.00
O1192  O     0.87157   0.89441   0.75000   0.00000  Uiso   1.00
C1193  C     0.83341   0.91311   0.75145   0.00000  Uiso   1.00
O1194  O     0.77613   0.83333   0.82681   0.00000  Uiso   1.00
O1195  O     0.85258   0.83332   0.82681   0.00000  Uiso   1.00
C1196  C     0.80809   0.82400   0.84924   0.00000  Uiso   1.00
Zn1197 Zn    0.78229   0.83334   0.75000   0.00000  Uiso   1.00
Zn1198 Zn    0.88438   0.83333   0.75000   0.00000  Uiso   1.00
O1199  O     0.79510   0.77226   0.74999   0.00000  Uiso   1.00
O1200  O     0.87154   0.77225   0.74999   0.00000  Uiso   1.00
O1201  O     0.81409   0.83335   0.67319   0.00000  Uiso   1.00
O1202  O     0.89053   0.83334   0.67319   0.00000  Uiso   1.00
C1203  C     0.83304   0.75355   0.74955   0.00000  Uiso   1.00
C1204  C     0.85919   0.83332   0.64808   0.00000  Uiso   1.00
C1205  C     0.93281   0.81684   0.50366   0.00000  Uiso   1.00
H1206  H     0.94374   0.78837   0.90398   0.00000  Uiso   1.00
H1207  H     0.96924   0.81577   0.97962   0.00000  Uiso   1.00
C1208  C     0.87424   0.82861   0.58963   0.00000  Uiso   1.00
C1209  C     0.74706   0.79434   0.93178   0.00000  Uiso   1.00
C1210  C     0.73322   0.79171   0.98776   0.00000  Uiso   1.00
C1211  C     0.76551   0.80025   0.51548   0.00000  Uiso   1.00
C1212  C     0.81380   0.80532   0.98684   0.00000  Uiso   1.00
C1213  C     0.82754   0.80178   0.93058   0.00000  Uiso   1.00
C1214  C     0.84938   0.81225   0.51143   0.00000  Uiso   1.00
C1215  C     0.89717   0.80846   0.98058   0.00000  Uiso   1.00
C1216  C     0.90855   0.79547   0.92723   0.00000  Uiso   1.00
C1217  C     0.87418   0.79166   0.90256   0.00000  Uiso   1.00
C1218  C     0.83892   0.82401   0.56514   0.00000  Uiso   1.00
C1219  C     0.92189   0.82595   0.55824   0.00000  Uiso   1.00
C1220  C     0.79375   0.80646   0.90410   0.00000  Uiso   1.00
H1221  H     0.80302   0.82974   0.58851   0.00000  Uiso   1.00
H1222  H     0.75265   0.79863   0.55873   0.00000  Uiso   1.00
H1223  H     0.69762   0.78250   0.50998   0.00000  Uiso   1.00
H1224  H     0.88439   0.77990   0.86162   0.00000  Uiso   1.00
C1225  C     0.83249   0.97989   0.79959   0.00000  Uiso   1.00
C1226  C     0.83214   0.69002   0.79806   0.00000  Uiso   1.00
H1227  H     0.83135   0.70884   0.83330   0.00000  Uiso   1.00
C1228  C     0.83210   0.70946   0.75085   0.00000  Uiso   1.00
C1229  C     0.83319   0.68703   0.70447   0.00000  Uiso   1.00
H1230  H     0.83419   0.70287   0.66784   0.00000  Uiso   1.00
C1231  C     0.83403   0.97720   0.70528   0.00000  Uiso   1.00
H1232  H     0.83492   0.95920   0.66937   0.00000  Uiso   1.00
C1233  C     0.83393   0.95736   0.75239   0.00000  Uiso   1.00
C1234  C     0.98033   0.80092   0.72791   0.00000  Uiso   1.00
H1235  H     0.96499   0.77511   0.71116   0.00000  Uiso   1.00
C1236  C     0.69463   0.80040   0.72693   0.00000  Uiso   1.00
N1237  N     0.71426   0.83334   0.75001   0.00000  Uiso   1.00
C1238  C     0.68534   0.86589   0.77260   0.00000  Uiso   1.00
H1239  H     0.69878   0.89203   0.79098   0.00000  Uiso   1.00
C1240  C     0.97108   0.86589   0.77248   0.00000  Uiso   1.00
H1241  H     0.94925   0.89215   0.79055   0.00000  Uiso   1.00
N1242  N     0.95239   0.83331   0.75000   0.00000  Uiso   1.00
N1243  N     0.95954   0.83183   0.58075   0.00000  Uiso   1.00
O1244  O     0.98892   0.86341   0.56524   0.00000  Uiso   1.00
O1245  O     0.97073   0.80097   0.60621   0.00000  Uiso   1.00
S1246  S     0.72399   0.75370   0.69721   0.00000  Uiso   1.00
O1247  O     0.72564   0.72429   0.74089   0.00000  Uiso   1.00
O1248  O     0.69659   0.73167   0.66468   0.00000  Uiso   1.00
O1249  O     0.77839   0.76309   0.65590   0.00000  Uiso   1.00
H1250  H     0.78293   0.74247   0.62597   0.00000  Uiso   1.00
S1251  S     0.70932   0.77353   0.89721   0.00000  Uiso   1.00
O1252  O     0.68892   0.80934   0.87562   0.00000  Uiso   1.00
O1253  O     0.73691   0.74631   0.85138   0.00000  Uiso   1.00
O1254  O     0.99962   0.74390   0.93861   0.00000  Uiso   1.00
H1255  H     0.98798   0.72507   0.91470   0.00000  Uiso   1.00
S1256  S     0.82872   0.95476   0.86073   0.00000  Uiso   1.00
O1257  O     0.87271   0.93053   0.85413   0.00000  Uiso   1.00
O1258  O     0.82293   0.98678   0.90523   0.00000  Uiso   1.00
O1259  O     0.78219   0.92121   0.87661   0.00000  Uiso   1.00
H1260  H     0.78263   0.90779   0.91034   0.00000  Uiso   1.00
loop_
_geom_bond_atom_site_label_1
_geom_bond_atom_site_label_2
_geom_bond_distance
_geom_bond_site_symmetry_2
_ccdc_geom_bond_type
O1     Zn7     1.966   .     S
O1     C3      1.288   .     A
O2     C3      1.290   .     A
O2     Zn8     1.985   .     S
C3     C43     1.403   .     S
O4     Zn7     1.962   .     S
O4     C6      1.309   .     A
O5     Zn8     1.942   .     S
O5     C6      1.307   .     A
C6     C30     1.481   .     S
Zn7    O11     1.942   .     S
Zn7    O9      1.985   .     S
Zn7    N47     2.036   .     S
Zn8    O12     1.962   .     S
Zn8    O10     1.966   .     S
Zn8    N52     2.035   .     S
O9     C13     1.291   .     A
O10    C13     1.286   .     A
O11    C14     1.306   .     A
O12    C14     1.301   .     A
C13    C38     1.399   .     S
C14    C18     1.462   .     S
C15    C29     1.391   .     A
C15    H647    1.079   1_554 S
C15    C655    1.397   1_554 S
H16    C26     1.069   .     S
H17    C645    1.079   .     S
C18    C28     1.399   .     A
C18    C29     1.413   .     A
C19    S61     1.761   .     S
C19    C30     1.408   .     A
C19    C20     1.398   .     A
C20    C651    1.395   .     S
C20    H663    1.080   .     S
C21    H32     1.080   .     S
C21    C650    1.395   1_554 S
C21    C652    1.414   1_554 S
C22    C23     1.405   .     A
C22    C651    1.414   .     S
C22    C654    1.415   .     S
C23    C27     1.404   .     A
C23    C30     1.403   .     A
C24    C28     1.389   .     A
C24    C652    1.415   1_554 S
C24    C655    1.416   1_554 S
C25    C26     1.389   .     A
C25    C645    1.397   .     S
C25    C654    1.416   .     S
C26    C27     1.375   .     A
C27    H34     1.082   .     S
C28    H31     1.078   .     S
C29    N53     1.431   .     S
H33    C650    1.080   1_554 S
C35    C43     1.406   .     A
C35    S66     1.772   .     S
C35    C246    1.381   .     S
C36    C38     1.392   .     A
C36    H37     1.084   .     S
C36    C455    1.381   1_545 S
C38    C39     1.388   .     A
C39    H40     1.083   .     S
C39    C461    1.371   1_545 S
C41    H42     1.085   .     S
C41    C43     1.394   .     A
C41    C249    1.371   .     S
C44    N52     1.346   .     A
C44    H45     1.080   .     S
C44    C116    1.418   .     S
C46    S56     1.782   .     S
C46    N47     1.403   .     A
C46    C184    1.418   1_455 S
N47    C48     1.368   .     A
C48    H49     1.082   .     S
C48    C190    1.425   1_455 S
C50    N52     1.371   .     A
C50    H51     1.080   .     S
C50    C118    1.425   .     S
N53    O55     1.301   .     A
N53    O54     1.301   .     A
S56    O58     1.505   .     D
S56    O59     1.677   .     S
S56    O57     1.502   .     D
O59    H60     0.991   .     S
S61    O62     1.501   .     D
S61    O63     1.502   .     D
S61    O204    1.683   1_455 S
O64    H65     0.991   .     S
O64    S131    1.683   .     S
S66    O68     1.504   .     D
S66    O67     1.503   .     D
S66    O69     1.682   .     S
O69    H70     0.991   .     S
O71    Zn77    1.966   .     S
O71    C73     1.288   .     A
O72    C73     1.290   .     A
O72    Zn78    1.985   .     S
C73    C113    1.403   .     S
O74    Zn77    1.962   .     S
O74    C76     1.309   .     A
O75    Zn78    1.942   .     S
O75    C76     1.307   .     A
C76    C100    1.481   .     S
Zn77   O81     1.942   .     S
Zn77   O79     1.985   .     S
Zn77   N117    2.036   .     S
Zn78   O82     1.962   .     S
Zn78   O80     1.966   .     S
Zn78   N122    2.035   .     S
O79    C83     1.291   .     A
O80    C83     1.286   .     A
O81    C84     1.306   .     A
O82    C84     1.301   .     A
C83    C108    1.399   .     S
C84    C88     1.462   .     S
C85    C99     1.391   .     A
C85    H717    1.079   1_554 S
C85    C725    1.397   1_554 S
H86    C96     1.069   .     S
H87    C715    1.079   .     S
C88    C98     1.399   .     A
C88    C99     1.413   .     A
C89    S131    1.761   .     S
C89    C100    1.408   .     A
C89    C90     1.398   .     A
C90    C721    1.395   .     S
C90    H733    1.080   .     S
C91    H102    1.080   .     S
C91    C720    1.395   1_554 S
C91    C722    1.414   1_554 S
C92    C93     1.405   .     A
C92    C721    1.414   .     S
C92    C724    1.415   .     S
C93    C97     1.404   .     A
C93    C100    1.403   .     A
C94    C98     1.389   .     A
C94    C722    1.415   1_554 S
C94    C725    1.416   1_554 S
C95    C96     1.389   .     A
C95    C715    1.397   .     S
C95    C724    1.416   .     S
C96    C97     1.375   .     A
C97    H104    1.082   .     S
C98    H101    1.078   .     S
C99    N123    1.431   .     S
H103   C720    1.080   1_554 S
C105   C113    1.406   .     A
C105   S136    1.772   .     S
C105   C316    1.381   .     S
C106   C108    1.392   .     A
C106   H107    1.084   .     S
C106   C525    1.381   1_545 S
C108   C109    1.388   .     A
C109   H110    1.083   .     S
C109   C531    1.371   1_545 S
C111   H112    1.085   .     S
C111   C113    1.394   .     A
C111   C319    1.371   .     S
C114   N122    1.346   .     A
C114   H115    1.080   .     S
C114   C186    1.418   .     S
C116   S126    1.782   .     S
C116   N117    1.403   .     A
N117   C118    1.368   .     A
C118   H119    1.082   .     S
C120   N122    1.371   .     A
C120   H121    1.080   .     S
C120   C188    1.425   .     S
N123   O125    1.301   .     A
N123   O124    1.301   .     A
S126   O128    1.505   .     D
S126   O129    1.677   .     S
S126   O127    1.502   .     D
O129   H130    0.991   .     S
S131   O132    1.501   .     D
S131   O133    1.502   .     D
O134   H135    0.991   .     S
O134   S201    1.683   .     S
S136   O138    1.504   .     D
S136   O137    1.503   .     D
S136   O139    1.682   .     S
O139   H140    0.991   .     S
O141   Zn147   1.966   .     S
O141   C143    1.288   .     A
O142   C143    1.290   .     A
O142   Zn148   1.985   .     S
C143   C183    1.403   .     S
O144   Zn147   1.962   .     S
O144   C146    1.309   .     A
O145   Zn148   1.942   .     S
O145   C146    1.307   .     A
C146   C170    1.481   .     S
Zn147  O151    1.942   .     S
Zn147  O149    1.985   .     S
Zn147  N187    2.036   .     S
Zn148  O152    1.962   .     S
Zn148  O150    1.966   .     S
Zn148  N192    2.035   .     S
O149   C153    1.291   .     A
O150   C153    1.286   .     A
O151   C154    1.306   .     A
O152   C154    1.301   .     A
C153   C178    1.399   .     S
C154   C158    1.462   .     S
C155   C169    1.391   .     A
C155   H787    1.079   1_554 S
C155   C795    1.397   1_554 S
H156   C166    1.069   .     S
H157   C785    1.079   .     S
C158   C168    1.399   .     A
C158   C169    1.413   .     A
C159   S201    1.761   .     S
C159   C170    1.408   .     A
C159   C160    1.398   .     A
C160   C791    1.395   .     S
C160   H803    1.080   .     S
C161   H172    1.080   .     S
C161   C790    1.395   1_554 S
C161   C792    1.414   1_554 S
C162   C163    1.405   .     A
C162   C791    1.414   .     S
C162   C794    1.415   .     S
C163   C167    1.404   .     A
C163   C170    1.403   .     A
C164   C168    1.389   .     A
C164   C792    1.415   1_554 S
C164   C795    1.416   1_554 S
C165   C166    1.389   .     A
C165   C785    1.397   .     S
C165   C794    1.416   .     S
C166   C167    1.375   .     A
C167   H174    1.082   .     S
C168   H171    1.078   .     S
C169   N193    1.431   .     S
H173   C790    1.080   1_554 S
C175   C183    1.406   .     A
C175   S206    1.772   .     S
C175   C386    1.381   .     S
C176   C178    1.392   .     A
C176   H177    1.084   .     S
C176   C595    1.381   1_545 S
C178   C179    1.388   .     A
C179   H180    1.083   .     S
C179   C601    1.371   1_545 S
C181   H182    1.085   .     S
C181   C183    1.394   .     A
C181   C389    1.371   .     S
C184   N192    1.346   .     A
C184   H185    1.080   .     S
C184   C46     1.418   1_655 S
C186   S196    1.782   .     S
C186   N187    1.403   .     A
N187   C188    1.368   .     A
C188   H189    1.082   .     S
C190   N192    1.371   .     A
C190   H191    1.080   .     S
C190   C48     1.425   1_655 S
N193   O195    1.301   .     A
N193   O194    1.301   .     A
S196   O198    1.505   .     D
S196   O199    1.677   .     S
S196   O197    1.502   .     D
O199   H200    0.991   .     S
S201   O202    1.501   .     D
S201   O203    1.502   .     D
O204   H205    0.991   .     S
O204   S61     1.683   1_655 S
S206   O208    1.504   .     D
S206   O207    1.503   .     D
S206   O209    1.682   .     S
O209   H210    0.991   .     S
O211   Zn217   1.966   .     S
O211   C213    1.288   .     A
O212   C213    1.290   .     A
O212   Zn218   1.985   .     S
C213   C253    1.403   .     S
O214   Zn217   1.962   .     S
O214   C216    1.309   .     A
O215   Zn218   1.942   .     S
O215   C216    1.307   .     A
C216   C240    1.481   .     S
Zn217  O221    1.942   .     S
Zn217  O219    1.985   .     S
Zn217  N257    2.036   .     S
Zn218  O222    1.962   .     S
Zn218  O220    1.966   .     S
Zn218  N262    2.035   .     S
O219   C223    1.291   .     A
O220   C223    1.286   .     A
O221   C224    1.306   .     A
O222   C224    1.301   .     A
C223   C248    1.399   .     S
C224   C228    1.462   .     S
C225   C239    1.391   .     A
C225   H857    1.079   1_554 S
C225   C865    1.397   1_554 S
H226   C236    1.069   .     S
H227   C855    1.079   .     S
C228   C238    1.399   .     A
C228   C239    1.413   .     A
C229   S271    1.761   .     S
C229   C240    1.408   .     A
C229   C230    1.398   .     A
C230   C861    1.395   .     S
C230   H873    1.080   .     S
C231   H242    1.080   .     S
C231   C860    1.395   1_554 S
C231   C862    1.414   1_554 S
C232   C233    1.405   .     A
C232   C861    1.414   .     S
C232   C864    1.415   .     S
C233   C237    1.404   .     A
C233   C240    1.403   .     A
C234   C238    1.389   .     A
C234   C862    1.415   1_554 S
C234   C865    1.416   1_554 S
C235   C236    1.389   .     A
C235   C855    1.397   .     S
C235   C864    1.416   .     S
C236   C237    1.375   .     A
C237   H244    1.082   .     S
C238   H241    1.078   .     S
C239   N263    1.431   .     S
H243   C860    1.080   1_554 S
C245   C253    1.406   .     A
C245   S276    1.772   .     S
C245   C456    1.381   .     S
C246   C248    1.392   .     A
C246   H247    1.084   .     S
C248   C249    1.388   .     A
C249   H250    1.083   .     S
C251   H252    1.085   .     S
C251   C253    1.394   .     A
C251   C459    1.371   .     S
C254   N262    1.346   .     A
C254   H255    1.080   .     S
C254   C326    1.418   .     S
C256   S266    1.782   .     S
C256   N257    1.403   .     A
C256   C394    1.418   1_455 S
N257   C258    1.368   .     A
C258   H259    1.082   .     S
C258   C400    1.425   1_455 S
C260   N262    1.371   .     A
C260   H261    1.080   .     S
C260   C328    1.425   .     S
N263   O265    1.301   .     A
N263   O264    1.301   .     A
S266   O268    1.505   .     D
S266   O269    1.677   .     S
S266   O267    1.502   .     D
O269   H270    0.991   .     S
S271   O272    1.501   .     D
S271   O273    1.502   .     D
S271   O414    1.683   1_455 S
O274   H275    0.991   .     S
O274   S341    1.683   .     S
S276   O278    1.504   .     D
S276   O277    1.503   .     D
S276   O279    1.682   .     S
O279   H280    0.991   .     S
O281   Zn287   1.966   .     S
O281   C283    1.288   .     A
O282   C283    1.290   .     A
O282   Zn288   1.985   .     S
C283   C323    1.403   .     S
O284   Zn287   1.962   .     S
O284   C286    1.309   .     A
O285   Zn288   1.942   .     S
O285   C286    1.307   .     A
C286   C310    1.481   .     S
Zn287  O291    1.942   .     S
Zn287  O289    1.985   .     S
Zn287  N327    2.036   .     S
Zn288  O292    1.962   .     S
Zn288  O290    1.966   .     S
Zn288  N332    2.035   .     S
O289   C293    1.291   .     A
O290   C293    1.286   .     A
O291   C294    1.306   .     A
O292   C294    1.301   .     A
C293   C318    1.399   .     S
C294   C298    1.462   .     S
C295   C309    1.391   .     A
C295   H927    1.079   1_554 S
C295   C935    1.397   1_554 S
H296   C306    1.069   .     S
H297   C925    1.079   .     S
C298   C308    1.399   .     A
C298   C309    1.413   .     A
C299   S341    1.761   .     S
C299   C310    1.408   .     A
C299   C300    1.398   .     A
C300   C931    1.395   .     S
C300   H943    1.080   .     S
C301   H312    1.080   .     S
C301   C930    1.395   1_554 S
C301   C932    1.414   1_554 S
C302   C303    1.405   .     A
C302   C931    1.414   .     S
C302   C934    1.415   .     S
C303   C307    1.404   .     A
C303   C310    1.403   .     A
C304   C308    1.389   .     A
C304   C932    1.415   1_554 S
C304   C935    1.416   1_554 S
C305   C306    1.389   .     A
C305   C925    1.397   .     S
C305   C934    1.416   .     S
C306   C307    1.375   .     A
C307   H314    1.082   .     S
C308   H311    1.078   .     S
C309   N333    1.431   .     S
H313   C930    1.080   1_554 S
C315   C323    1.406   .     A
C315   S346    1.772   .     S
C315   C526    1.381   .     S
C316   C318    1.392   .     A
C316   H317    1.084   .     S
C318   C319    1.388   .     A
C319   H320    1.083   .     S
C321   H322    1.085   .     S
C321   C323    1.394   .     A
C321   C529    1.371   .     S
C324   N332    1.346   .     A
C324   H325    1.080   .     S
C324   C396    1.418   .     S
C326   S336    1.782   .     S
C326   N327    1.403   .     A
N327   C328    1.368   .     A
C328   H329    1.082   .     S
C330   N332    1.371   .     A
C330   H331    1.080   .     S
C330   C398    1.425   .     S
N333   O335    1.301   .     A
N333   O334    1.301   .     A
S336   O338    1.505   .     D
S336   O339    1.677   .     S
S336   O337    1.502   .     D
O339   H340    0.991   .     S
S341   O342    1.501   .     D
S341   O343    1.502   .     D
O344   H345    0.991   .     S
O344   S411    1.683   .     S
S346   O348    1.504   .     D
S346   O347    1.503   .     D
S346   O349    1.682   .     S
O349   H350    0.991   .     S
O351   Zn357   1.966   .     S
O351   C353    1.288   .     A
O352   C353    1.290   .     A
O352   Zn358   1.985   .     S
C353   C393    1.403   .     S
O354   Zn357   1.962   .     S
O354   C356    1.309   .     A
O355   Zn358   1.942   .     S
O355   C356    1.307   .     A
C356   C380    1.481   .     S
Zn357  O361    1.942   .     S
Zn357  O359    1.985   .     S
Zn357  N397    2.036   .     S
Zn358  O362    1.962   .     S
Zn358  O360    1.966   .     S
Zn358  N402    2.035   .     S
O359   C363    1.291   .     A
O360   C363    1.286   .     A
O361   C364    1.306   .     A
O362   C364    1.301   .     A
C363   C388    1.399   .     S
C364   C368    1.462   .     S
C365   C379    1.391   .     A
C365   H997    1.079   1_554 S
C365   C1005   1.397   1_554 S
H366   C376    1.069   .     S
H367   C995    1.079   .     S
C368   C378    1.399   .     A
C368   C379    1.413   .     A
C369   S411    1.761   .     S
C369   C380    1.408   .     A
C369   C370    1.398   .     A
C370   C1001   1.395   .     S
C370   H1013   1.080   .     S
C371   H382    1.080   .     S
C371   C1000   1.395   1_554 S
C371   C1002   1.414   1_554 S
C372   C373    1.405   .     A
C372   C1001   1.414   .     S
C372   C1004   1.415   .     S
C373   C377    1.404   .     A
C373   C380    1.403   .     A
C374   C378    1.389   .     A
C374   C1002   1.415   1_554 S
C374   C1005   1.416   1_554 S
C375   C376    1.389   .     A
C375   C995    1.397   .     S
C375   C1004   1.416   .     S
C376   C377    1.375   .     A
C377   H384    1.082   .     S
C378   H381    1.078   .     S
C379   N403    1.431   .     S
H383   C1000   1.080   1_554 S
C385   C393    1.406   .     A
C385   S416    1.772   .     S
C385   C596    1.381   .     S
C386   C388    1.392   .     A
C386   H387    1.084   .     S
C388   C389    1.388   .     A
C389   H390    1.083   .     S
C391   H392    1.085   .     S
C391   C393    1.394   .     A
C391   C599    1.371   .     S
C394   N402    1.346   .     A
C394   H395    1.080   .     S
C394   C256    1.418   1_655 S
C396   S406    1.782   .     S
C396   N397    1.403   .     A
N397   C398    1.368   .     A
C398   H399    1.082   .     S
C400   N402    1.371   .     A
C400   H401    1.080   .     S
C400   C258    1.425   1_655 S
N403   O405    1.301   .     A
N403   O404    1.301   .     A
S406   O408    1.505   .     D
S406   O409    1.677   .     S
S406   O407    1.502   .     D
O409   H410    0.991   .     S
S411   O412    1.501   .     D
S411   O413    1.502   .     D
O414   H415    0.991   .     S
O414   S271    1.683   1_655 S
S416   O418    1.504   .     D
S416   O417    1.503   .     D
S416   O419    1.682   .     S
O419   H420    0.991   .     S
O421   Zn427   1.966   .     S
O421   C423    1.288   .     A
O422   C423    1.290   .     A
O422   Zn428   1.985   .     S
C423   C463    1.403   .     S
O424   Zn427   1.962   .     S
O424   C426    1.309   .     A
O425   Zn428   1.942   .     S
O425   C426    1.307   .     A
C426   C450    1.481   .     S
Zn427  O431    1.942   .     S
Zn427  O429    1.985   .     S
Zn427  N467    2.036   .     S
Zn428  O432    1.962   .     S
Zn428  O430    1.966   .     S
Zn428  N472    2.035   .     S
O429   C433    1.291   .     A
O430   C433    1.286   .     A
O431   C434    1.306   .     A
O432   C434    1.301   .     A
C433   C458    1.399   .     S
C434   C438    1.462   .     S
C435   C449    1.391   .     A
C435   H1067   1.079   1_554 S
C435   C1075   1.397   1_554 S
H436   C446    1.069   .     S
H437   C1065   1.079   .     S
C438   C448    1.399   .     A
C438   C449    1.413   .     A
C439   S481    1.761   .     S
C439   C450    1.408   .     A
C439   C440    1.398   .     A
C440   C1071   1.395   .     S
C440   H1083   1.080   .     S
C441   H452    1.080   .     S
C441   C1070   1.395   1_554 S
C441   C1072   1.414   1_554 S
C442   C443    1.405   .     A
C442   C1071   1.414   .     S
C442   C1074   1.415   .     S
C443   C447    1.404   .     A
C443   C450    1.403   .     A
C444   C448    1.389   .     A
C444   C1072   1.415   1_554 S
C444   C1075   1.416   1_554 S
C445   C446    1.389   .     A
C445   C1065   1.397   .     S
C445   C1074   1.416   .     S
C446   C447    1.375   .     A
C447   H454    1.082   .     S
C448   H451    1.078   .     S
C449   N473    1.431   .     S
H453   C1070   1.080   1_554 S
C455   C463    1.406   .     A
C455   S486    1.772   .     S
C455   C36     1.381   1_565 S
C456   C458    1.392   .     A
C456   H457    1.084   .     S
C458   C459    1.388   .     A
C459   H460    1.083   .     S
C461   H462    1.085   .     S
C461   C463    1.394   .     A
C461   C39     1.371   1_565 S
C464   N472    1.346   .     A
C464   H465    1.080   .     S
C464   C536    1.418   .     S
C466   S476    1.782   .     S
C466   N467    1.403   .     A
C466   C604    1.418   1_455 S
N467   C468    1.368   .     A
C468   H469    1.082   .     S
C468   C610    1.425   1_455 S
C470   N472    1.371   .     A
C470   H471    1.080   .     S
C470   C538    1.425   .     S
N473   O475    1.301   .     A
N473   O474    1.301   .     A
S476   O478    1.505   .     D
S476   O479    1.677   .     S
S476   O477    1.502   .     D
O479   H480    0.991   .     S
S481   O482    1.501   .     D
S481   O483    1.502   .     D
S481   O624    1.683   1_455 S
O484   H485    0.991   .     S
O484   S551    1.683   .     S
S486   O488    1.504   .     D
S486   O487    1.503   .     D
S486   O489    1.682   .     S
O489   H490    0.991   .     S
O491   Zn497   1.966   .     S
O491   C493    1.288   .     A
O492   C493    1.290   .     A
O492   Zn498   1.985   .     S
C493   C533    1.403   .     S
O494   Zn497   1.962   .     S
O494   C496    1.309   .     A
O495   Zn498   1.942   .     S
O495   C496    1.307   .     A
C496   C520    1.481   .     S
Zn497  O501    1.942   .     S
Zn497  O499    1.985   .     S
Zn497  N537    2.036   .     S
Zn498  O502    1.962   .     S
Zn498  O500    1.966   .     S
Zn498  N542    2.035   .     S
O499   C503    1.291   .     A
O500   C503    1.286   .     A
O501   C504    1.306   .     A
O502   C504    1.301   .     A
C503   C528    1.399   .     S
C504   C508    1.462   .     S
C505   C519    1.391   .     A
C505   H1137   1.079   1_554 S
C505   C1145   1.397   1_554 S
H506   C516    1.069   .     S
H507   C1135   1.079   .     S
C508   C518    1.399   .     A
C508   C519    1.413   .     A
C509   S551    1.761   .     S
C509   C520    1.408   .     A
C509   C510    1.398   .     A
C510   C1141   1.395   .     S
C510   H1153   1.080   .     S
C511   H522    1.080   .     S
C511   C1140   1.395   1_554 S
C511   C1142   1.414   1_554 S
C512   C513    1.405   .     A
C512   C1141   1.414   .     S
C512   C1144   1.415   .     S
C513   C517    1.404   .     A
C513   C520    1.403   .     A
C514   C518    1.389   .     A
C514   C1142   1.415   1_554 S
C514   C1145   1.416   1_554 S
C515   C516    1.389   .     A
C515   C1135   1.397   .     S
C515   C1144   1.416   .     S
C516   C517    1.375   .     A
C517   H524    1.082   .     S
C518   H521    1.078   .     S
C519   N543    1.431   .     S
H523   C1140   1.080   1_554 S
C525   C533    1.406   .     A
C525   S556    1.772   .     S
C525   C106    1.381   1_565 S
C526   C528    1.392   .     A
C526   H527    1.084   .     S
C528   C529    1.388   .     A
C529   H530    1.083   .     S
C531   H532    1.085   .     S
C531   C533    1.394   .     A
C531   C109    1.371   1_565 S
C534   N542    1.346   .     A
C534   H535    1.080   .     S
C534   C606    1.418   .     S
C536   S546    1.782   .     S
C536   N537    1.403   .     A
N537   C538    1.368   .     A
C538   H539    1.082   .     S
C540   N542    1.371   .     A
C540   H541    1.080   .     S
C540   C608    1.425   .     S
N543   O545    1.301   .     A
N543   O544    1.301   .     A
S546   O548    1.505   .     D
S546   O549    1.677   .     S
S546   O547    1.502   .     D
O549   H550    0.991   .     S
S551   O552    1.501   .     D
S551   O553    1.502   .     D
O554   H555    0.991   .     S
O554   S621    1.683   .     S
S556   O558    1.504   .     D
S556   O557    1.503   .     D
S556   O559    1.682   .     S
O559   H560    0.991   .     S
O561   Zn567   1.966   .     S
O561   C563    1.288   .     A
O562   C563    1.290   .     A
O562   Zn568   1.985   .     S
C563   C603    1.403   .     S
O564   Zn567   1.962   .     S
O564   C566    1.309   .     A
O565   Zn568   1.942   .     S
O565   C566    1.307   .     A
C566   C590    1.481   .     S
Zn567  O571    1.942   .     S
Zn567  O569    1.985   .     S
Zn567  N607    2.036   .     S
Zn568  O572    1.962   .     S
Zn568  O570    1.966   .     S
Zn568  N612    2.035   .     S
O569   C573    1.291   .     A
O570   C573    1.286   .     A
O571   C574    1.306   .     A
O572   C574    1.301   .     A
C573   C598    1.399   .     S
C574   C578    1.462   .     S
C575   C589    1.391   .     A
C575   H1207   1.079   1_554 S
C575   C1215   1.397   1_554 S
H576   C586    1.069   .     S
H577   C1205   1.079   .     S
C578   C588    1.399   .     A
C578   C589    1.413   .     A
C579   S621    1.761   .     S
C579   C590    1.408   .     A
C579   C580    1.398   .     A
C580   C1211   1.395   .     S
C580   H1223   1.080   .     S
C581   H592    1.080   .     S
C581   C1210   1.395   1_554 S
C581   C1212   1.414   1_554 S
C582   C583    1.405   .     A
C582   C1211   1.414   .     S
C582   C1214   1.415   .     S
C583   C587    1.404   .     A
C583   C590    1.403   .     A
C584   C588    1.389   .     A
C584   C1212   1.415   1_554 S
C584   C1215   1.416   1_554 S
C585   C586    1.389   .     A
C585   C1205   1.397   .     S
C585   C1214   1.416   .     S
C586   C587    1.375   .     A
C587   H594    1.082   .     S
C588   H591    1.078   .     S
C589   N613    1.431   .     S
H593   C1210   1.080   1_554 S
C595   C603    1.406   .     A
C595   S626    1.772   .     S
C595   C176    1.381   1_565 S
C596   C598    1.392   .     A
C596   H597    1.084   .     S
C598   C599    1.388   .     A
C599   H600    1.083   .     S
C601   H602    1.085   .     S
C601   C603    1.394   .     A
C601   C179    1.371   1_565 S
C604   N612    1.346   .     A
C604   H605    1.080   .     S
C604   C466    1.418   1_655 S
C606   S616    1.782   .     S
C606   N607    1.403   .     A
N607   C608    1.368   .     A
C608   H609    1.082   .     S
C610   N612    1.371   .     A
C610   H611    1.080   .     S
C610   C468    1.425   1_655 S
N613   O615    1.301   .     A
N613   O614    1.301   .     A
S616   O618    1.505   .     D
S616   O619    1.677   .     S
S616   O617    1.502   .     D
O619   H620    0.991   .     S
S621   O622    1.501   .     D
S621   O623    1.502   .     D
O624   H625    0.991   .     S
O624   S481    1.683   1_655 S
S626   O628    1.504   .     D
S626   O627    1.503   .     D
S626   O629    1.682   .     S
O629   H630    0.991   .     S
O631   Zn637   1.966   .     S
O631   C633    1.288   .     A
O632   C633    1.290   .     A
O632   Zn638   1.985   .     S
C633   C673    1.403   .     S
O634   Zn637   1.962   .     S
O634   C636    1.309   .     A
O635   Zn638   1.942   .     S
O635   C636    1.307   .     A
C636   C660    1.481   .     S
Zn637  O641    1.942   .     S
Zn637  O639    1.985   .     S
Zn637  N677    2.036   .     S
Zn638  O642    1.962   .     S
Zn638  O640    1.966   .     S
Zn638  N682    2.035   .     S
O639   C643    1.291   .     A
O640   C643    1.286   .     A
O641   C644    1.306   .     A
O642   C644    1.301   .     A
C643   C668    1.399   .     S
C644   C648    1.462   .     S
C645   C659    1.391   .     A
H646   C656    1.069   .     S
H647   C15     1.079   1_556 S
C648   C658    1.399   .     A
C648   C659    1.413   .     A
C649   S691    1.761   .     S
C649   C660    1.408   .     A
C649   C650    1.398   .     A
C650   C21     1.395   1_556 S
C650   H33     1.080   1_556 S
C651   H662    1.080   .     S
C652   C653    1.405   .     A
C652   C21     1.414   1_556 S
C652   C24     1.415   1_556 S
C653   C657    1.404   .     A
C653   C660    1.403   .     A
C654   C658    1.389   .     A
C655   C656    1.389   .     A
C655   C15     1.397   1_556 S
C655   C24     1.416   1_556 S
C656   C657    1.375   .     A
C657   H664    1.082   .     S
C658   H661    1.078   .     S
C659   N683    1.431   .     S
C665   C673    1.406   .     A
C665   S696    1.772   .     S
C665   C876    1.381   .     S
C666   C668    1.392   .     A
C666   H667    1.084   .     S
C666   C1085   1.381   1_545 S
C668   C669    1.388   .     A
C669   H670    1.083   .     S
C669   C1091   1.371   1_545 S
C671   H672    1.085   .     S
C671   C673    1.394   .     A
C671   C879    1.371   .     S
C674   N682    1.346   .     A
C674   H675    1.080   .     S
C674   C746    1.418   .     S
C676   S686    1.782   .     S
C676   N677    1.403   .     A
C676   C814    1.418   1_455 S
N677   C678    1.368   .     A
C678   H679    1.082   .     S
C678   C820    1.425   1_455 S
C680   N682    1.371   .     A
C680   H681    1.080   .     S
C680   C748    1.425   .     S
N683   O685    1.301   .     A
N683   O684    1.301   .     A
S686   O688    1.505   .     D
S686   O689    1.677   .     S
S686   O687    1.502   .     D
O689   H690    0.991   .     S
S691   O692    1.501   .     D
S691   O693    1.502   .     D
S691   O834    1.683   1_455 S
O694   H695    0.991   .     S
O694   S761    1.683   .     S
S696   O698    1.504   .     D
S696   O697    1.503   .     D
S696   O699    1.682   .     S
O699   H700    0.991   .     S
O701   Zn707   1.966   .     S
O701   C703    1.288   .     A
O702   C703    1.290   .     A
O702   Zn708   1.985   .     S
C703   C743    1.403   .     S
O704   Zn707   1.962   .     S
O704   C706    1.309   .     A
O705   Zn708   1.942   .     S
O705   C706    1.307   .     A
C706   C730    1.481   .     S
Zn707  O711    1.942   .     S
Zn707  O709    1.985   .     S
Zn707  N747    2.036   .     S
Zn708  O712    1.962   .     S
Zn708  O710    1.966   .     S
Zn708  N752    2.035   .     S
O709   C713    1.291   .     A
O710   C713    1.286   .     A
O711   C714    1.306   .     A
O712   C714    1.301   .     A
C713   C738    1.399   .     S
C714   C718    1.462   .     S
C715   C729    1.391   .     A
H716   C726    1.069   .     S
H717   C85     1.079   1_556 S
C718   C728    1.399   .     A
C718   C729    1.413   .     A
C719   S761    1.761   .     S
C719   C730    1.408   .     A
C719   C720    1.398   .     A
C720   C91     1.395   1_556 S
C720   H103    1.080   1_556 S
C721   H732    1.080   .     S
C722   C723    1.405   .     A
C722   C91     1.414   1_556 S
C722   C94     1.415   1_556 S
C723   C727    1.404   .     A
C723   C730    1.403   .     A
C724   C728    1.389   .     A
C725   C726    1.389   .     A
C725   C85     1.397   1_556 S
C725   C94     1.416   1_556 S
C726   C727    1.375   .     A
C727   H734    1.082   .     S
C728   H731    1.078   .     S
C729   N753    1.431   .     S
C735   C743    1.406   .     A
C735   S766    1.772   .     S
C735   C946    1.381   .     S
C736   C738    1.392   .     A
C736   H737    1.084   .     S
C736   C1155   1.381   1_545 S
C738   C739    1.388   .     A
C739   H740    1.083   .     S
C739   C1161   1.371   1_545 S
C741   H742    1.085   .     S
C741   C743    1.394   .     A
C741   C949    1.371   .     S
C744   N752    1.346   .     A
C744   H745    1.080   .     S
C744   C816    1.418   .     S
C746   S756    1.782   .     S
C746   N747    1.403   .     A
N747   C748    1.368   .     A
C748   H749    1.082   .     S
C750   N752    1.371   .     A
C750   H751    1.080   .     S
C750   C818    1.425   .     S
N753   O755    1.301   .     A
N753   O754    1.301   .     A
S756   O758    1.505   .     D
S756   O759    1.677   .     S
S756   O757    1.502   .     D
O759   H760    0.991   .     S
S761   O762    1.501   .     D
S761   O763    1.502   .     D
O764   H765    0.991   .     S
O764   S831    1.683   .     S
S766   O768    1.504   .     D
S766   O767    1.503   .     D
S766   O769    1.682   .     S
O769   H770    0.991   .     S
O771   Zn777   1.966   .     S
O771   C773    1.288   .     A
O772   C773    1.290   .     A
O772   Zn778   1.985   .     S
C773   C813    1.403   .     S
O774   Zn777   1.962   .     S
O774   C776    1.309   .     A
O775   Zn778   1.942   .     S
O775   C776    1.307   .     A
C776   C800    1.481   .     S
Zn777  O781    1.942   .     S
Zn777  O779    1.985   .     S
Zn777  N817    2.036   .     S
Zn778  O782    1.962   .     S
Zn778  O780    1.966   .     S
Zn778  N822    2.035   .     S
O779   C783    1.291   .     A
O780   C783    1.286   .     A
O781   C784    1.306   .     A
O782   C784    1.301   .     A
C783   C808    1.399   .     S
C784   C788    1.462   .     S
C785   C799    1.391   .     A
H786   C796    1.069   .     S
H787   C155    1.079   1_556 S
C788   C798    1.399   .     A
C788   C799    1.413   .     A
C789   S831    1.761   .     S
C789   C800    1.408   .     A
C789   C790    1.398   .     A
C790   C161    1.395   1_556 S
C790   H173    1.080   1_556 S
C791   H802    1.080   .     S
C792   C793    1.405   .     A
C792   C161    1.414   1_556 S
C792   C164    1.415   1_556 S
C793   C797    1.404   .     A
C793   C800    1.403   .     A
C794   C798    1.389   .     A
C795   C796    1.389   .     A
C795   C155    1.397   1_556 S
C795   C164    1.416   1_556 S
C796   C797    1.375   .     A
C797   H804    1.082   .     S
C798   H801    1.078   .     S
C799   N823    1.431   .     S
C805   C813    1.406   .     A
C805   S836    1.772   .     S
C805   C1016   1.381   .     S
C806   C808    1.392   .     A
C806   H807    1.084   .     S
C806   C1225   1.381   1_545 S
C808   C809    1.388   .     A
C809   H810    1.083   .     S
C809   C1231   1.371   1_545 S
C811   H812    1.085   .     S
C811   C813    1.394   .     A
C811   C1019   1.371   .     S
C814   N822    1.346   .     A
C814   H815    1.080   .     S
C814   C676    1.418   1_655 S
C816   S826    1.782   .     S
C816   N817    1.403   .     A
N817   C818    1.368   .     A
C818   H819    1.082   .     S
C820   N822    1.371   .     A
C820   H821    1.080   .     S
C820   C678    1.425   1_655 S
N823   O825    1.301   .     A
N823   O824    1.301   .     A
S826   O828    1.505   .     D
S826   O829    1.677   .     S
S826   O827    1.502   .     D
O829   H830    0.991   .     S
S831   O832    1.501   .     D
S831   O833    1.502   .     D
O834   H835    0.991   .     S
O834   S691    1.683   1_655 S
S836   O838    1.504   .     D
S836   O837    1.503   .     D
S836   O839    1.682   .     S
O839   H840    0.991   .     S
O841   Zn847   1.966   .     S
O841   C843    1.288   .     A
O842   C843    1.290   .     A
O842   Zn848   1.985   .     S
C843   C883    1.403   .     S
O844   Zn847   1.962   .     S
O844   C846    1.309   .     A
O845   Zn848   1.942   .     S
O845   C846    1.307   .     A
C846   C870    1.481   .     S
Zn847  O851    1.942   .     S
Zn847  O849    1.985   .     S
Zn847  N887    2.036   .     S
Zn848  O852    1.962   .     S
Zn848  O850    1.966   .     S
Zn848  N892    2.035   .     S
O849   C853    1.291   .     A
O850   C853    1.286   .     A
O851   C854    1.306   .     A
O852   C854    1.301   .     A
C853   C878    1.399   .     S
C854   C858    1.462   .     S
C855   C869    1.391   .     A
H856   C866    1.069   .     S
H857   C225    1.079   1_556 S
C858   C868    1.399   .     A
C858   C869    1.413   .     A
C859   S901    1.761   .     S
C859   C870    1.408   .     A
C859   C860    1.398   .     A
C860   C231    1.395   1_556 S
C860   H243    1.080   1_556 S
C861   H872    1.080   .     S
C862   C863    1.405   .     A
C862   C231    1.414   1_556 S
C862   C234    1.415   1_556 S
C863   C867    1.404   .     A
C863   C870    1.403   .     A
C864   C868    1.389   .     A
C865   C866    1.389   .     A
C865   C225    1.397   1_556 S
C865   C234    1.416   1_556 S
C866   C867    1.375   .     A
C867   H874    1.082   .     S
C868   H871    1.078   .     S
C869   N893    1.431   .     S
C875   C883    1.406   .     A
C875   S906    1.772   .     S
C875   C1086   1.381   .     S
C876   C878    1.392   .     A
C876   H877    1.084   .     S
C878   C879    1.388   .     A
C879   H880    1.083   .     S
C881   H882    1.085   .     S
C881   C883    1.394   .     A
C881   C1089   1.371   .     S
C884   N892    1.346   .     A
C884   H885    1.080   .     S
C884   C956    1.418   .     S
C886   S896    1.782   .     S
C886   N887    1.403   .     A
C886   C1024   1.418   1_455 S
N887   C888    1.368   .     A
C888   H889    1.082   .     S
C888   C1030   1.425   1_455 S
C890   N892    1.371   .     A
C890   H891    1.080   .     S
C890   C958    1.425   .     S
N893   O895    1.301   .     A
N893   O894    1.301   .     A
S896   O898    1.505   .     D
S896   O899    1.677   .     S
S896   O897    1.502   .     D
O899   H900    0.991   .     S
S901   O902    1.501   .     D
S901   O903    1.502   .     D
S901   O1044   1.683   1_455 S
O904   H905    0.991   .     S
O904   S971    1.683   .     S
S906   O908    1.504   .     D
S906   O907    1.503   .     D
S906   O909    1.682   .     S
O909   H910    0.991   .     S
O911   Zn917   1.966   .     S
O911   C913    1.288   .     A
O912   C913    1.290   .     A
O912   Zn918   1.985   .     S
C913   C953    1.403   .     S
O914   Zn917   1.962   .     S
O914   C916    1.309   .     A
O915   Zn918   1.942   .     S
O915   C916    1.307   .     A
C916   C940    1.481   .     S
Zn917  O921    1.942   .     S
Zn917  O919    1.985   .     S
Zn917  N957    2.036   .     S
Zn918  O922    1.962   .     S
Zn918  O920    1.966   .     S
Zn918  N962    2.035   .     S
O919   C923    1.291   .     A
O920   C923    1.286   .     A
O921   C924    1.306   .     A
O922   C924    1.301   .     A
C923   C948    1.399   .     S
C924   C928    1.462   .     S
C925   C939    1.391   .     A
H926   C936    1.069   .     S
H927   C295    1.079   1_556 S
C928   C938    1.399   .     A
C928   C939    1.413   .     A
C929   S971    1.761   .     S
C929   C940    1.408   .     A
C929   C930    1.398   .     A
C930   C301    1.395   1_556 S
C930   H313    1.080   1_556 S
C931   H942    1.080   .     S
C932   C933    1.405   .     A
C932   C301    1.414   1_556 S
C932   C304    1.415   1_556 S
C933   C937    1.404   .     A
C933   C940    1.403   .     A
C934   C938    1.389   .     A
C935   C936    1.389   .     A
C935   C295    1.397   1_556 S
C935   C304    1.416   1_556 S
C936   C937    1.375   .     A
C937   H944    1.082   .     S
C938   H941    1.078   .     S
C939   N963    1.431   .     S
C945   C953    1.406   .     A
C945   S976    1.772   .     S
C945   C1156   1.381   .     S
C946   C948    1.392   .     A
C946   H947    1.084   .     S
C948   C949    1.388   .     A
C949   H950    1.083   .     S
C951   H952    1.085   .     S
C951   C953    1.394   .     A
C951   C1159   1.371   .     S
C954   N962    1.346   .     A
C954   H955    1.080   .     S
C954   C1026   1.418   .     S
C956   S966    1.782   .     S
C956   N957    1.403   .     A
N957   C958    1.368   .     A
C958   H959    1.082   .     S
C960   N962    1.371   .     A
C960   H961    1.080   .     S
C960   C1028   1.425   .     S
N963   O965    1.301   .     A
N963   O964    1.301   .     A
S966   O968    1.505   .     D
S966   O969    1.677   .     S
S966   O967    1.502   .     D
O969   H970    0.991   .     S
S971   O972    1.501   .     D
S971   O973    1.502   .     D
O974   H975    0.991   .     S
O974   S1041   1.683   .     S
S976   O978    1.504   .     D
S976   O977    1.503   .     D
S976   O979    1.682   .     S
O979   H980    0.991   .     S
O981   Zn987   1.966   .     S
O981   C983    1.288   .     A
O982   C983    1.290   .     A
O982   Zn988   1.985   .     S
C983   C1023   1.403   .     S
O984   Zn987   1.962   .     S
O984   C986    1.309   .     A
O985   Zn988   1.942   .     S
O985   C986    1.307   .     A
C986   C1010   1.481   .     S
Zn987  O991    1.942   .     S
Zn987  O989    1.985   .     S
Zn987  N1027   2.036   .     S
Zn988  O992    1.962   .     S
Zn988  O990    1.966   .     S
Zn988  N1032   2.035   .     S
O989   C993    1.291   .     A
O990   C993    1.286   .     A
O991   C994    1.306   .     A
O992   C994    1.301   .     A
C993   C1018   1.399   .     S
C994   C998    1.462   .     S
C995   C1009   1.391   .     A
H996   C1006   1.069   .     S
H997   C365    1.079   1_556 S
C998   C1008   1.399   .     A
C998   C1009   1.413   .     A
C999   S1041   1.761   .     S
C999   C1010   1.408   .     A
C999   C1000   1.398   .     A
C1000  C371    1.395   1_556 S
C1000  H383    1.080   1_556 S
C1001  H1012   1.080   .     S
C1002  C1003   1.405   .     A
C1002  C371    1.414   1_556 S
C1002  C374    1.415   1_556 S
C1003  C1007   1.404   .     A
C1003  C1010   1.403   .     A
C1004  C1008   1.389   .     A
C1005  C1006   1.389   .     A
C1005  C365    1.397   1_556 S
C1005  C374    1.416   1_556 S
C1006  C1007   1.375   .     A
C1007  H1014   1.082   .     S
C1008  H1011   1.078   .     S
C1009  N1033   1.431   .     S
C1015  C1023   1.406   .     A
C1015  S1046   1.772   .     S
C1015  C1226   1.381   .     S
C1016  C1018   1.392   .     A
C1016  H1017   1.084   .     S
C1018  C1019   1.388   .     A
C1019  H1020   1.083   .     S
C1021  H1022   1.085   .     S
C1021  C1023   1.394   .     A
C1021  C1229   1.371   .     S
C1024  N1032   1.346   .     A
C1024  H1025   1.080   .     S
C1024  C886    1.418   1_655 S
C1026  S1036   1.782   .     S
C1026  N1027   1.403   .     A
N1027  C1028   1.368   .     A
C1028  H1029   1.082   .     S
C1030  N1032   1.371   .     A
C1030  H1031   1.080   .     S
C1030  C888    1.425   1_655 S
N1033  O1035   1.301   .     A
N1033  O1034   1.301   .     A
S1036  O1038   1.505   .     D
S1036  O1039   1.677   .     S
S1036  O1037   1.502   .     D
O1039  H1040   0.991   .     S
S1041  O1042   1.501   .     D
S1041  O1043   1.502   .     D
O1044  H1045   0.991   .     S
O1044  S901    1.683   1_655 S
S1046  O1048   1.504   .     D
S1046  O1047   1.503   .     D
S1046  O1049   1.682   .     S
O1049  H1050   0.991   .     S
O1051  Zn1057  1.966   .     S
O1051  C1053   1.288   .     A
O1052  C1053   1.290   .     A
O1052  Zn1058  1.985   .     S
C1053  C1093   1.403   .     S
O1054  Zn1057  1.962   .     S
O1054  C1056   1.309   .     A
O1055  Zn1058  1.942   .     S
O1055  C1056   1.307   .     A
C1056  C1080   1.481   .     S
Zn1057 O1061   1.942   .     S
Zn1057 O1059   1.985   .     S
Zn1057 N1097   2.036   .     S
Zn1058 O1062   1.962   .     S
Zn1058 O1060   1.966   .     S
Zn1058 N1102   2.035   .     S
O1059  C1063   1.291   .     A
O1060  C1063   1.286   .     A
O1061  C1064   1.306   .     A
O1062  C1064   1.301   .     A
C1063  C1088   1.399   .     S
C1064  C1068   1.462   .     S
C1065  C1079   1.391   .     A
H1066  C1076   1.069   .     S
H1067  C435    1.079   1_556 S
C1068  C1078   1.399   .     A
C1068  C1079   1.413   .     A
C1069  S1111   1.761   .     S
C1069  C1080   1.408   .     A
C1069  C1070   1.398   .     A
C1070  C441    1.395   1_556 S
C1070  H453    1.080   1_556 S
C1071  H1082   1.080   .     S
C1072  C1073   1.405   .     A
C1072  C441    1.414   1_556 S
C1072  C444    1.415   1_556 S
C1073  C1077   1.404   .     A
C1073  C1080   1.403   .     A
C1074  C1078   1.389   .     A
C1075  C1076   1.389   .     A
C1075  C435    1.397   1_556 S
C1075  C444    1.416   1_556 S
C1076  C1077   1.375   .     A
C1077  H1084   1.082   .     S
C1078  H1081   1.078   .     S
C1079  N1103   1.431   .     S
C1085  C1093   1.406   .     A
C1085  S1116   1.772   .     S
C1085  C666    1.381   1_565 S
C1086  C1088   1.392   .     A
C1086  H1087   1.084   .     S
C1088  C1089   1.388   .     A
C1089  H1090   1.083   .     S
C1091  H1092   1.085   .     S
C1091  C1093   1.394   .     A
C1091  C669    1.371   1_565 S
C1094  N1102   1.346   .     A
C1094  H1095   1.080   .     S
C1094  C1166   1.418   .     S
C1096  S1106   1.782   .     S
C1096  N1097   1.403   .     A
C1096  C1234   1.418   1_455 S
N1097  C1098   1.368   .     A
C1098  H1099   1.082   .     S
C1098  C1240   1.425   1_455 S
C1100  N1102   1.371   .     A
C1100  H1101   1.080   .     S
C1100  C1168   1.425   .     S
N1103  O1105   1.301   .     A
N1103  O1104   1.301   .     A
S1106  O1108   1.505   .     D
S1106  O1109   1.677   .     S
S1106  O1107   1.502   .     D
O1109  H1110   0.991   .     S
S1111  O1112   1.501   .     D
S1111  O1113   1.502   .     D
S1111  O1254   1.683   1_455 S
O1114  H1115   0.991   .     S
O1114  S1181   1.683   .     S
S1116  O1118   1.504   .     D
S1116  O1117   1.503   .     D
S1116  O1119   1.682   .     S
O1119  H1120   0.991   .     S
O1121  Zn1127  1.966   .     S
O1121  C1123   1.288   .     A
O1122  C1123   1.290   .     A
O1122  Zn1128  1.985   .     S
C1123  C1163   1.403   .     S
O1124  Zn1127  1.962   .     S
O1124  C1126   1.309   .     A
O1125  Zn1128  1.942   .     S
O1125  C1126   1.307   .     A
C1126  C1150   1.481   .     S
Zn1127 O1131   1.942   .     S
Zn1127 O1129   1.985   .     S
Zn1127 N1167   2.036   .     S
Zn1128 O1132   1.962   .     S
Zn1128 O1130   1.966   .     S
Zn1128 N1172   2.035   .     S
O1129  C1133   1.291   .     A
O1130  C1133   1.286   .     A
O1131  C1134   1.306   .     A
O1132  C1134   1.301   .     A
C1133  C1158   1.399   .     S
C1134  C1138   1.462   .     S
C1135  C1149   1.391   .     A
H1136  C1146   1.069   .     S
H1137  C505    1.079   1_556 S
C1138  C1148   1.399   .     A
C1138  C1149   1.413   .     A
C1139  S1181   1.761   .     S
C1139  C1150   1.408   .     A
C1139  C1140   1.398   .     A
C1140  C511    1.395   1_556 S
C1140  H523    1.080   1_556 S
C1141  H1152   1.080   .     S
C1142  C1143   1.405   .     A
C1142  C511    1.414   1_556 S
C1142  C514    1.415   1_556 S
C1143  C1147   1.404   .     A
C1143  C1150   1.403   .     A
C1144  C1148   1.389   .     A
C1145  C1146   1.389   .     A
C1145  C505    1.397   1_556 S
C1145  C514    1.416   1_556 S
C1146  C1147   1.375   .     A
C1147  H1154   1.082   .     S
C1148  H1151   1.078   .     S
C1149  N1173   1.431   .     S
C1155  C1163   1.406   .     A
C1155  S1186   1.772   .     S
C1155  C736    1.381   1_565 S
C1156  C1158   1.392   .     A
C1156  H1157   1.084   .     S
C1158  C1159   1.388   .     A
C1159  H1160   1.083   .     S
C1161  H1162   1.085   .     S
C1161  C1163   1.394   .     A
C1161  C739    1.371   1_565 S
C1164  N1172   1.346   .     A
C1164  H1165   1.080   .     S
C1164  C1236   1.418   .     S
C1166  S1176   1.782   .     S
C1166  N1167   1.403   .     A
N1167  C1168   1.368   .     A
C1168  H1169   1.082   .     S
C1170  N1172   1.371   .     A
C1170  H1171   1.080   .     S
C1170  C1238   1.425   .     S
N1173  O1175   1.301   .     A
N1173  O1174   1.301   .     A
S1176  O1178   1.505   .     D
S1176  O1179   1.677   .     S
S1176  O1177   1.502   .     D
O1179  H1180   0.991   .     S
S1181  O1182   1.501   .     D
S1181  O1183   1.502   .     D
O1184  H1185   0.991   .     S
O1184  S1251   1.683   .     S
S1186  O1188   1.504   .     D
S1186  O1187   1.503   .     D
S1186  O1189   1.682   .     S
O1189  H1190   0.991   .     S
O1191  Zn1197  1.966   .     S
O1191  C1193   1.288   .     A
O1192  C1193   1.290   .     A
O1192  Zn1198  1.985   .     S
C1193  C1233   1.403   .     S
O1194  Zn1197  1.962   .     S
O1194  C1196   1.309   .     A
O1195  Zn1198  1.942   .     S
O1195  C1196   1.307   .     A
C1196  C1220   1.481   .     S
Zn1197 O1201   1.942   .     S
Zn1197 O1199   1.985   .     S
Zn1197 N1237   2.036   .     S
Zn1198 O1202   1.962   .     S
Zn1198 O1200   1.966   .     S
Zn1198 N1242   2.035   .     S
O1199  C1203   1.291   .     A
O1200  C1203   1.286   .     A
O1201  C1204   1.306   .     A
O1202  C1204   1.301   .     A
C1203  C1228   1.399   .     S
C1204  C1208   1.462   .     S
C1205  C1219   1.391   .     A
H1206  C1216   1.069   .     S
H1207  C575    1.079   1_556 S
C1208  C1218   1.399   .     A
C1208  C1219   1.413   .     A
C1209  S1251   1.761   .     S
C1209  C1220   1.408   .     A
C1209  C1210   1.398   .     A
C1210  C581    1.395   1_556 S
C1210  H593    1.080   1_556 S
C1211  H1222   1.080   .     S
C1212  C1213   1.405   .     A
C1212  C581    1.414   1_556 S
C1212  C584    1.415   1_556 S
C1213  C1217   1.404   .     A
C1213  C1220   1.403   .     A
C1214  C1218   1.389   .     A
C1215  C1216   1.389   .     A
C1215  C575    1.397   1_556 S
C1215  C584    1.416   1_556 S
C1216  C1217   1.375   .     A
C1217  H1224   1.082   .     S
C1218  H1221   1.078   .     S
C1219  N1243   1.431   .     S
C1225  C1233   1.406   .     A
C1225  S1256   1.772   .     S
C1225  C806    1.381   1_565 S
C1226  C1228   1.392   .     A
C1226  H1227   1.084   .     S
C1228  C1229   1.388   .     A
C1229  H1230   1.083   .     S
C1231  H1232   1.085   .     S
C1231  C1233   1.394   .     A
C1231  C809    1.371   1_565 S
C1234  N1242   1.346   .     A
C1234  H1235   1.080   .     S
C1234  C1096   1.418   1_655 S
C1236  S1246   1.782   .     S
C1236  N1237   1.403   .     A
N1237  C1238   1.368   .     A
C1238  H1239   1.082   .     S
C1240  N1242   1.371   .     A
C1240  H1241   1.080   .     S
C1240  C1098   1.425   1_655 S
N1243  O1245   1.301   .     A
N1243  O1244   1.301   .     A
S1246  O1248   1.505   .     D
S1246  O1249   1.677   .     S
S1246  O1247   1.502   .     D
O1249  H1250   0.991   .     S
S1251  O1252   1.501   .     D
S1251  O1253   1.502   .     D
O1254  H1255   0.991   .     S
O1254  S1111   1.683   1_655 S
S1256  O1258   1.504   .     D
S1256  O1257   1.503   .     D
S1256  O1259   1.682   .     S
O1259  H1260   0.991   .     S
