data_str_m2_o10_o16_pcu_sym.144
_audit_creation_date              2020-01-03
_audit_creation_method            'Materials Studio'
_symmetry_space_group_name_H-M    'P1'
_symmetry_Int_Tables_number       1
_symmetry_cell_setting            triclinic
loop_
_symmetry_equiv_pos_as_xyz
  x,y,z
_cell_length_a                    22.2860
_cell_length_b                    26.1475
_cell_length_c                    26.7643
_cell_angle_alpha                 94.0471
_cell_angle_beta                  77.3188
_cell_angle_gamma                 103.1033
loop_
_atom_site_label
_atom_site_type_symbol
_atom_site_fract_x
_atom_site_fract_y
_atom_site_fract_z
_atom_site_U_iso_or_equiv
_atom_site_adp_type
_atom_site_occupancy
C1     C     0.18177   0.26663   0.25158   0.00000  Uiso   1.00
C2     C     0.13924   0.17001   0.48776   0.00000  Uiso   1.00
C3     C     0.15468   0.18680   0.43630   0.00000  Uiso   1.00
C4     C     0.18647   0.18233   0.01768   0.00000  Uiso   1.00
C5     C     0.24601   0.21499   0.49753   0.00000  Uiso   1.00
C6     C     0.25696   0.23654   0.44932   0.00000  Uiso   1.00
C7     C     0.21157   0.22398   0.41962   0.00000  Uiso   1.00
C8     C     0.17627   0.16329   0.06724   0.00000  Uiso   1.00
C9     C     0.28020   0.20985   0.07688   0.00000  Uiso   1.00
C10    C     0.11216   0.16635   0.40345   0.00000  Uiso   1.00
C11    C     0.19083   0.32238   0.25249   0.00000  Uiso   1.00
C12    C     0.13317   0.16643   0.34725   0.00000  Uiso   1.00
C13    C     0.14371   0.01077   0.24790   0.00000  Uiso   1.00
C14    C     0.15169   0.06663   0.24855   0.00000  Uiso   1.00
C15    C     0.20060   0.17033   0.15287   0.00000  Uiso   1.00
C16    C     0.29291   0.22745   0.02687   0.00000  Uiso   1.00
C17    C     0.22105   0.17915   0.09768   0.00000  Uiso   1.00
C18    C     0.05093   0.13901   0.42438   0.00000  Uiso   1.00
C19    C     0.03312   0.12835   0.47620   0.00000  Uiso   1.00
C20    C     0.07681   0.14234   0.00744   0.00000  Uiso   1.00
Cu21   Cu    0.10710   0.16105   0.24436   0.00000  Uiso   1.00
Cu22   Cu    0.22623   0.17228   0.25565   0.00000  Uiso   1.00
H23    H     0.31537   0.22235   0.10001   0.00000  Uiso   1.00
H24    H     0.09820   0.32041   0.24355   0.00000  Uiso   1.00
H25    H     0.13298   0.13691   0.08394   0.00000  Uiso   1.00
H26    H     0.01726   0.12419   0.40031   0.00000  Uiso   1.00
H27    H     0.05957   0.13203   0.04707   0.00000  Uiso   1.00
H28    H     0.31892   0.10745   0.49201   0.00000  Uiso   1.00
N29    N     0.31574   0.18074   0.26416   0.00000  Uiso   1.00
N30    N     0.01759   0.15259   0.23584   0.00000  Uiso   1.00
O31    O     0.12797   0.23807   0.24633   0.00000  Uiso   1.00
O32    O     0.22858   0.24755   0.25587   0.00000  Uiso   1.00
O33    O     0.09181   0.15960   0.31840   0.00000  Uiso   1.00
O34    O     0.19242   0.16908   0.32793   0.00000  Uiso   1.00
O35    O     0.10476   0.08578   0.24414   0.00000  Uiso   1.00
O36    O     0.20536   0.09526   0.25367   0.00000  Uiso   1.00
O37    O     0.14092   0.16425   0.17207   0.00000  Uiso   1.00
O38    O     0.24152   0.17373   0.18161   0.00000  Uiso   1.00
H39    H     0.00363   0.20587   0.28968   0.00000  Uiso   1.00
H40    H     0.32969   0.12746   0.21034   0.00000  Uiso   1.00
H41    H     0.30052   0.26424   0.43470   0.00000  Uiso   1.00
F42    F     0.01686   0.25832   0.00790   0.00000  Uiso   1.00
F43    F     0.22174   0.25196   0.37657   0.00000  Uiso   1.00
F44    F     0.24827   0.01790   0.25804   0.00000  Uiso   1.00
C45    C     0.51510   0.26663   0.25158   0.00000  Uiso   1.00
C46    C     0.47257   0.17001   0.48776   0.00000  Uiso   1.00
C47    C     0.48801   0.18680   0.43630   0.00000  Uiso   1.00
C48    C     0.51980   0.18233   0.01768   0.00000  Uiso   1.00
C49    C     0.57934   0.21499   0.49753   0.00000  Uiso   1.00
C50    C     0.59030   0.23654   0.44932   0.00000  Uiso   1.00
C51    C     0.54491   0.22398   0.41962   0.00000  Uiso   1.00
C52    C     0.50960   0.16329   0.06724   0.00000  Uiso   1.00
C53    C     0.61353   0.20985   0.07688   0.00000  Uiso   1.00
C54    C     0.44550   0.16635   0.40345   0.00000  Uiso   1.00
C55    C     0.52416   0.32238   0.25249   0.00000  Uiso   1.00
C56    C     0.46650   0.16643   0.34725   0.00000  Uiso   1.00
C57    C     0.47704   0.01077   0.24790   0.00000  Uiso   1.00
C58    C     0.48502   0.06663   0.24855   0.00000  Uiso   1.00
C59    C     0.53393   0.17033   0.15287   0.00000  Uiso   1.00
C60    C     0.62624   0.22745   0.02687   0.00000  Uiso   1.00
C61    C     0.55439   0.17915   0.09768   0.00000  Uiso   1.00
C62    C     0.38427   0.13901   0.42438   0.00000  Uiso   1.00
C63    C     0.36645   0.12835   0.47620   0.00000  Uiso   1.00
C64    C     0.41015   0.14234   0.00744   0.00000  Uiso   1.00
Cu65   Cu    0.44043   0.16105   0.24436   0.00000  Uiso   1.00
Cu66   Cu    0.55957   0.17228   0.25565   0.00000  Uiso   1.00
H67    H     0.64870   0.22235   0.10001   0.00000  Uiso   1.00
H68    H     0.43153   0.32041   0.24355   0.00000  Uiso   1.00
H69    H     0.46631   0.13691   0.08394   0.00000  Uiso   1.00
H70    H     0.35059   0.12419   0.40031   0.00000  Uiso   1.00
H71    H     0.39290   0.13203   0.04707   0.00000  Uiso   1.00
H72    H     0.65226   0.10745   0.49201   0.00000  Uiso   1.00
N73    N     0.64908   0.18074   0.26416   0.00000  Uiso   1.00
N74    N     0.35092   0.15259   0.23584   0.00000  Uiso   1.00
O75    O     0.46131   0.23807   0.24633   0.00000  Uiso   1.00
O76    O     0.56191   0.24755   0.25587   0.00000  Uiso   1.00
O77    O     0.42515   0.15960   0.31840   0.00000  Uiso   1.00
O78    O     0.52575   0.16908   0.32793   0.00000  Uiso   1.00
O79    O     0.43809   0.08578   0.24414   0.00000  Uiso   1.00
O80    O     0.53869   0.09526   0.25367   0.00000  Uiso   1.00
O81    O     0.47425   0.16425   0.17207   0.00000  Uiso   1.00
O82    O     0.57485   0.17373   0.18161   0.00000  Uiso   1.00
H83    H     0.33696   0.20587   0.28968   0.00000  Uiso   1.00
H84    H     0.66302   0.12746   0.21034   0.00000  Uiso   1.00
H85    H     0.63385   0.26424   0.43470   0.00000  Uiso   1.00
F86    F     0.35019   0.25832   0.00790   0.00000  Uiso   1.00
F87    F     0.55507   0.25196   0.37657   0.00000  Uiso   1.00
F88    F     0.58161   0.01790   0.25804   0.00000  Uiso   1.00
C89    C     0.84844   0.26663   0.25158   0.00000  Uiso   1.00
C90    C     0.80590   0.17001   0.48776   0.00000  Uiso   1.00
C91    C     0.82134   0.18680   0.43630   0.00000  Uiso   1.00
C92    C     0.85314   0.18233   0.01768   0.00000  Uiso   1.00
C93    C     0.91267   0.21499   0.49753   0.00000  Uiso   1.00
C94    C     0.92363   0.23654   0.44932   0.00000  Uiso   1.00
C95    C     0.87824   0.22398   0.41962   0.00000  Uiso   1.00
C96    C     0.84294   0.16329   0.06724   0.00000  Uiso   1.00
C97    C     0.94686   0.20985   0.07688   0.00000  Uiso   1.00
C98    C     0.77883   0.16635   0.40345   0.00000  Uiso   1.00
C99    C     0.85749   0.32238   0.25249   0.00000  Uiso   1.00
C100   C     0.79984   0.16643   0.34725   0.00000  Uiso   1.00
C101   C     0.81038   0.01077   0.24790   0.00000  Uiso   1.00
C102   C     0.81835   0.06663   0.24855   0.00000  Uiso   1.00
C103   C     0.86727   0.17033   0.15287   0.00000  Uiso   1.00
C104   C     0.95957   0.22745   0.02687   0.00000  Uiso   1.00
C105   C     0.88772   0.17915   0.09768   0.00000  Uiso   1.00
C106   C     0.71760   0.13901   0.42438   0.00000  Uiso   1.00
C107   C     0.69978   0.12835   0.47620   0.00000  Uiso   1.00
C108   C     0.74348   0.14234   0.00744   0.00000  Uiso   1.00
Cu109  Cu    0.77377   0.16105   0.24436   0.00000  Uiso   1.00
Cu110  Cu    0.89290   0.17228   0.25565   0.00000  Uiso   1.00
H111   H     0.98204   0.22235   0.10001   0.00000  Uiso   1.00
H112   H     0.76486   0.32041   0.24355   0.00000  Uiso   1.00
H113   H     0.79964   0.13691   0.08394   0.00000  Uiso   1.00
H114   H     0.68392   0.12419   0.40031   0.00000  Uiso   1.00
H115   H     0.72624   0.13203   0.04707   0.00000  Uiso   1.00
H116   H     0.98559   0.10745   0.49201   0.00000  Uiso   1.00
N117   N     0.98241   0.18074   0.26416   0.00000  Uiso   1.00
N118   N     0.68426   0.15259   0.23584   0.00000  Uiso   1.00
O119   O     0.79464   0.23807   0.24633   0.00000  Uiso   1.00
O120   O     0.89524   0.24755   0.25587   0.00000  Uiso   1.00
O121   O     0.75848   0.15960   0.31840   0.00000  Uiso   1.00
O122   O     0.85908   0.16908   0.32793   0.00000  Uiso   1.00
O123   O     0.77142   0.08578   0.24414   0.00000  Uiso   1.00
O124   O     0.87203   0.09526   0.25367   0.00000  Uiso   1.00
O125   O     0.80758   0.16425   0.17207   0.00000  Uiso   1.00
O126   O     0.90819   0.17373   0.18161   0.00000  Uiso   1.00
H127   H     0.67030   0.20587   0.28968   0.00000  Uiso   1.00
H128   H     0.99635   0.12746   0.21034   0.00000  Uiso   1.00
H129   H     0.96719   0.26424   0.43470   0.00000  Uiso   1.00
F130   F     0.68352   0.25832   0.00790   0.00000  Uiso   1.00
F131   F     0.88840   0.25196   0.37657   0.00000  Uiso   1.00
F132   F     0.91494   0.01790   0.25804   0.00000  Uiso   1.00
C133   C     0.18177   0.59996   0.25158   0.00000  Uiso   1.00
C134   C     0.13924   0.50335   0.48776   0.00000  Uiso   1.00
C135   C     0.15468   0.52013   0.43630   0.00000  Uiso   1.00
C136   C     0.18647   0.51567   0.01768   0.00000  Uiso   1.00
C137   C     0.24601   0.54832   0.49753   0.00000  Uiso   1.00
C138   C     0.25696   0.56988   0.44932   0.00000  Uiso   1.00
C139   C     0.21157   0.55731   0.41962   0.00000  Uiso   1.00
C140   C     0.17627   0.49662   0.06724   0.00000  Uiso   1.00
C141   C     0.28020   0.54319   0.07688   0.00000  Uiso   1.00
C142   C     0.11216   0.49969   0.40345   0.00000  Uiso   1.00
C143   C     0.19083   0.65572   0.25249   0.00000  Uiso   1.00
C144   C     0.13317   0.49976   0.34725   0.00000  Uiso   1.00
C145   C     0.14371   0.34411   0.24790   0.00000  Uiso   1.00
C146   C     0.15169   0.39996   0.24855   0.00000  Uiso   1.00
C147   C     0.20060   0.50367   0.15287   0.00000  Uiso   1.00
C148   C     0.29291   0.56078   0.02687   0.00000  Uiso   1.00
C149   C     0.22105   0.51248   0.09768   0.00000  Uiso   1.00
C150   C     0.05093   0.47234   0.42438   0.00000  Uiso   1.00
C151   C     0.03312   0.46168   0.47620   0.00000  Uiso   1.00
C152   C     0.07681   0.47567   0.00744   0.00000  Uiso   1.00
Cu153  Cu    0.10710   0.49439   0.24436   0.00000  Uiso   1.00
Cu154  Cu    0.22623   0.50561   0.25565   0.00000  Uiso   1.00
H155   H     0.31537   0.55568   0.10001   0.00000  Uiso   1.00
H156   H     0.09820   0.65375   0.24355   0.00000  Uiso   1.00
H157   H     0.13298   0.47025   0.08394   0.00000  Uiso   1.00
H158   H     0.01726   0.45752   0.40031   0.00000  Uiso   1.00
H159   H     0.05957   0.46536   0.04707   0.00000  Uiso   1.00
H160   H     0.31892   0.44079   0.49201   0.00000  Uiso   1.00
N161   N     0.31574   0.51407   0.26416   0.00000  Uiso   1.00
N162   N     0.01759   0.48593   0.23584   0.00000  Uiso   1.00
O163   O     0.12797   0.57141   0.24633   0.00000  Uiso   1.00
O164   O     0.22858   0.58089   0.25587   0.00000  Uiso   1.00
O165   O     0.09181   0.49293   0.31840   0.00000  Uiso   1.00
O166   O     0.19242   0.50241   0.32793   0.00000  Uiso   1.00
O167   O     0.10476   0.41911   0.24414   0.00000  Uiso   1.00
O168   O     0.20536   0.42859   0.25367   0.00000  Uiso   1.00
O169   O     0.14092   0.49759   0.17207   0.00000  Uiso   1.00
O170   O     0.24152   0.50707   0.18161   0.00000  Uiso   1.00
H171   H     0.00363   0.53920   0.28968   0.00000  Uiso   1.00
H172   H     0.32969   0.46079   0.21034   0.00000  Uiso   1.00
H173   H     0.30052   0.59758   0.43470   0.00000  Uiso   1.00
F174   F     0.01686   0.59165   0.00790   0.00000  Uiso   1.00
F175   F     0.22174   0.58529   0.37657   0.00000  Uiso   1.00
F176   F     0.24827   0.35123   0.25804   0.00000  Uiso   1.00
C177   C     0.51510   0.59996   0.25158   0.00000  Uiso   1.00
C178   C     0.47257   0.50335   0.48776   0.00000  Uiso   1.00
C179   C     0.48801   0.52013   0.43630   0.00000  Uiso   1.00
C180   C     0.51980   0.51567   0.01768   0.00000  Uiso   1.00
C181   C     0.57934   0.54832   0.49753   0.00000  Uiso   1.00
C182   C     0.59030   0.56988   0.44932   0.00000  Uiso   1.00
C183   C     0.54491   0.55731   0.41962   0.00000  Uiso   1.00
C184   C     0.50960   0.49662   0.06724   0.00000  Uiso   1.00
C185   C     0.61353   0.54319   0.07688   0.00000  Uiso   1.00
C186   C     0.44550   0.49969   0.40345   0.00000  Uiso   1.00
C187   C     0.52416   0.65572   0.25249   0.00000  Uiso   1.00
C188   C     0.46650   0.49976   0.34725   0.00000  Uiso   1.00
C189   C     0.47704   0.34411   0.24790   0.00000  Uiso   1.00
C190   C     0.48502   0.39996   0.24855   0.00000  Uiso   1.00
C191   C     0.53393   0.50367   0.15287   0.00000  Uiso   1.00
C192   C     0.62624   0.56078   0.02687   0.00000  Uiso   1.00
C193   C     0.55439   0.51248   0.09768   0.00000  Uiso   1.00
C194   C     0.38427   0.47234   0.42438   0.00000  Uiso   1.00
C195   C     0.36645   0.46168   0.47620   0.00000  Uiso   1.00
C196   C     0.41015   0.47567   0.00744   0.00000  Uiso   1.00
Cu197  Cu    0.44043   0.49439   0.24436   0.00000  Uiso   1.00
Cu198  Cu    0.55957   0.50561   0.25565   0.00000  Uiso   1.00
H199   H     0.64870   0.55568   0.10001   0.00000  Uiso   1.00
H200   H     0.43153   0.65375   0.24355   0.00000  Uiso   1.00
H201   H     0.46631   0.47025   0.08394   0.00000  Uiso   1.00
H202   H     0.35059   0.45752   0.40031   0.00000  Uiso   1.00
H203   H     0.39290   0.46536   0.04707   0.00000  Uiso   1.00
H204   H     0.65226   0.44079   0.49201   0.00000  Uiso   1.00
N205   N     0.64908   0.51407   0.26416   0.00000  Uiso   1.00
N206   N     0.35092   0.48593   0.23584   0.00000  Uiso   1.00
O207   O     0.46131   0.57141   0.24633   0.00000  Uiso   1.00
O208   O     0.56191   0.58089   0.25587   0.00000  Uiso   1.00
O209   O     0.42515   0.49293   0.31840   0.00000  Uiso   1.00
O210   O     0.52575   0.50241   0.32793   0.00000  Uiso   1.00
O211   O     0.43809   0.41911   0.24414   0.00000  Uiso   1.00
O212   O     0.53869   0.42859   0.25367   0.00000  Uiso   1.00
O213   O     0.47425   0.49759   0.17207   0.00000  Uiso   1.00
O214   O     0.57485   0.50707   0.18161   0.00000  Uiso   1.00
H215   H     0.33696   0.53920   0.28968   0.00000  Uiso   1.00
H216   H     0.66302   0.46079   0.21034   0.00000  Uiso   1.00
H217   H     0.63385   0.59758   0.43470   0.00000  Uiso   1.00
F218   F     0.35019   0.59165   0.00790   0.00000  Uiso   1.00
F219   F     0.55507   0.58529   0.37657   0.00000  Uiso   1.00
F220   F     0.58161   0.35123   0.25804   0.00000  Uiso   1.00
C221   C     0.84844   0.59996   0.25158   0.00000  Uiso   1.00
C222   C     0.80590   0.50335   0.48776   0.00000  Uiso   1.00
C223   C     0.82134   0.52013   0.43630   0.00000  Uiso   1.00
C224   C     0.85314   0.51567   0.01768   0.00000  Uiso   1.00
C225   C     0.91267   0.54832   0.49753   0.00000  Uiso   1.00
C226   C     0.92363   0.56988   0.44932   0.00000  Uiso   1.00
C227   C     0.87824   0.55731   0.41962   0.00000  Uiso   1.00
C228   C     0.84294   0.49662   0.06724   0.00000  Uiso   1.00
C229   C     0.94686   0.54319   0.07688   0.00000  Uiso   1.00
C230   C     0.77883   0.49969   0.40345   0.00000  Uiso   1.00
C231   C     0.85749   0.65572   0.25249   0.00000  Uiso   1.00
C232   C     0.79984   0.49976   0.34725   0.00000  Uiso   1.00
C233   C     0.81038   0.34411   0.24790   0.00000  Uiso   1.00
C234   C     0.81835   0.39996   0.24855   0.00000  Uiso   1.00
C235   C     0.86727   0.50367   0.15287   0.00000  Uiso   1.00
C236   C     0.95957   0.56078   0.02687   0.00000  Uiso   1.00
C237   C     0.88772   0.51248   0.09768   0.00000  Uiso   1.00
C238   C     0.71760   0.47234   0.42438   0.00000  Uiso   1.00
C239   C     0.69978   0.46168   0.47620   0.00000  Uiso   1.00
C240   C     0.74348   0.47567   0.00744   0.00000  Uiso   1.00
Cu241  Cu    0.77377   0.49439   0.24436   0.00000  Uiso   1.00
Cu242  Cu    0.89290   0.50561   0.25565   0.00000  Uiso   1.00
H243   H     0.98204   0.55568   0.10001   0.00000  Uiso   1.00
H244   H     0.76486   0.65375   0.24355   0.00000  Uiso   1.00
H245   H     0.79964   0.47025   0.08394   0.00000  Uiso   1.00
H246   H     0.68392   0.45752   0.40031   0.00000  Uiso   1.00
H247   H     0.72624   0.46536   0.04707   0.00000  Uiso   1.00
H248   H     0.98559   0.44079   0.49201   0.00000  Uiso   1.00
N249   N     0.98241   0.51407   0.26416   0.00000  Uiso   1.00
N250   N     0.68426   0.48593   0.23584   0.00000  Uiso   1.00
O251   O     0.79464   0.57141   0.24633   0.00000  Uiso   1.00
O252   O     0.89524   0.58089   0.25587   0.00000  Uiso   1.00
O253   O     0.75848   0.49293   0.31840   0.00000  Uiso   1.00
O254   O     0.85908   0.50241   0.32793   0.00000  Uiso   1.00
O255   O     0.77142   0.41911   0.24414   0.00000  Uiso   1.00
O256   O     0.87203   0.42859   0.25367   0.00000  Uiso   1.00
O257   O     0.80758   0.49759   0.17207   0.00000  Uiso   1.00
O258   O     0.90819   0.50707   0.18161   0.00000  Uiso   1.00
H259   H     0.67030   0.53920   0.28968   0.00000  Uiso   1.00
H260   H     0.99635   0.46079   0.21034   0.00000  Uiso   1.00
H261   H     0.96719   0.59758   0.43470   0.00000  Uiso   1.00
F262   F     0.68352   0.59165   0.00790   0.00000  Uiso   1.00
F263   F     0.88840   0.58529   0.37657   0.00000  Uiso   1.00
F264   F     0.91494   0.35123   0.25804   0.00000  Uiso   1.00
C265   C     0.18177   0.93329   0.25158   0.00000  Uiso   1.00
C266   C     0.13924   0.83668   0.48776   0.00000  Uiso   1.00
C267   C     0.15468   0.85346   0.43630   0.00000  Uiso   1.00
C268   C     0.18647   0.84900   0.01768   0.00000  Uiso   1.00
C269   C     0.24601   0.88165   0.49753   0.00000  Uiso   1.00
C270   C     0.25696   0.90321   0.44932   0.00000  Uiso   1.00
C271   C     0.21157   0.89064   0.41962   0.00000  Uiso   1.00
C272   C     0.17627   0.82996   0.06724   0.00000  Uiso   1.00
C273   C     0.28020   0.87652   0.07688   0.00000  Uiso   1.00
C274   C     0.11216   0.83302   0.40345   0.00000  Uiso   1.00
C275   C     0.19083   0.98905   0.25249   0.00000  Uiso   1.00
C276   C     0.13317   0.83309   0.34725   0.00000  Uiso   1.00
C277   C     0.14371   0.67744   0.24790   0.00000  Uiso   1.00
C278   C     0.15169   0.73330   0.24855   0.00000  Uiso   1.00
C279   C     0.20060   0.83700   0.15287   0.00000  Uiso   1.00
C280   C     0.29291   0.89411   0.02687   0.00000  Uiso   1.00
C281   C     0.22105   0.84581   0.09768   0.00000  Uiso   1.00
C282   C     0.05093   0.80568   0.42438   0.00000  Uiso   1.00
C283   C     0.03312   0.79502   0.47620   0.00000  Uiso   1.00
C284   C     0.07681   0.80900   0.00744   0.00000  Uiso   1.00
Cu285  Cu    0.10710   0.82772   0.24436   0.00000  Uiso   1.00
Cu286  Cu    0.22623   0.83895   0.25565   0.00000  Uiso   1.00
H287   H     0.31537   0.88902   0.10001   0.00000  Uiso   1.00
H288   H     0.09820   0.98708   0.24355   0.00000  Uiso   1.00
H289   H     0.13298   0.80358   0.08394   0.00000  Uiso   1.00
H290   H     0.01726   0.79085   0.40031   0.00000  Uiso   1.00
H291   H     0.05957   0.79869   0.04707   0.00000  Uiso   1.00
H292   H     0.31892   0.77412   0.49201   0.00000  Uiso   1.00
N293   N     0.31574   0.84741   0.26416   0.00000  Uiso   1.00
N294   N     0.01759   0.81926   0.23584   0.00000  Uiso   1.00
O295   O     0.12797   0.90474   0.24633   0.00000  Uiso   1.00
O296   O     0.22858   0.91422   0.25587   0.00000  Uiso   1.00
O297   O     0.09181   0.82627   0.31840   0.00000  Uiso   1.00
O298   O     0.19242   0.83575   0.32793   0.00000  Uiso   1.00
O299   O     0.10476   0.75245   0.24414   0.00000  Uiso   1.00
O300   O     0.20536   0.76193   0.25367   0.00000  Uiso   1.00
O301   O     0.14092   0.83092   0.17207   0.00000  Uiso   1.00
O302   O     0.24152   0.84040   0.18161   0.00000  Uiso   1.00
H303   H     0.00363   0.87253   0.28968   0.00000  Uiso   1.00
H304   H     0.32969   0.79412   0.21034   0.00000  Uiso   1.00
H305   H     0.30052   0.93091   0.43470   0.00000  Uiso   1.00
F306   F     0.01686   0.92499   0.00790   0.00000  Uiso   1.00
F307   F     0.22174   0.91863   0.37657   0.00000  Uiso   1.00
F308   F     0.24827   0.68457   0.25804   0.00000  Uiso   1.00
C309   C     0.51510   0.93329   0.25158   0.00000  Uiso   1.00
C310   C     0.47257   0.83668   0.48776   0.00000  Uiso   1.00
C311   C     0.48801   0.85346   0.43630   0.00000  Uiso   1.00
C312   C     0.51980   0.84900   0.01768   0.00000  Uiso   1.00
C313   C     0.57934   0.88165   0.49753   0.00000  Uiso   1.00
C314   C     0.59030   0.90321   0.44932   0.00000  Uiso   1.00
C315   C     0.54491   0.89064   0.41962   0.00000  Uiso   1.00
C316   C     0.50960   0.82996   0.06724   0.00000  Uiso   1.00
C317   C     0.61353   0.87652   0.07688   0.00000  Uiso   1.00
C318   C     0.44550   0.83302   0.40345   0.00000  Uiso   1.00
C319   C     0.52416   0.98905   0.25249   0.00000  Uiso   1.00
C320   C     0.46650   0.83309   0.34725   0.00000  Uiso   1.00
C321   C     0.47704   0.67744   0.24790   0.00000  Uiso   1.00
C322   C     0.48502   0.73330   0.24855   0.00000  Uiso   1.00
C323   C     0.53393   0.83700   0.15287   0.00000  Uiso   1.00
C324   C     0.62624   0.89411   0.02687   0.00000  Uiso   1.00
C325   C     0.55439   0.84581   0.09768   0.00000  Uiso   1.00
C326   C     0.38427   0.80568   0.42438   0.00000  Uiso   1.00
C327   C     0.36645   0.79502   0.47620   0.00000  Uiso   1.00
C328   C     0.41015   0.80900   0.00744   0.00000  Uiso   1.00
Cu329  Cu    0.44043   0.82772   0.24436   0.00000  Uiso   1.00
Cu330  Cu    0.55957   0.83895   0.25565   0.00000  Uiso   1.00
H331   H     0.64870   0.88902   0.10001   0.00000  Uiso   1.00
H332   H     0.43153   0.98708   0.24355   0.00000  Uiso   1.00
H333   H     0.46631   0.80358   0.08394   0.00000  Uiso   1.00
H334   H     0.35059   0.79085   0.40031   0.00000  Uiso   1.00
H335   H     0.39290   0.79869   0.04707   0.00000  Uiso   1.00
H336   H     0.65226   0.77412   0.49201   0.00000  Uiso   1.00
N337   N     0.64908   0.84741   0.26416   0.00000  Uiso   1.00
N338   N     0.35092   0.81926   0.23584   0.00000  Uiso   1.00
O339   O     0.46131   0.90474   0.24633   0.00000  Uiso   1.00
O340   O     0.56191   0.91422   0.25587   0.00000  Uiso   1.00
O341   O     0.42515   0.82627   0.31840   0.00000  Uiso   1.00
O342   O     0.52575   0.83575   0.32793   0.00000  Uiso   1.00
O343   O     0.43809   0.75245   0.24414   0.00000  Uiso   1.00
O344   O     0.53869   0.76193   0.25367   0.00000  Uiso   1.00
O345   O     0.47425   0.83092   0.17207   0.00000  Uiso   1.00
O346   O     0.57485   0.84040   0.18161   0.00000  Uiso   1.00
H347   H     0.33696   0.87253   0.28968   0.00000  Uiso   1.00
H348   H     0.66302   0.79412   0.21034   0.00000  Uiso   1.00
H349   H     0.63385   0.93091   0.43470   0.00000  Uiso   1.00
F350   F     0.35019   0.92499   0.00790   0.00000  Uiso   1.00
F351   F     0.55507   0.91863   0.37657   0.00000  Uiso   1.00
F352   F     0.58161   0.68457   0.25804   0.00000  Uiso   1.00
C353   C     0.84844   0.93329   0.25158   0.00000  Uiso   1.00
C354   C     0.80590   0.83668   0.48776   0.00000  Uiso   1.00
C355   C     0.82134   0.85346   0.43630   0.00000  Uiso   1.00
C356   C     0.85314   0.84900   0.01768   0.00000  Uiso   1.00
C357   C     0.91267   0.88165   0.49753   0.00000  Uiso   1.00
C358   C     0.92363   0.90321   0.44932   0.00000  Uiso   1.00
C359   C     0.87824   0.89064   0.41962   0.00000  Uiso   1.00
C360   C     0.84294   0.82996   0.06724   0.00000  Uiso   1.00
C361   C     0.94686   0.87652   0.07688   0.00000  Uiso   1.00
C362   C     0.77883   0.83302   0.40345   0.00000  Uiso   1.00
C363   C     0.85749   0.98905   0.25249   0.00000  Uiso   1.00
C364   C     0.79984   0.83309   0.34725   0.00000  Uiso   1.00
C365   C     0.81038   0.67744   0.24790   0.00000  Uiso   1.00
C366   C     0.81835   0.73330   0.24855   0.00000  Uiso   1.00
C367   C     0.86727   0.83700   0.15287   0.00000  Uiso   1.00
C368   C     0.95957   0.89411   0.02687   0.00000  Uiso   1.00
C369   C     0.88772   0.84581   0.09768   0.00000  Uiso   1.00
C370   C     0.71760   0.80568   0.42438   0.00000  Uiso   1.00
C371   C     0.69978   0.79502   0.47620   0.00000  Uiso   1.00
C372   C     0.74348   0.80900   0.00744   0.00000  Uiso   1.00
Cu373  Cu    0.77377   0.82772   0.24436   0.00000  Uiso   1.00
Cu374  Cu    0.89290   0.83895   0.25565   0.00000  Uiso   1.00
H375   H     0.98204   0.88902   0.10001   0.00000  Uiso   1.00
H376   H     0.76486   0.98708   0.24355   0.00000  Uiso   1.00
H377   H     0.79964   0.80358   0.08394   0.00000  Uiso   1.00
H378   H     0.68392   0.79085   0.40031   0.00000  Uiso   1.00
H379   H     0.72624   0.79869   0.04707   0.00000  Uiso   1.00
H380   H     0.98559   0.77412   0.49201   0.00000  Uiso   1.00
N381   N     0.98241   0.84741   0.26416   0.00000  Uiso   1.00
N382   N     0.68426   0.81926   0.23584   0.00000  Uiso   1.00
O383   O     0.79464   0.90474   0.24633   0.00000  Uiso   1.00
O384   O     0.89524   0.91422   0.25587   0.00000  Uiso   1.00
O385   O     0.75848   0.82627   0.31840   0.00000  Uiso   1.00
O386   O     0.85908   0.83575   0.32793   0.00000  Uiso   1.00
O387   O     0.77142   0.75245   0.24414   0.00000  Uiso   1.00
O388   O     0.87203   0.76193   0.25367   0.00000  Uiso   1.00
O389   O     0.80758   0.83092   0.17207   0.00000  Uiso   1.00
O390   O     0.90819   0.84040   0.18161   0.00000  Uiso   1.00
H391   H     0.67030   0.87253   0.28968   0.00000  Uiso   1.00
H392   H     0.99635   0.79412   0.21034   0.00000  Uiso   1.00
H393   H     0.96719   0.93091   0.43470   0.00000  Uiso   1.00
F394   F     0.68352   0.92499   0.00790   0.00000  Uiso   1.00
F395   F     0.88840   0.91863   0.37657   0.00000  Uiso   1.00
F396   F     0.91494   0.68457   0.25804   0.00000  Uiso   1.00
C397   C     0.18177   0.26663   0.75158   0.00000  Uiso   1.00
C398   C     0.13924   0.17001   0.98776   0.00000  Uiso   1.00
C399   C     0.15468   0.18680   0.93630   0.00000  Uiso   1.00
C400   C     0.18647   0.18233   0.51768   0.00000  Uiso   1.00
C401   C     0.24601   0.21499   0.99753   0.00000  Uiso   1.00
C402   C     0.25696   0.23654   0.94932   0.00000  Uiso   1.00
C403   C     0.21157   0.22398   0.91962   0.00000  Uiso   1.00
C404   C     0.17627   0.16329   0.56724   0.00000  Uiso   1.00
C405   C     0.28020   0.20985   0.57688   0.00000  Uiso   1.00
C406   C     0.11216   0.16635   0.90345   0.00000  Uiso   1.00
C407   C     0.19083   0.32238   0.75249   0.00000  Uiso   1.00
C408   C     0.13317   0.16643   0.84725   0.00000  Uiso   1.00
C409   C     0.14371   0.01077   0.74790   0.00000  Uiso   1.00
C410   C     0.15169   0.06663   0.74855   0.00000  Uiso   1.00
C411   C     0.20060   0.17033   0.65287   0.00000  Uiso   1.00
C412   C     0.29291   0.22745   0.52687   0.00000  Uiso   1.00
C413   C     0.22105   0.17915   0.59768   0.00000  Uiso   1.00
C414   C     0.05093   0.13901   0.92438   0.00000  Uiso   1.00
C415   C     0.03312   0.12835   0.97620   0.00000  Uiso   1.00
C416   C     0.07681   0.14234   0.50744   0.00000  Uiso   1.00
Cu417  Cu    0.10710   0.16105   0.74436   0.00000  Uiso   1.00
Cu418  Cu    0.22623   0.17228   0.75565   0.00000  Uiso   1.00
H419   H     0.31537   0.22235   0.60001   0.00000  Uiso   1.00
H420   H     0.09820   0.32041   0.74355   0.00000  Uiso   1.00
H421   H     0.13298   0.13691   0.58394   0.00000  Uiso   1.00
H422   H     0.01726   0.12419   0.90031   0.00000  Uiso   1.00
H423   H     0.05957   0.13203   0.54707   0.00000  Uiso   1.00
H424   H     0.31892   0.10745   0.99201   0.00000  Uiso   1.00
N425   N     0.31574   0.18074   0.76416   0.00000  Uiso   1.00
N426   N     0.01759   0.15259   0.73584   0.00000  Uiso   1.00
O427   O     0.12797   0.23807   0.74633   0.00000  Uiso   1.00
O428   O     0.22858   0.24755   0.75587   0.00000  Uiso   1.00
O429   O     0.09181   0.15960   0.81840   0.00000  Uiso   1.00
O430   O     0.19242   0.16908   0.82793   0.00000  Uiso   1.00
O431   O     0.10476   0.08578   0.74414   0.00000  Uiso   1.00
O432   O     0.20536   0.09526   0.75367   0.00000  Uiso   1.00
O433   O     0.14092   0.16425   0.67207   0.00000  Uiso   1.00
O434   O     0.24152   0.17373   0.68161   0.00000  Uiso   1.00
H435   H     0.00363   0.20587   0.78968   0.00000  Uiso   1.00
H436   H     0.32969   0.12746   0.71034   0.00000  Uiso   1.00
H437   H     0.30052   0.26424   0.93470   0.00000  Uiso   1.00
F438   F     0.01686   0.25832   0.50790   0.00000  Uiso   1.00
F439   F     0.22174   0.25196   0.87657   0.00000  Uiso   1.00
F440   F     0.24827   0.01790   0.75804   0.00000  Uiso   1.00
C441   C     0.51510   0.26663   0.75158   0.00000  Uiso   1.00
C442   C     0.47257   0.17001   0.98776   0.00000  Uiso   1.00
C443   C     0.48801   0.18680   0.93630   0.00000  Uiso   1.00
C444   C     0.51980   0.18233   0.51768   0.00000  Uiso   1.00
C445   C     0.57934   0.21499   0.99753   0.00000  Uiso   1.00
C446   C     0.59030   0.23654   0.94932   0.00000  Uiso   1.00
C447   C     0.54491   0.22398   0.91962   0.00000  Uiso   1.00
C448   C     0.50960   0.16329   0.56724   0.00000  Uiso   1.00
C449   C     0.61353   0.20985   0.57688   0.00000  Uiso   1.00
C450   C     0.44550   0.16635   0.90345   0.00000  Uiso   1.00
C451   C     0.52416   0.32238   0.75249   0.00000  Uiso   1.00
C452   C     0.46650   0.16643   0.84725   0.00000  Uiso   1.00
C453   C     0.47704   0.01077   0.74790   0.00000  Uiso   1.00
C454   C     0.48502   0.06663   0.74855   0.00000  Uiso   1.00
C455   C     0.53393   0.17033   0.65287   0.00000  Uiso   1.00
C456   C     0.62624   0.22745   0.52687   0.00000  Uiso   1.00
C457   C     0.55439   0.17915   0.59768   0.00000  Uiso   1.00
C458   C     0.38427   0.13901   0.92438   0.00000  Uiso   1.00
C459   C     0.36645   0.12835   0.97620   0.00000  Uiso   1.00
C460   C     0.41015   0.14234   0.50744   0.00000  Uiso   1.00
Cu461  Cu    0.44043   0.16105   0.74436   0.00000  Uiso   1.00
Cu462  Cu    0.55957   0.17228   0.75565   0.00000  Uiso   1.00
H463   H     0.64870   0.22235   0.60001   0.00000  Uiso   1.00
H464   H     0.43153   0.32041   0.74355   0.00000  Uiso   1.00
H465   H     0.46631   0.13691   0.58394   0.00000  Uiso   1.00
H466   H     0.35059   0.12419   0.90031   0.00000  Uiso   1.00
H467   H     0.39290   0.13203   0.54707   0.00000  Uiso   1.00
H468   H     0.65226   0.10745   0.99201   0.00000  Uiso   1.00
N469   N     0.64908   0.18074   0.76416   0.00000  Uiso   1.00
N470   N     0.35092   0.15259   0.73584   0.00000  Uiso   1.00
O471   O     0.46131   0.23807   0.74633   0.00000  Uiso   1.00
O472   O     0.56191   0.24755   0.75587   0.00000  Uiso   1.00
O473   O     0.42515   0.15960   0.81840   0.00000  Uiso   1.00
O474   O     0.52575   0.16908   0.82793   0.00000  Uiso   1.00
O475   O     0.43809   0.08578   0.74414   0.00000  Uiso   1.00
O476   O     0.53869   0.09526   0.75367   0.00000  Uiso   1.00
O477   O     0.47425   0.16425   0.67207   0.00000  Uiso   1.00
O478   O     0.57485   0.17373   0.68161   0.00000  Uiso   1.00
H479   H     0.33696   0.20587   0.78968   0.00000  Uiso   1.00
H480   H     0.66302   0.12746   0.71034   0.00000  Uiso   1.00
H481   H     0.63385   0.26424   0.93470   0.00000  Uiso   1.00
F482   F     0.35019   0.25832   0.50790   0.00000  Uiso   1.00
F483   F     0.55507   0.25196   0.87657   0.00000  Uiso   1.00
F484   F     0.58161   0.01790   0.75804   0.00000  Uiso   1.00
C485   C     0.84844   0.26663   0.75158   0.00000  Uiso   1.00
C486   C     0.80590   0.17001   0.98776   0.00000  Uiso   1.00
C487   C     0.82134   0.18680   0.93630   0.00000  Uiso   1.00
C488   C     0.85314   0.18233   0.51768   0.00000  Uiso   1.00
C489   C     0.91267   0.21499   0.99753   0.00000  Uiso   1.00
C490   C     0.92363   0.23654   0.94932   0.00000  Uiso   1.00
C491   C     0.87824   0.22398   0.91962   0.00000  Uiso   1.00
C492   C     0.84294   0.16329   0.56724   0.00000  Uiso   1.00
C493   C     0.94686   0.20985   0.57688   0.00000  Uiso   1.00
C494   C     0.77883   0.16635   0.90345   0.00000  Uiso   1.00
C495   C     0.85749   0.32238   0.75249   0.00000  Uiso   1.00
C496   C     0.79984   0.16643   0.84725   0.00000  Uiso   1.00
C497   C     0.81038   0.01077   0.74790   0.00000  Uiso   1.00
C498   C     0.81835   0.06663   0.74855   0.00000  Uiso   1.00
C499   C     0.86727   0.17033   0.65287   0.00000  Uiso   1.00
C500   C     0.95957   0.22745   0.52687   0.00000  Uiso   1.00
C501   C     0.88772   0.17915   0.59768   0.00000  Uiso   1.00
C502   C     0.71760   0.13901   0.92438   0.00000  Uiso   1.00
C503   C     0.69978   0.12835   0.97620   0.00000  Uiso   1.00
C504   C     0.74348   0.14234   0.50744   0.00000  Uiso   1.00
Cu505  Cu    0.77377   0.16105   0.74436   0.00000  Uiso   1.00
Cu506  Cu    0.89290   0.17228   0.75565   0.00000  Uiso   1.00
H507   H     0.98204   0.22235   0.60001   0.00000  Uiso   1.00
H508   H     0.76486   0.32041   0.74355   0.00000  Uiso   1.00
H509   H     0.79964   0.13691   0.58394   0.00000  Uiso   1.00
H510   H     0.68392   0.12419   0.90031   0.00000  Uiso   1.00
H511   H     0.72624   0.13203   0.54707   0.00000  Uiso   1.00
H512   H     0.98559   0.10745   0.99201   0.00000  Uiso   1.00
N513   N     0.98241   0.18074   0.76416   0.00000  Uiso   1.00
N514   N     0.68426   0.15259   0.73584   0.00000  Uiso   1.00
O515   O     0.79464   0.23807   0.74633   0.00000  Uiso   1.00
O516   O     0.89524   0.24755   0.75587   0.00000  Uiso   1.00
O517   O     0.75848   0.15960   0.81840   0.00000  Uiso   1.00
O518   O     0.85908   0.16908   0.82793   0.00000  Uiso   1.00
O519   O     0.77142   0.08578   0.74414   0.00000  Uiso   1.00
O520   O     0.87203   0.09526   0.75367   0.00000  Uiso   1.00
O521   O     0.80758   0.16425   0.67207   0.00000  Uiso   1.00
O522   O     0.90819   0.17373   0.68161   0.00000  Uiso   1.00
H523   H     0.67030   0.20587   0.78968   0.00000  Uiso   1.00
H524   H     0.99635   0.12746   0.71034   0.00000  Uiso   1.00
H525   H     0.96719   0.26424   0.93470   0.00000  Uiso   1.00
F526   F     0.68352   0.25832   0.50790   0.00000  Uiso   1.00
F527   F     0.88840   0.25196   0.87657   0.00000  Uiso   1.00
F528   F     0.91494   0.01790   0.75804   0.00000  Uiso   1.00
C529   C     0.18177   0.59996   0.75158   0.00000  Uiso   1.00
C530   C     0.13924   0.50335   0.98776   0.00000  Uiso   1.00
C531   C     0.15468   0.52013   0.93630   0.00000  Uiso   1.00
C532   C     0.18647   0.51567   0.51768   0.00000  Uiso   1.00
C533   C     0.24601   0.54832   0.99753   0.00000  Uiso   1.00
C534   C     0.25696   0.56988   0.94932   0.00000  Uiso   1.00
C535   C     0.21157   0.55731   0.91962   0.00000  Uiso   1.00
C536   C     0.17627   0.49662   0.56724   0.00000  Uiso   1.00
C537   C     0.28020   0.54319   0.57688   0.00000  Uiso   1.00
C538   C     0.11216   0.49969   0.90345   0.00000  Uiso   1.00
C539   C     0.19083   0.65572   0.75249   0.00000  Uiso   1.00
C540   C     0.13317   0.49976   0.84725   0.00000  Uiso   1.00
C541   C     0.14371   0.34411   0.74790   0.00000  Uiso   1.00
C542   C     0.15169   0.39996   0.74855   0.00000  Uiso   1.00
C543   C     0.20060   0.50367   0.65287   0.00000  Uiso   1.00
C544   C     0.29291   0.56078   0.52687   0.00000  Uiso   1.00
C545   C     0.22105   0.51248   0.59768   0.00000  Uiso   1.00
C546   C     0.05093   0.47234   0.92438   0.00000  Uiso   1.00
C547   C     0.03312   0.46168   0.97620   0.00000  Uiso   1.00
C548   C     0.07681   0.47567   0.50744   0.00000  Uiso   1.00
Cu549  Cu    0.10710   0.49439   0.74436   0.00000  Uiso   1.00
Cu550  Cu    0.22623   0.50561   0.75565   0.00000  Uiso   1.00
H551   H     0.31537   0.55568   0.60001   0.00000  Uiso   1.00
H552   H     0.09820   0.65375   0.74355   0.00000  Uiso   1.00
H553   H     0.13298   0.47025   0.58394   0.00000  Uiso   1.00
H554   H     0.01726   0.45752   0.90031   0.00000  Uiso   1.00
H555   H     0.05957   0.46536   0.54707   0.00000  Uiso   1.00
H556   H     0.31892   0.44079   0.99201   0.00000  Uiso   1.00
N557   N     0.31574   0.51407   0.76416   0.00000  Uiso   1.00
N558   N     0.01759   0.48593   0.73584   0.00000  Uiso   1.00
O559   O     0.12797   0.57141   0.74633   0.00000  Uiso   1.00
O560   O     0.22858   0.58089   0.75587   0.00000  Uiso   1.00
O561   O     0.09181   0.49293   0.81840   0.00000  Uiso   1.00
O562   O     0.19242   0.50241   0.82793   0.00000  Uiso   1.00
O563   O     0.10476   0.41911   0.74414   0.00000  Uiso   1.00
O564   O     0.20536   0.42859   0.75367   0.00000  Uiso   1.00
O565   O     0.14092   0.49759   0.67207   0.00000  Uiso   1.00
O566   O     0.24152   0.50707   0.68161   0.00000  Uiso   1.00
H567   H     0.00363   0.53920   0.78968   0.00000  Uiso   1.00
H568   H     0.32969   0.46079   0.71034   0.00000  Uiso   1.00
H569   H     0.30052   0.59758   0.93470   0.00000  Uiso   1.00
F570   F     0.01686   0.59165   0.50790   0.00000  Uiso   1.00
F571   F     0.22174   0.58529   0.87657   0.00000  Uiso   1.00
F572   F     0.24827   0.35123   0.75804   0.00000  Uiso   1.00
C573   C     0.51510   0.59996   0.75158   0.00000  Uiso   1.00
C574   C     0.47257   0.50335   0.98776   0.00000  Uiso   1.00
C575   C     0.48801   0.52013   0.93630   0.00000  Uiso   1.00
C576   C     0.51980   0.51567   0.51768   0.00000  Uiso   1.00
C577   C     0.57934   0.54832   0.99753   0.00000  Uiso   1.00
C578   C     0.59030   0.56988   0.94932   0.00000  Uiso   1.00
C579   C     0.54491   0.55731   0.91962   0.00000  Uiso   1.00
C580   C     0.50960   0.49662   0.56724   0.00000  Uiso   1.00
C581   C     0.61353   0.54319   0.57688   0.00000  Uiso   1.00
C582   C     0.44550   0.49969   0.90345   0.00000  Uiso   1.00
C583   C     0.52416   0.65572   0.75249   0.00000  Uiso   1.00
C584   C     0.46650   0.49976   0.84725   0.00000  Uiso   1.00
C585   C     0.47704   0.34411   0.74790   0.00000  Uiso   1.00
C586   C     0.48502   0.39996   0.74855   0.00000  Uiso   1.00
C587   C     0.53393   0.50367   0.65287   0.00000  Uiso   1.00
C588   C     0.62624   0.56078   0.52687   0.00000  Uiso   1.00
C589   C     0.55439   0.51248   0.59768   0.00000  Uiso   1.00
C590   C     0.38427   0.47234   0.92438   0.00000  Uiso   1.00
C591   C     0.36645   0.46168   0.97620   0.00000  Uiso   1.00
C592   C     0.41015   0.47567   0.50744   0.00000  Uiso   1.00
Cu593  Cu    0.44043   0.49439   0.74436   0.00000  Uiso   1.00
Cu594  Cu    0.55957   0.50561   0.75565   0.00000  Uiso   1.00
H595   H     0.64870   0.55568   0.60001   0.00000  Uiso   1.00
H596   H     0.43153   0.65375   0.74355   0.00000  Uiso   1.00
H597   H     0.46631   0.47025   0.58394   0.00000  Uiso   1.00
H598   H     0.35059   0.45752   0.90031   0.00000  Uiso   1.00
H599   H     0.39290   0.46536   0.54707   0.00000  Uiso   1.00
H600   H     0.65226   0.44079   0.99201   0.00000  Uiso   1.00
N601   N     0.64908   0.51407   0.76416   0.00000  Uiso   1.00
N602   N     0.35092   0.48593   0.73584   0.00000  Uiso   1.00
O603   O     0.46131   0.57141   0.74633   0.00000  Uiso   1.00
O604   O     0.56191   0.58089   0.75587   0.00000  Uiso   1.00
O605   O     0.42515   0.49293   0.81840   0.00000  Uiso   1.00
O606   O     0.52575   0.50241   0.82793   0.00000  Uiso   1.00
O607   O     0.43809   0.41911   0.74414   0.00000  Uiso   1.00
O608   O     0.53869   0.42859   0.75367   0.00000  Uiso   1.00
O609   O     0.47425   0.49759   0.67207   0.00000  Uiso   1.00
O610   O     0.57485   0.50707   0.68161   0.00000  Uiso   1.00
H611   H     0.33696   0.53920   0.78968   0.00000  Uiso   1.00
H612   H     0.66302   0.46079   0.71034   0.00000  Uiso   1.00
H613   H     0.63385   0.59758   0.93470   0.00000  Uiso   1.00
F614   F     0.35019   0.59165   0.50790   0.00000  Uiso   1.00
F615   F     0.55507   0.58529   0.87657   0.00000  Uiso   1.00
F616   F     0.58161   0.35123   0.75804   0.00000  Uiso   1.00
C617   C     0.84844   0.59996   0.75158   0.00000  Uiso   1.00
C618   C     0.80590   0.50335   0.98776   0.00000  Uiso   1.00
C619   C     0.82134   0.52013   0.93630   0.00000  Uiso   1.00
C620   C     0.85314   0.51567   0.51768   0.00000  Uiso   1.00
C621   C     0.91267   0.54832   0.99753   0.00000  Uiso   1.00
C622   C     0.92363   0.56988   0.94932   0.00000  Uiso   1.00
C623   C     0.87824   0.55731   0.91962   0.00000  Uiso   1.00
C624   C     0.84294   0.49662   0.56724   0.00000  Uiso   1.00
C625   C     0.94686   0.54319   0.57688   0.00000  Uiso   1.00
C626   C     0.77883   0.49969   0.90345   0.00000  Uiso   1.00
C627   C     0.85749   0.65572   0.75249   0.00000  Uiso   1.00
C628   C     0.79984   0.49976   0.84725   0.00000  Uiso   1.00
C629   C     0.81038   0.34411   0.74790   0.00000  Uiso   1.00
C630   C     0.81835   0.39996   0.74855   0.00000  Uiso   1.00
C631   C     0.86727   0.50367   0.65287   0.00000  Uiso   1.00
C632   C     0.95957   0.56078   0.52687   0.00000  Uiso   1.00
C633   C     0.88772   0.51248   0.59768   0.00000  Uiso   1.00
C634   C     0.71760   0.47234   0.92438   0.00000  Uiso   1.00
C635   C     0.69978   0.46168   0.97620   0.00000  Uiso   1.00
C636   C     0.74348   0.47567   0.50744   0.00000  Uiso   1.00
Cu637  Cu    0.77377   0.49439   0.74436   0.00000  Uiso   1.00
Cu638  Cu    0.89290   0.50561   0.75565   0.00000  Uiso   1.00
H639   H     0.98204   0.55568   0.60001   0.00000  Uiso   1.00
H640   H     0.76486   0.65375   0.74355   0.00000  Uiso   1.00
H641   H     0.79964   0.47025   0.58394   0.00000  Uiso   1.00
H642   H     0.68392   0.45752   0.90031   0.00000  Uiso   1.00
H643   H     0.72624   0.46536   0.54707   0.00000  Uiso   1.00
H644   H     0.98559   0.44079   0.99201   0.00000  Uiso   1.00
N645   N     0.98241   0.51407   0.76416   0.00000  Uiso   1.00
N646   N     0.68426   0.48593   0.73584   0.00000  Uiso   1.00
O647   O     0.79464   0.57141   0.74633   0.00000  Uiso   1.00
O648   O     0.89524   0.58089   0.75587   0.00000  Uiso   1.00
O649   O     0.75848   0.49293   0.81840   0.00000  Uiso   1.00
O650   O     0.85908   0.50241   0.82793   0.00000  Uiso   1.00
O651   O     0.77142   0.41911   0.74414   0.00000  Uiso   1.00
O652   O     0.87203   0.42859   0.75367   0.00000  Uiso   1.00
O653   O     0.80758   0.49759   0.67207   0.00000  Uiso   1.00
O654   O     0.90819   0.50707   0.68161   0.00000  Uiso   1.00
H655   H     0.67030   0.53920   0.78968   0.00000  Uiso   1.00
H656   H     0.99635   0.46079   0.71034   0.00000  Uiso   1.00
H657   H     0.96719   0.59758   0.93470   0.00000  Uiso   1.00
F658   F     0.68352   0.59165   0.50790   0.00000  Uiso   1.00
F659   F     0.88840   0.58529   0.87657   0.00000  Uiso   1.00
F660   F     0.91494   0.35123   0.75804   0.00000  Uiso   1.00
C661   C     0.18177   0.93329   0.75158   0.00000  Uiso   1.00
C662   C     0.13924   0.83668   0.98776   0.00000  Uiso   1.00
C663   C     0.15468   0.85346   0.93630   0.00000  Uiso   1.00
C664   C     0.18647   0.84900   0.51768   0.00000  Uiso   1.00
C665   C     0.24601   0.88165   0.99753   0.00000  Uiso   1.00
C666   C     0.25696   0.90321   0.94932   0.00000  Uiso   1.00
C667   C     0.21157   0.89064   0.91962   0.00000  Uiso   1.00
C668   C     0.17627   0.82996   0.56724   0.00000  Uiso   1.00
C669   C     0.28020   0.87652   0.57688   0.00000  Uiso   1.00
C670   C     0.11216   0.83302   0.90345   0.00000  Uiso   1.00
C671   C     0.19083   0.98905   0.75249   0.00000  Uiso   1.00
C672   C     0.13317   0.83309   0.84725   0.00000  Uiso   1.00
C673   C     0.14371   0.67744   0.74790   0.00000  Uiso   1.00
C674   C     0.15169   0.73330   0.74855   0.00000  Uiso   1.00
C675   C     0.20060   0.83700   0.65287   0.00000  Uiso   1.00
C676   C     0.29291   0.89411   0.52687   0.00000  Uiso   1.00
C677   C     0.22105   0.84581   0.59768   0.00000  Uiso   1.00
C678   C     0.05093   0.80568   0.92438   0.00000  Uiso   1.00
C679   C     0.03312   0.79502   0.97620   0.00000  Uiso   1.00
C680   C     0.07681   0.80900   0.50744   0.00000  Uiso   1.00
Cu681  Cu    0.10710   0.82772   0.74436   0.00000  Uiso   1.00
Cu682  Cu    0.22623   0.83895   0.75565   0.00000  Uiso   1.00
H683   H     0.31537   0.88902   0.60001   0.00000  Uiso   1.00
H684   H     0.09820   0.98708   0.74355   0.00000  Uiso   1.00
H685   H     0.13298   0.80358   0.58394   0.00000  Uiso   1.00
H686   H     0.01726   0.79085   0.90031   0.00000  Uiso   1.00
H687   H     0.05957   0.79869   0.54707   0.00000  Uiso   1.00
H688   H     0.31892   0.77412   0.99201   0.00000  Uiso   1.00
N689   N     0.31574   0.84741   0.76416   0.00000  Uiso   1.00
N690   N     0.01759   0.81926   0.73584   0.00000  Uiso   1.00
O691   O     0.12797   0.90474   0.74633   0.00000  Uiso   1.00
O692   O     0.22858   0.91422   0.75587   0.00000  Uiso   1.00
O693   O     0.09181   0.82627   0.81840   0.00000  Uiso   1.00
O694   O     0.19242   0.83575   0.82793   0.00000  Uiso   1.00
O695   O     0.10476   0.75245   0.74414   0.00000  Uiso   1.00
O696   O     0.20536   0.76193   0.75367   0.00000  Uiso   1.00
O697   O     0.14092   0.83092   0.67207   0.00000  Uiso   1.00
O698   O     0.24152   0.84040   0.68161   0.00000  Uiso   1.00
H699   H     0.00363   0.87253   0.78968   0.00000  Uiso   1.00
H700   H     0.32969   0.79412   0.71034   0.00000  Uiso   1.00
H701   H     0.30052   0.93091   0.93470   0.00000  Uiso   1.00
F702   F     0.01686   0.92499   0.50790   0.00000  Uiso   1.00
F703   F     0.22174   0.91863   0.87657   0.00000  Uiso   1.00
F704   F     0.24827   0.68457   0.75804   0.00000  Uiso   1.00
C705   C     0.51510   0.93329   0.75158   0.00000  Uiso   1.00
C706   C     0.47257   0.83668   0.98776   0.00000  Uiso   1.00
C707   C     0.48801   0.85346   0.93630   0.00000  Uiso   1.00
C708   C     0.51980   0.84900   0.51768   0.00000  Uiso   1.00
C709   C     0.57934   0.88165   0.99753   0.00000  Uiso   1.00
C710   C     0.59030   0.90321   0.94932   0.00000  Uiso   1.00
C711   C     0.54491   0.89064   0.91962   0.00000  Uiso   1.00
C712   C     0.50960   0.82996   0.56724   0.00000  Uiso   1.00
C713   C     0.61353   0.87652   0.57688   0.00000  Uiso   1.00
C714   C     0.44550   0.83302   0.90345   0.00000  Uiso   1.00
C715   C     0.52416   0.98905   0.75249   0.00000  Uiso   1.00
C716   C     0.46650   0.83309   0.84725   0.00000  Uiso   1.00
C717   C     0.47704   0.67744   0.74790   0.00000  Uiso   1.00
C718   C     0.48502   0.73330   0.74855   0.00000  Uiso   1.00
C719   C     0.53393   0.83700   0.65287   0.00000  Uiso   1.00
C720   C     0.62624   0.89411   0.52687   0.00000  Uiso   1.00
C721   C     0.55439   0.84581   0.59768   0.00000  Uiso   1.00
C722   C     0.38427   0.80568   0.92438   0.00000  Uiso   1.00
C723   C     0.36645   0.79502   0.97620   0.00000  Uiso   1.00
C724   C     0.41015   0.80900   0.50744   0.00000  Uiso   1.00
Cu725  Cu    0.44043   0.82772   0.74436   0.00000  Uiso   1.00
Cu726  Cu    0.55957   0.83895   0.75565   0.00000  Uiso   1.00
H727   H     0.64870   0.88902   0.60001   0.00000  Uiso   1.00
H728   H     0.43153   0.98708   0.74355   0.00000  Uiso   1.00
H729   H     0.46631   0.80358   0.58394   0.00000  Uiso   1.00
H730   H     0.35059   0.79085   0.90031   0.00000  Uiso   1.00
H731   H     0.39290   0.79869   0.54707   0.00000  Uiso   1.00
H732   H     0.65226   0.77412   0.99201   0.00000  Uiso   1.00
N733   N     0.64908   0.84741   0.76416   0.00000  Uiso   1.00
N734   N     0.35092   0.81926   0.73584   0.00000  Uiso   1.00
O735   O     0.46131   0.90474   0.74633   0.00000  Uiso   1.00
O736   O     0.56191   0.91422   0.75587   0.00000  Uiso   1.00
O737   O     0.42515   0.82627   0.81840   0.00000  Uiso   1.00
O738   O     0.52575   0.83575   0.82793   0.00000  Uiso   1.00
O739   O     0.43809   0.75245   0.74414   0.00000  Uiso   1.00
O740   O     0.53869   0.76193   0.75367   0.00000  Uiso   1.00
O741   O     0.47425   0.83092   0.67207   0.00000  Uiso   1.00
O742   O     0.57485   0.84040   0.68161   0.00000  Uiso   1.00
H743   H     0.33696   0.87253   0.78968   0.00000  Uiso   1.00
H744   H     0.66302   0.79412   0.71034   0.00000  Uiso   1.00
H745   H     0.63385   0.93091   0.93470   0.00000  Uiso   1.00
F746   F     0.35019   0.92499   0.50790   0.00000  Uiso   1.00
F747   F     0.55507   0.91863   0.87657   0.00000  Uiso   1.00
F748   F     0.58161   0.68457   0.75804   0.00000  Uiso   1.00
C749   C     0.84844   0.93329   0.75158   0.00000  Uiso   1.00
C750   C     0.80590   0.83668   0.98776   0.00000  Uiso   1.00
C751   C     0.82134   0.85346   0.93630   0.00000  Uiso   1.00
C752   C     0.85314   0.84900   0.51768   0.00000  Uiso   1.00
C753   C     0.91267   0.88165   0.99753   0.00000  Uiso   1.00
C754   C     0.92363   0.90321   0.94932   0.00000  Uiso   1.00
C755   C     0.87824   0.89064   0.91962   0.00000  Uiso   1.00
C756   C     0.84294   0.82996   0.56724   0.00000  Uiso   1.00
C757   C     0.94686   0.87652   0.57688   0.00000  Uiso   1.00
C758   C     0.77883   0.83302   0.90345   0.00000  Uiso   1.00
C759   C     0.85749   0.98905   0.75249   0.00000  Uiso   1.00
C760   C     0.79984   0.83309   0.84725   0.00000  Uiso   1.00
C761   C     0.81038   0.67744   0.74790   0.00000  Uiso   1.00
C762   C     0.81835   0.73330   0.74855   0.00000  Uiso   1.00
C763   C     0.86727   0.83700   0.65287   0.00000  Uiso   1.00
C764   C     0.95957   0.89411   0.52687   0.00000  Uiso   1.00
C765   C     0.88772   0.84581   0.59768   0.00000  Uiso   1.00
C766   C     0.71760   0.80568   0.92438   0.00000  Uiso   1.00
C767   C     0.69978   0.79502   0.97620   0.00000  Uiso   1.00
C768   C     0.74348   0.80900   0.50744   0.00000  Uiso   1.00
Cu769  Cu    0.77377   0.82772   0.74436   0.00000  Uiso   1.00
Cu770  Cu    0.89290   0.83895   0.75565   0.00000  Uiso   1.00
H771   H     0.98204   0.88902   0.60001   0.00000  Uiso   1.00
H772   H     0.76486   0.98708   0.74355   0.00000  Uiso   1.00
H773   H     0.79964   0.80358   0.58394   0.00000  Uiso   1.00
H774   H     0.68392   0.79085   0.90031   0.00000  Uiso   1.00
H775   H     0.72624   0.79869   0.54707   0.00000  Uiso   1.00
H776   H     0.98559   0.77412   0.99201   0.00000  Uiso   1.00
N777   N     0.98241   0.84741   0.76416   0.00000  Uiso   1.00
N778   N     0.68426   0.81926   0.73584   0.00000  Uiso   1.00
O779   O     0.79464   0.90474   0.74633   0.00000  Uiso   1.00
O780   O     0.89524   0.91422   0.75587   0.00000  Uiso   1.00
O781   O     0.75848   0.82627   0.81840   0.00000  Uiso   1.00
O782   O     0.85908   0.83575   0.82793   0.00000  Uiso   1.00
O783   O     0.77142   0.75245   0.74414   0.00000  Uiso   1.00
O784   O     0.87203   0.76193   0.75367   0.00000  Uiso   1.00
O785   O     0.80758   0.83092   0.67207   0.00000  Uiso   1.00
O786   O     0.90819   0.84040   0.68161   0.00000  Uiso   1.00
H787   H     0.67030   0.87253   0.78968   0.00000  Uiso   1.00
H788   H     0.99635   0.79412   0.71034   0.00000  Uiso   1.00
H789   H     0.96719   0.93091   0.93470   0.00000  Uiso   1.00
F790   F     0.68352   0.92499   0.50790   0.00000  Uiso   1.00
F791   F     0.88840   0.91863   0.87657   0.00000  Uiso   1.00
F792   F     0.91494   0.68457   0.75804   0.00000  Uiso   1.00
loop_
_geom_bond_atom_site_label_1
_geom_bond_atom_site_label_2
_geom_bond_distance
_geom_bond_site_symmetry_2
_ccdc_geom_bond_type
C1     O31     1.291   .     A
C1     O32     1.283   .     A
C1     C11     1.425   .     S
C2     C3      1.420   .     A
C2     C400    1.426   .     S
C2     C416    1.418   .     S
C3     C10     1.423   .     A
C3     C7      1.416   .     A
C4     C8      1.403   .     A
C4     C398    1.426   1_554 S
C4     C401    1.420   1_554 S
C5     C6      1.394   .     A
C5     C400    1.420   .     S
C5     C412    1.409   .     S
C6     C7      1.389   .     A
C6     H41     1.084   .     S
C7     F43     1.358   .     S
C8     H25     1.076   .     S
C8     C17     1.398   .     A
C9     C17     1.398   .     A
C9     C16     1.394   .     A
C9     H23     1.083   .     S
C10    C12     1.474   .     S
C10    C18     1.402   .     A
C11    C145    1.333   .     S
C11    F176    1.364   .     S
C12    O34     1.296   .     A
C12    O33     1.302   .     A
C13    C14     1.430   .     S
C13    C275    1.333   1_545 S
C13    H288    1.088   1_545 S
C14    O36     1.289   .     A
C14    O35     1.288   .     A
C15    O38     1.301   .     A
C15    C17     1.465   .     S
C15    O37     1.294   .     A
C16    C401    1.409   1_554 S
C16    F86     1.358   .     S
C18    H26     1.083   .     S
C18    C19     1.386   .     A
C19    C416    1.391   .     S
C19    H116    1.083   1_455 S
C20    H27     1.077   .     S
C20    C398    1.418   1_554 S
C20    C415    1.391   1_554 S
Cu21   O35     1.957   .     S
Cu21   O31     1.961   .     S
Cu21   N30     2.018   .     S
Cu21   Cu22    2.686   .     S
Cu21   O33     1.937   .     S
Cu21   O37     1.916   .     S
Cu22   O32     1.957   .     S
Cu22   O36     1.961   .     S
Cu22   N29     2.018   .     S
Cu22   O34     1.916   .     S
Cu22   O38     1.937   .     S
H24    C145    1.088   .     S
H28    C63     1.083   .     S
N29    N74     1.286   .     S
N29    H83     1.029   .     S
N30    N117    1.286   1_455 S
N30    H128    1.029   1_455 S
H39    N117    1.029   1_455 S
H40    N74     1.029   .     S
F42    C104    1.358   1_455 S
F44    C275    1.364   1_545 S
C45    O75     1.291   .     A
C45    O76     1.283   .     A
C45    C55     1.425   .     S
C46    C47     1.420   .     A
C46    C444    1.426   .     S
C46    C460    1.418   .     S
C47    C54     1.423   .     A
C47    C51     1.416   .     A
C48    C52     1.403   .     A
C48    C442    1.426   1_554 S
C48    C445    1.420   1_554 S
C49    C50     1.394   .     A
C49    C444    1.420   .     S
C49    C456    1.409   .     S
C50    C51     1.389   .     A
C50    H85     1.084   .     S
C51    F87     1.358   .     S
C52    H69     1.076   .     S
C52    C61     1.398   .     A
C53    C61     1.398   .     A
C53    C60     1.394   .     A
C53    H67     1.083   .     S
C54    C56     1.474   .     S
C54    C62     1.402   .     A
C55    C189    1.333   .     S
C55    F220    1.364   .     S
C56    O78     1.296   .     A
C56    O77     1.302   .     A
C57    C58     1.430   .     S
C57    C319    1.333   1_545 S
C57    H332    1.088   1_545 S
C58    O80     1.289   .     A
C58    O79     1.288   .     A
C59    O82     1.301   .     A
C59    C61     1.465   .     S
C59    O81     1.294   .     A
C60    C445    1.409   1_554 S
C60    F130    1.358   .     S
C62    H70     1.083   .     S
C62    C63     1.386   .     A
C63    C460    1.391   .     S
C64    H71     1.077   .     S
C64    C442    1.418   1_554 S
C64    C459    1.391   1_554 S
Cu65   O79     1.957   .     S
Cu65   O75     1.961   .     S
Cu65   N74     2.018   .     S
Cu65   Cu66    2.686   .     S
Cu65   O77     1.937   .     S
Cu65   O81     1.916   .     S
Cu66   O76     1.957   .     S
Cu66   O80     1.961   .     S
Cu66   N73     2.018   .     S
Cu66   O78     1.916   .     S
Cu66   O82     1.937   .     S
H68    C189    1.088   .     S
H72    C107    1.083   .     S
N73    N118    1.286   .     S
N73    H127    1.029   .     S
H84    N118    1.029   .     S
F88    C319    1.364   1_545 S
C89    O119    1.291   .     A
C89    O120    1.283   .     A
C89    C99     1.425   .     S
C90    C91     1.420   .     A
C90    C488    1.426   .     S
C90    C504    1.418   .     S
C91    C98     1.423   .     A
C91    C95     1.416   .     A
C92    C96     1.403   .     A
C92    C486    1.426   1_554 S
C92    C489    1.420   1_554 S
C93    C94     1.394   .     A
C93    C488    1.420   .     S
C93    C500    1.409   .     S
C94    C95     1.389   .     A
C94    H129    1.084   .     S
C95    F131    1.358   .     S
C96    H113    1.076   .     S
C96    C105    1.398   .     A
C97    C105    1.398   .     A
C97    C104    1.394   .     A
C97    H111    1.083   .     S
C98    C100    1.474   .     S
C98    C106    1.402   .     A
C99    C233    1.333   .     S
C99    F264    1.364   .     S
C100   O122    1.296   .     A
C100   O121    1.302   .     A
C101   C102    1.430   .     S
C101   C363    1.333   1_545 S
C101   H376    1.088   1_545 S
C102   O124    1.289   .     A
C102   O123    1.288   .     A
C103   O126    1.301   .     A
C103   C105    1.465   .     S
C103   O125    1.294   .     A
C104   C489    1.409   1_554 S
C104   F42     1.358   1_655 S
C106   H114    1.083   .     S
C106   C107    1.386   .     A
C107   C504    1.391   .     S
C108   H115    1.077   .     S
C108   C486    1.418   1_554 S
C108   C503    1.391   1_554 S
Cu109  O123    1.957   .     S
Cu109  O119    1.961   .     S
Cu109  N118    2.018   .     S
Cu109  Cu110   2.686   .     S
Cu109  O121    1.937   .     S
Cu109  O125    1.916   .     S
Cu110  O120    1.957   .     S
Cu110  O124    1.961   .     S
Cu110  N117    2.018   .     S
Cu110  O122    1.916   .     S
Cu110  O126    1.937   .     S
H112   C233    1.088   .     S
H116   C19     1.083   1_655 S
N117   N30     1.286   1_655 S
N117   H39     1.029   1_655 S
H128   N30     1.029   1_655 S
F132   C363    1.364   1_545 S
C133   O163    1.291   .     A
C133   O164    1.283   .     A
C133   C143    1.425   .     S
C134   C135    1.420   .     A
C134   C532    1.426   .     S
C134   C548    1.418   .     S
C135   C142    1.423   .     A
C135   C139    1.416   .     A
C136   C140    1.403   .     A
C136   C530    1.426   1_554 S
C136   C533    1.420   1_554 S
C137   C138    1.394   .     A
C137   C532    1.420   .     S
C137   C544    1.409   .     S
C138   C139    1.389   .     A
C138   H173    1.084   .     S
C139   F175    1.358   .     S
C140   H157    1.076   .     S
C140   C149    1.398   .     A
C141   C149    1.398   .     A
C141   C148    1.394   .     A
C141   H155    1.083   .     S
C142   C144    1.474   .     S
C142   C150    1.402   .     A
C143   C277    1.333   .     S
C143   F308    1.364   .     S
C144   O166    1.296   .     A
C144   O165    1.302   .     A
C145   C146    1.430   .     S
C146   O168    1.289   .     A
C146   O167    1.288   .     A
C147   O170    1.301   .     A
C147   C149    1.465   .     S
C147   O169    1.294   .     A
C148   C533    1.409   1_554 S
C148   F218    1.358   .     S
C150   H158    1.083   .     S
C150   C151    1.386   .     A
C151   C548    1.391   .     S
C151   H248    1.083   1_455 S
C152   H159    1.077   .     S
C152   C530    1.418   1_554 S
C152   C547    1.391   1_554 S
Cu153  O167    1.957   .     S
Cu153  O163    1.961   .     S
Cu153  N162    2.018   .     S
Cu153  Cu154   2.686   .     S
Cu153  O165    1.937   .     S
Cu153  O169    1.916   .     S
Cu154  O164    1.957   .     S
Cu154  O168    1.961   .     S
Cu154  N161    2.018   .     S
Cu154  O166    1.916   .     S
Cu154  O170    1.937   .     S
H156   C277    1.088   .     S
H160   C195    1.083   .     S
N161   N206    1.286   .     S
N161   H215    1.029   .     S
N162   N249    1.286   1_455 S
N162   H260    1.029   1_455 S
H171   N249    1.029   1_455 S
H172   N206    1.029   .     S
F174   C236    1.358   1_455 S
C177   O207    1.291   .     A
C177   O208    1.283   .     A
C177   C187    1.425   .     S
C178   C179    1.420   .     A
C178   C576    1.426   .     S
C178   C592    1.418   .     S
C179   C186    1.423   .     A
C179   C183    1.416   .     A
C180   C184    1.403   .     A
C180   C574    1.426   1_554 S
C180   C577    1.420   1_554 S
C181   C182    1.394   .     A
C181   C576    1.420   .     S
C181   C588    1.409   .     S
C182   C183    1.389   .     A
C182   H217    1.084   .     S
C183   F219    1.358   .     S
C184   H201    1.076   .     S
C184   C193    1.398   .     A
C185   C193    1.398   .     A
C185   C192    1.394   .     A
C185   H199    1.083   .     S
C186   C188    1.474   .     S
C186   C194    1.402   .     A
C187   C321    1.333   .     S
C187   F352    1.364   .     S
C188   O210    1.296   .     A
C188   O209    1.302   .     A
C189   C190    1.430   .     S
C190   O212    1.289   .     A
C190   O211    1.288   .     A
C191   O214    1.301   .     A
C191   C193    1.465   .     S
C191   O213    1.294   .     A
C192   C577    1.409   1_554 S
C192   F262    1.358   .     S
C194   H202    1.083   .     S
C194   C195    1.386   .     A
C195   C592    1.391   .     S
C196   H203    1.077   .     S
C196   C574    1.418   1_554 S
C196   C591    1.391   1_554 S
Cu197  O211    1.957   .     S
Cu197  O207    1.961   .     S
Cu197  N206    2.018   .     S
Cu197  Cu198   2.686   .     S
Cu197  O209    1.937   .     S
Cu197  O213    1.916   .     S
Cu198  O208    1.957   .     S
Cu198  O212    1.961   .     S
Cu198  N205    2.018   .     S
Cu198  O210    1.916   .     S
Cu198  O214    1.937   .     S
H200   C321    1.088   .     S
H204   C239    1.083   .     S
N205   N250    1.286   .     S
N205   H259    1.029   .     S
H216   N250    1.029   .     S
C221   O251    1.291   .     A
C221   O252    1.283   .     A
C221   C231    1.425   .     S
C222   C223    1.420   .     A
C222   C620    1.426   .     S
C222   C636    1.418   .     S
C223   C230    1.423   .     A
C223   C227    1.416   .     A
C224   C228    1.403   .     A
C224   C618    1.426   1_554 S
C224   C621    1.420   1_554 S
C225   C226    1.394   .     A
C225   C620    1.420   .     S
C225   C632    1.409   .     S
C226   C227    1.389   .     A
C226   H261    1.084   .     S
C227   F263    1.358   .     S
C228   H245    1.076   .     S
C228   C237    1.398   .     A
C229   C237    1.398   .     A
C229   C236    1.394   .     A
C229   H243    1.083   .     S
C230   C232    1.474   .     S
C230   C238    1.402   .     A
C231   C365    1.333   .     S
C231   F396    1.364   .     S
C232   O254    1.296   .     A
C232   O253    1.302   .     A
C233   C234    1.430   .     S
C234   O256    1.289   .     A
C234   O255    1.288   .     A
C235   O258    1.301   .     A
C235   C237    1.465   .     S
C235   O257    1.294   .     A
C236   C621    1.409   1_554 S
C236   F174    1.358   1_655 S
C238   H246    1.083   .     S
C238   C239    1.386   .     A
C239   C636    1.391   .     S
C240   H247    1.077   .     S
C240   C618    1.418   1_554 S
C240   C635    1.391   1_554 S
Cu241  O255    1.957   .     S
Cu241  O251    1.961   .     S
Cu241  N250    2.018   .     S
Cu241  Cu242   2.686   .     S
Cu241  O253    1.937   .     S
Cu241  O257    1.916   .     S
Cu242  O252    1.957   .     S
Cu242  O256    1.961   .     S
Cu242  N249    2.018   .     S
Cu242  O254    1.916   .     S
Cu242  O258    1.937   .     S
H244   C365    1.088   .     S
H248   C151    1.083   1_655 S
N249   N162    1.286   1_655 S
N249   H171    1.029   1_655 S
H260   N162    1.029   1_655 S
C265   O295    1.291   .     A
C265   O296    1.283   .     A
C265   C275    1.425   .     S
C266   C267    1.420   .     A
C266   C664    1.426   .     S
C266   C680    1.418   .     S
C267   C274    1.423   .     A
C267   C271    1.416   .     A
C268   C272    1.403   .     A
C268   C662    1.426   1_554 S
C268   C665    1.420   1_554 S
C269   C270    1.394   .     A
C269   C664    1.420   .     S
C269   C676    1.409   .     S
C270   C271    1.389   .     A
C270   H305    1.084   .     S
C271   F307    1.358   .     S
C272   H289    1.076   .     S
C272   C281    1.398   .     A
C273   C281    1.398   .     A
C273   C280    1.394   .     A
C273   H287    1.083   .     S
C274   C276    1.474   .     S
C274   C282    1.402   .     A
C275   C13     1.333   1_565 S
C275   F44     1.364   1_565 S
C276   O298    1.296   .     A
C276   O297    1.302   .     A
C277   C278    1.430   .     S
C278   O300    1.289   .     A
C278   O299    1.288   .     A
C279   O302    1.301   .     A
C279   C281    1.465   .     S
C279   O301    1.294   .     A
C280   C665    1.409   1_554 S
C280   F350    1.358   .     S
C282   H290    1.083   .     S
C282   C283    1.386   .     A
C283   C680    1.391   .     S
C283   H380    1.083   1_455 S
C284   H291    1.077   .     S
C284   C662    1.418   1_554 S
C284   C679    1.391   1_554 S
Cu285  O299    1.957   .     S
Cu285  O295    1.961   .     S
Cu285  N294    2.018   .     S
Cu285  Cu286   2.686   .     S
Cu285  O297    1.937   .     S
Cu285  O301    1.916   .     S
Cu286  O296    1.957   .     S
Cu286  O300    1.961   .     S
Cu286  N293    2.018   .     S
Cu286  O298    1.916   .     S
Cu286  O302    1.937   .     S
H288   C13     1.088   1_565 S
H292   C327    1.083   .     S
N293   N338    1.286   .     S
N293   H347    1.029   .     S
N294   N381    1.286   1_455 S
N294   H392    1.029   1_455 S
H303   N381    1.029   1_455 S
H304   N338    1.029   .     S
F306   C368    1.358   1_455 S
C309   O339    1.291   .     A
C309   O340    1.283   .     A
C309   C319    1.425   .     S
C310   C311    1.420   .     A
C310   C708    1.426   .     S
C310   C724    1.418   .     S
C311   C318    1.423   .     A
C311   C315    1.416   .     A
C312   C316    1.403   .     A
C312   C706    1.426   1_554 S
C312   C709    1.420   1_554 S
C313   C314    1.394   .     A
C313   C708    1.420   .     S
C313   C720    1.409   .     S
C314   C315    1.389   .     A
C314   H349    1.084   .     S
C315   F351    1.358   .     S
C316   H333    1.076   .     S
C316   C325    1.398   .     A
C317   C325    1.398   .     A
C317   C324    1.394   .     A
C317   H331    1.083   .     S
C318   C320    1.474   .     S
C318   C326    1.402   .     A
C319   C57     1.333   1_565 S
C319   F88     1.364   1_565 S
C320   O342    1.296   .     A
C320   O341    1.302   .     A
C321   C322    1.430   .     S
C322   O344    1.289   .     A
C322   O343    1.288   .     A
C323   O346    1.301   .     A
C323   C325    1.465   .     S
C323   O345    1.294   .     A
C324   C709    1.409   1_554 S
C324   F394    1.358   .     S
C326   H334    1.083   .     S
C326   C327    1.386   .     A
C327   C724    1.391   .     S
C328   H335    1.077   .     S
C328   C706    1.418   1_554 S
C328   C723    1.391   1_554 S
Cu329  O343    1.957   .     S
Cu329  O339    1.961   .     S
Cu329  N338    2.018   .     S
Cu329  Cu330   2.686   .     S
Cu329  O341    1.937   .     S
Cu329  O345    1.916   .     S
Cu330  O340    1.957   .     S
Cu330  O344    1.961   .     S
Cu330  N337    2.018   .     S
Cu330  O342    1.916   .     S
Cu330  O346    1.937   .     S
H332   C57     1.088   1_565 S
H336   C371    1.083   .     S
N337   N382    1.286   .     S
N337   H391    1.029   .     S
H348   N382    1.029   .     S
C353   O383    1.291   .     A
C353   O384    1.283   .     A
C353   C363    1.425   .     S
C354   C355    1.420   .     A
C354   C752    1.426   .     S
C354   C768    1.418   .     S
C355   C362    1.423   .     A
C355   C359    1.416   .     A
C356   C360    1.403   .     A
C356   C750    1.426   1_554 S
C356   C753    1.420   1_554 S
C357   C358    1.394   .     A
C357   C752    1.420   .     S
C357   C764    1.409   .     S
C358   C359    1.389   .     A
C358   H393    1.084   .     S
C359   F395    1.358   .     S
C360   H377    1.076   .     S
C360   C369    1.398   .     A
C361   C369    1.398   .     A
C361   C368    1.394   .     A
C361   H375    1.083   .     S
C362   C364    1.474   .     S
C362   C370    1.402   .     A
C363   C101    1.333   1_565 S
C363   F132    1.364   1_565 S
C364   O386    1.296   .     A
C364   O385    1.302   .     A
C365   C366    1.430   .     S
C366   O388    1.289   .     A
C366   O387    1.288   .     A
C367   O390    1.301   .     A
C367   C369    1.465   .     S
C367   O389    1.294   .     A
C368   C753    1.409   1_554 S
C368   F306    1.358   1_655 S
C370   H378    1.083   .     S
C370   C371    1.386   .     A
C371   C768    1.391   .     S
C372   H379    1.077   .     S
C372   C750    1.418   1_554 S
C372   C767    1.391   1_554 S
Cu373  O387    1.957   .     S
Cu373  O383    1.961   .     S
Cu373  N382    2.018   .     S
Cu373  Cu374   2.686   .     S
Cu373  O385    1.937   .     S
Cu373  O389    1.916   .     S
Cu374  O384    1.957   .     S
Cu374  O388    1.961   .     S
Cu374  N381    2.018   .     S
Cu374  O386    1.916   .     S
Cu374  O390    1.937   .     S
H376   C101    1.088   1_565 S
H380   C283    1.083   1_655 S
N381   N294    1.286   1_655 S
N381   H303    1.029   1_655 S
H392   N294    1.029   1_655 S
C397   O427    1.291   .     A
C397   O428    1.283   .     A
C397   C407    1.425   .     S
C398   C399    1.420   .     A
C398   C4      1.426   1_556 S
C398   C20     1.418   1_556 S
C399   C406    1.423   .     A
C399   C403    1.416   .     A
C400   C404    1.403   .     A
C401   C402    1.394   .     A
C401   C4      1.420   1_556 S
C401   C16     1.409   1_556 S
C402   C403    1.389   .     A
C402   H437    1.084   .     S
C403   F439    1.358   .     S
C404   H421    1.076   .     S
C404   C413    1.398   .     A
C405   C413    1.398   .     A
C405   C412    1.394   .     A
C405   H419    1.083   .     S
C406   C408    1.474   .     S
C406   C414    1.402   .     A
C407   C541    1.333   .     S
C407   F572    1.364   .     S
C408   O430    1.296   .     A
C408   O429    1.302   .     A
C409   C410    1.430   .     S
C409   C671    1.333   1_545 S
C409   H684    1.088   1_545 S
C410   O432    1.289   .     A
C410   O431    1.288   .     A
C411   O434    1.301   .     A
C411   C413    1.465   .     S
C411   O433    1.294   .     A
C412   F482    1.358   .     S
C414   H422    1.083   .     S
C414   C415    1.386   .     A
C415   C20     1.391   1_556 S
C415   H512    1.083   1_455 S
C416   H423    1.077   .     S
Cu417  O431    1.957   .     S
Cu417  O427    1.961   .     S
Cu417  N426    2.018   .     S
Cu417  Cu418   2.686   .     S
Cu417  O429    1.937   .     S
Cu417  O433    1.916   .     S
Cu418  O428    1.957   .     S
Cu418  O432    1.961   .     S
Cu418  N425    2.018   .     S
Cu418  O430    1.916   .     S
Cu418  O434    1.937   .     S
H420   C541    1.088   .     S
H424   C459    1.083   .     S
N425   N470    1.286   .     S
N425   H479    1.029   .     S
N426   N513    1.286   1_455 S
N426   H524    1.029   1_455 S
H435   N513    1.029   1_455 S
H436   N470    1.029   .     S
F438   C500    1.358   1_455 S
F440   C671    1.364   1_545 S
C441   O471    1.291   .     A
C441   O472    1.283   .     A
C441   C451    1.425   .     S
C442   C443    1.420   .     A
C442   C48     1.426   1_556 S
C442   C64     1.418   1_556 S
C443   C450    1.423   .     A
C443   C447    1.416   .     A
C444   C448    1.403   .     A
C445   C446    1.394   .     A
C445   C48     1.420   1_556 S
C445   C60     1.409   1_556 S
C446   C447    1.389   .     A
C446   H481    1.084   .     S
C447   F483    1.358   .     S
C448   H465    1.076   .     S
C448   C457    1.398   .     A
C449   C457    1.398   .     A
C449   C456    1.394   .     A
C449   H463    1.083   .     S
C450   C452    1.474   .     S
C450   C458    1.402   .     A
C451   C585    1.333   .     S
C451   F616    1.364   .     S
C452   O474    1.296   .     A
C452   O473    1.302   .     A
C453   C454    1.430   .     S
C453   C715    1.333   1_545 S
C453   H728    1.088   1_545 S
C454   O476    1.289   .     A
C454   O475    1.288   .     A
C455   O478    1.301   .     A
C455   C457    1.465   .     S
C455   O477    1.294   .     A
C456   F526    1.358   .     S
C458   H466    1.083   .     S
C458   C459    1.386   .     A
C459   C64     1.391   1_556 S
C460   H467    1.077   .     S
Cu461  O475    1.957   .     S
Cu461  O471    1.961   .     S
Cu461  N470    2.018   .     S
Cu461  Cu462   2.686   .     S
Cu461  O473    1.937   .     S
Cu461  O477    1.916   .     S
Cu462  O472    1.957   .     S
Cu462  O476    1.961   .     S
Cu462  N469    2.018   .     S
Cu462  O474    1.916   .     S
Cu462  O478    1.937   .     S
H464   C585    1.088   .     S
H468   C503    1.083   .     S
N469   N514    1.286   .     S
N469   H523    1.029   .     S
H480   N514    1.029   .     S
F484   C715    1.364   1_545 S
C485   O515    1.291   .     A
C485   O516    1.283   .     A
C485   C495    1.425   .     S
C486   C487    1.420   .     A
C486   C92     1.426   1_556 S
C486   C108    1.418   1_556 S
C487   C494    1.423   .     A
C487   C491    1.416   .     A
C488   C492    1.403   .     A
C489   C490    1.394   .     A
C489   C92     1.420   1_556 S
C489   C104    1.409   1_556 S
C490   C491    1.389   .     A
C490   H525    1.084   .     S
C491   F527    1.358   .     S
C492   H509    1.076   .     S
C492   C501    1.398   .     A
C493   C501    1.398   .     A
C493   C500    1.394   .     A
C493   H507    1.083   .     S
C494   C496    1.474   .     S
C494   C502    1.402   .     A
C495   C629    1.333   .     S
C495   F660    1.364   .     S
C496   O518    1.296   .     A
C496   O517    1.302   .     A
C497   C498    1.430   .     S
C497   C759    1.333   1_545 S
C497   H772    1.088   1_545 S
C498   O520    1.289   .     A
C498   O519    1.288   .     A
C499   O522    1.301   .     A
C499   C501    1.465   .     S
C499   O521    1.294   .     A
C500   F438    1.358   1_655 S
C502   H510    1.083   .     S
C502   C503    1.386   .     A
C503   C108    1.391   1_556 S
C504   H511    1.077   .     S
Cu505  O519    1.957   .     S
Cu505  O515    1.961   .     S
Cu505  N514    2.018   .     S
Cu505  Cu506   2.686   .     S
Cu505  O517    1.937   .     S
Cu505  O521    1.916   .     S
Cu506  O516    1.957   .     S
Cu506  O520    1.961   .     S
Cu506  N513    2.018   .     S
Cu506  O518    1.916   .     S
Cu506  O522    1.937   .     S
H508   C629    1.088   .     S
H512   C415    1.083   1_655 S
N513   N426    1.286   1_655 S
N513   H435    1.029   1_655 S
H524   N426    1.029   1_655 S
F528   C759    1.364   1_545 S
C529   O559    1.291   .     A
C529   O560    1.283   .     A
C529   C539    1.425   .     S
C530   C531    1.420   .     A
C530   C136    1.426   1_556 S
C530   C152    1.418   1_556 S
C531   C538    1.423   .     A
C531   C535    1.416   .     A
C532   C536    1.403   .     A
C533   C534    1.394   .     A
C533   C136    1.420   1_556 S
C533   C148    1.409   1_556 S
C534   C535    1.389   .     A
C534   H569    1.084   .     S
C535   F571    1.358   .     S
C536   H553    1.076   .     S
C536   C545    1.398   .     A
C537   C545    1.398   .     A
C537   C544    1.394   .     A
C537   H551    1.083   .     S
C538   C540    1.474   .     S
C538   C546    1.402   .     A
C539   C673    1.333   .     S
C539   F704    1.364   .     S
C540   O562    1.296   .     A
C540   O561    1.302   .     A
C541   C542    1.430   .     S
C542   O564    1.289   .     A
C542   O563    1.288   .     A
C543   O566    1.301   .     A
C543   C545    1.465   .     S
C543   O565    1.294   .     A
C544   F614    1.358   .     S
C546   H554    1.083   .     S
C546   C547    1.386   .     A
C547   C152    1.391   1_556 S
C547   H644    1.083   1_455 S
C548   H555    1.077   .     S
Cu549  O563    1.957   .     S
Cu549  O559    1.961   .     S
Cu549  N558    2.018   .     S
Cu549  Cu550   2.686   .     S
Cu549  O561    1.937   .     S
Cu549  O565    1.916   .     S
Cu550  O560    1.957   .     S
Cu550  O564    1.961   .     S
Cu550  N557    2.018   .     S
Cu550  O562    1.916   .     S
Cu550  O566    1.937   .     S
H552   C673    1.088   .     S
H556   C591    1.083   .     S
N557   N602    1.286   .     S
N557   H611    1.029   .     S
N558   N645    1.286   1_455 S
N558   H656    1.029   1_455 S
H567   N645    1.029   1_455 S
H568   N602    1.029   .     S
F570   C632    1.358   1_455 S
C573   O603    1.291   .     A
C573   O604    1.283   .     A
C573   C583    1.425   .     S
C574   C575    1.420   .     A
C574   C180    1.426   1_556 S
C574   C196    1.418   1_556 S
C575   C582    1.423   .     A
C575   C579    1.416   .     A
C576   C580    1.403   .     A
C577   C578    1.394   .     A
C577   C180    1.420   1_556 S
C577   C192    1.409   1_556 S
C578   C579    1.389   .     A
C578   H613    1.084   .     S
C579   F615    1.358   .     S
C580   H597    1.076   .     S
C580   C589    1.398   .     A
C581   C589    1.398   .     A
C581   C588    1.394   .     A
C581   H595    1.083   .     S
C582   C584    1.474   .     S
C582   C590    1.402   .     A
C583   C717    1.333   .     S
C583   F748    1.364   .     S
C584   O606    1.296   .     A
C584   O605    1.302   .     A
C585   C586    1.430   .     S
C586   O608    1.289   .     A
C586   O607    1.288   .     A
C587   O610    1.301   .     A
C587   C589    1.465   .     S
C587   O609    1.294   .     A
C588   F658    1.358   .     S
C590   H598    1.083   .     S
C590   C591    1.386   .     A
C591   C196    1.391   1_556 S
C592   H599    1.077   .     S
Cu593  O607    1.957   .     S
Cu593  O603    1.961   .     S
Cu593  N602    2.018   .     S
Cu593  Cu594   2.686   .     S
Cu593  O605    1.937   .     S
Cu593  O609    1.916   .     S
Cu594  O604    1.957   .     S
Cu594  O608    1.961   .     S
Cu594  N601    2.018   .     S
Cu594  O606    1.916   .     S
Cu594  O610    1.937   .     S
H596   C717    1.088   .     S
H600   C635    1.083   .     S
N601   N646    1.286   .     S
N601   H655    1.029   .     S
H612   N646    1.029   .     S
C617   O647    1.291   .     A
C617   O648    1.283   .     A
C617   C627    1.425   .     S
C618   C619    1.420   .     A
C618   C224    1.426   1_556 S
C618   C240    1.418   1_556 S
C619   C626    1.423   .     A
C619   C623    1.416   .     A
C620   C624    1.403   .     A
C621   C622    1.394   .     A
C621   C224    1.420   1_556 S
C621   C236    1.409   1_556 S
C622   C623    1.389   .     A
C622   H657    1.084   .     S
C623   F659    1.358   .     S
C624   H641    1.076   .     S
C624   C633    1.398   .     A
C625   C633    1.398   .     A
C625   C632    1.394   .     A
C625   H639    1.083   .     S
C626   C628    1.474   .     S
C626   C634    1.402   .     A
C627   C761    1.333   .     S
C627   F792    1.364   .     S
C628   O650    1.296   .     A
C628   O649    1.302   .     A
C629   C630    1.430   .     S
C630   O652    1.289   .     A
C630   O651    1.288   .     A
C631   O654    1.301   .     A
C631   C633    1.465   .     S
C631   O653    1.294   .     A
C632   F570    1.358   1_655 S
C634   H642    1.083   .     S
C634   C635    1.386   .     A
C635   C240    1.391   1_556 S
C636   H643    1.077   .     S
Cu637  O651    1.957   .     S
Cu637  O647    1.961   .     S
Cu637  N646    2.018   .     S
Cu637  Cu638   2.686   .     S
Cu637  O649    1.937   .     S
Cu637  O653    1.916   .     S
Cu638  O648    1.957   .     S
Cu638  O652    1.961   .     S
Cu638  N645    2.018   .     S
Cu638  O650    1.916   .     S
Cu638  O654    1.937   .     S
H640   C761    1.088   .     S
H644   C547    1.083   1_655 S
N645   N558    1.286   1_655 S
N645   H567    1.029   1_655 S
H656   N558    1.029   1_655 S
C661   O691    1.291   .     A
C661   O692    1.283   .     A
C661   C671    1.425   .     S
C662   C663    1.420   .     A
C662   C268    1.426   1_556 S
C662   C284    1.418   1_556 S
C663   C670    1.423   .     A
C663   C667    1.416   .     A
C664   C668    1.403   .     A
C665   C666    1.394   .     A
C665   C268    1.420   1_556 S
C665   C280    1.409   1_556 S
C666   C667    1.389   .     A
C666   H701    1.084   .     S
C667   F703    1.358   .     S
C668   H685    1.076   .     S
C668   C677    1.398   .     A
C669   C677    1.398   .     A
C669   C676    1.394   .     A
C669   H683    1.083   .     S
C670   C672    1.474   .     S
C670   C678    1.402   .     A
C671   C409    1.333   1_565 S
C671   F440    1.364   1_565 S
C672   O694    1.296   .     A
C672   O693    1.302   .     A
C673   C674    1.430   .     S
C674   O696    1.289   .     A
C674   O695    1.288   .     A
C675   O698    1.301   .     A
C675   C677    1.465   .     S
C675   O697    1.294   .     A
C676   F746    1.358   .     S
C678   H686    1.083   .     S
C678   C679    1.386   .     A
C679   C284    1.391   1_556 S
C679   H776    1.083   1_455 S
C680   H687    1.077   .     S
Cu681  O695    1.957   .     S
Cu681  O691    1.961   .     S
Cu681  N690    2.018   .     S
Cu681  Cu682   2.686   .     S
Cu681  O693    1.937   .     S
Cu681  O697    1.916   .     S
Cu682  O692    1.957   .     S
Cu682  O696    1.961   .     S
Cu682  N689    2.018   .     S
Cu682  O694    1.916   .     S
Cu682  O698    1.937   .     S
H684   C409    1.088   1_565 S
H688   C723    1.083   .     S
N689   N734    1.286   .     S
N689   H743    1.029   .     S
N690   N777    1.286   1_455 S
N690   H788    1.029   1_455 S
H699   N777    1.029   1_455 S
H700   N734    1.029   .     S
F702   C764    1.358   1_455 S
C705   O735    1.291   .     A
C705   O736    1.283   .     A
C705   C715    1.425   .     S
C706   C707    1.420   .     A
C706   C312    1.426   1_556 S
C706   C328    1.418   1_556 S
C707   C714    1.423   .     A
C707   C711    1.416   .     A
C708   C712    1.403   .     A
C709   C710    1.394   .     A
C709   C312    1.420   1_556 S
C709   C324    1.409   1_556 S
C710   C711    1.389   .     A
C710   H745    1.084   .     S
C711   F747    1.358   .     S
C712   H729    1.076   .     S
C712   C721    1.398   .     A
C713   C721    1.398   .     A
C713   C720    1.394   .     A
C713   H727    1.083   .     S
C714   C716    1.474   .     S
C714   C722    1.402   .     A
C715   C453    1.333   1_565 S
C715   F484    1.364   1_565 S
C716   O738    1.296   .     A
C716   O737    1.302   .     A
C717   C718    1.430   .     S
C718   O740    1.289   .     A
C718   O739    1.288   .     A
C719   O742    1.301   .     A
C719   C721    1.465   .     S
C719   O741    1.294   .     A
C720   F790    1.358   .     S
C722   H730    1.083   .     S
C722   C723    1.386   .     A
C723   C328    1.391   1_556 S
C724   H731    1.077   .     S
Cu725  O739    1.957   .     S
Cu725  O735    1.961   .     S
Cu725  N734    2.018   .     S
Cu725  Cu726   2.686   .     S
Cu725  O737    1.937   .     S
Cu725  O741    1.916   .     S
Cu726  O736    1.957   .     S
Cu726  O740    1.961   .     S
Cu726  N733    2.018   .     S
Cu726  O738    1.916   .     S
Cu726  O742    1.937   .     S
H728   C453    1.088   1_565 S
H732   C767    1.083   .     S
N733   N778    1.286   .     S
N733   H787    1.029   .     S
H744   N778    1.029   .     S
C749   O779    1.291   .     A
C749   O780    1.283   .     A
C749   C759    1.425   .     S
C750   C751    1.420   .     A
C750   C356    1.426   1_556 S
C750   C372    1.418   1_556 S
C751   C758    1.423   .     A
C751   C755    1.416   .     A
C752   C756    1.403   .     A
C753   C754    1.394   .     A
C753   C356    1.420   1_556 S
C753   C368    1.409   1_556 S
C754   C755    1.389   .     A
C754   H789    1.084   .     S
C755   F791    1.358   .     S
C756   H773    1.076   .     S
C756   C765    1.398   .     A
C757   C765    1.398   .     A
C757   C764    1.394   .     A
C757   H771    1.083   .     S
C758   C760    1.474   .     S
C758   C766    1.402   .     A
C759   C497    1.333   1_565 S
C759   F528    1.364   1_565 S
C760   O782    1.296   .     A
C760   O781    1.302   .     A
C761   C762    1.430   .     S
C762   O784    1.289   .     A
C762   O783    1.288   .     A
C763   O786    1.301   .     A
C763   C765    1.465   .     S
C763   O785    1.294   .     A
C764   F702    1.358   1_655 S
C766   H774    1.083   .     S
C766   C767    1.386   .     A
C767   C372    1.391   1_556 S
C768   H775    1.077   .     S
Cu769  O783    1.957   .     S
Cu769  O779    1.961   .     S
Cu769  N778    2.018   .     S
Cu769  Cu770   2.686   .     S
Cu769  O781    1.937   .     S
Cu769  O785    1.916   .     S
Cu770  O780    1.957   .     S
Cu770  O784    1.961   .     S
Cu770  N777    2.018   .     S
Cu770  O782    1.916   .     S
Cu770  O786    1.937   .     S
H772   C497    1.088   1_565 S
H776   C679    1.083   1_655 S
N777   N690    1.286   1_655 S
N777   H699    1.029   1_655 S
H788   N690    1.029   1_655 S
