data_str_m2_o5_o17_pcu_sym.29
_audit_creation_date              2020-01-03
_audit_creation_method            'Materials Studio'
_symmetry_space_group_name_H-M    'P1'
_symmetry_Int_Tables_number       1
_symmetry_cell_setting            triclinic
loop_
_symmetry_equiv_pos_as_xyz
  x,y,z
_cell_length_a                    30.1484
_cell_length_b                    27.3760
_cell_length_c                    23.3731
_cell_angle_alpha                 90.1317
_cell_angle_beta                  90.0006
_cell_angle_gamma                 90.0056
loop_
_atom_site_label
_atom_site_type_symbol
_atom_site_fract_x
_atom_site_fract_y
_atom_site_fract_z
_atom_site_U_iso_or_equiv
_atom_site_adp_type
_atom_site_occupancy
O1     O     0.25000   0.09613   0.21425   0.00000  Uiso   1.00
O2     O     0.25000   0.23720   0.11908   0.00000  Uiso   1.00
O3     O     0.25000   0.23720   0.21425   0.00000  Uiso   1.00
O4     O     0.25000   0.09613   0.11908   0.00000  Uiso   1.00
C5     C     0.25012   0.07333   0.16663   0.00000  Uiso   1.00
C6     C     0.25012   0.26000   0.16671   0.00000  Uiso   1.00
O7     O     0.18513   0.16667   0.21427   0.00000  Uiso   1.00
O8     O     0.31487   0.16667   0.11907   0.00000  Uiso   1.00
O9     O     0.31487   0.16667   0.21427   0.00000  Uiso   1.00
O10    O     0.18513   0.16667   0.11907   0.00000  Uiso   1.00
C11    C     0.16419   0.16663   0.16666   0.00000  Uiso   1.00
C12    C     0.33558   0.16667   0.16667   0.00000  Uiso   1.00
Cu13   Cu    0.25000   0.16667   0.22303   0.00000  Uiso   1.00
Cu14   Cu    0.25000   0.16667   0.11031   0.00000  Uiso   1.00
N15    N     0.25000   0.16667   0.02561   0.00000  Uiso   1.00
N16    N     0.25000   0.16667   0.30773   0.00000  Uiso   1.00
C17    C     0.40621   0.21006   0.17769   0.00000  Uiso   1.00
C18    C     0.09302   0.12964   0.13746   0.00000  Uiso   1.00
C19    C     0.40621   0.12331   0.15557   0.00000  Uiso   1.00
C20    C     0.09302   0.20364   0.19572   0.00000  Uiso   1.00
C21    C     0.38357   0.16667   0.16666   0.00000  Uiso   1.00
C22    C     0.11581   0.16663   0.16662   0.00000  Uiso   1.00
C23    C     0.45268   0.12439   0.14844   0.00000  Uiso   1.00
C24    C     0.04641   0.20705   0.19043   0.00000  Uiso   1.00
C25    C     0.45270   0.20900   0.18470   0.00000  Uiso   1.00
C26    C     0.04639   0.12629   0.14268   0.00000  Uiso   1.00
C27    C     0.47619   0.16669   0.16656   0.00000  Uiso   1.00
C28    C     0.02300   0.16668   0.16655   0.00000  Uiso   1.00
C29    C     0.47611   0.08436   0.12511   0.00000  Uiso   1.00
C30    C     0.02258   0.24876   0.20943   0.00000  Uiso   1.00
C31    C     0.47617   0.24906   0.20794   0.00000  Uiso   1.00
C32    C     0.02252   0.08461   0.12364   0.00000  Uiso   1.00
C33    C     0.25022   0.02177   0.16661   0.00000  Uiso   1.00
C34    C     0.25022   0.31156   0.16672   0.00000  Uiso   1.00
Cl35   Cl    0.44838   0.03555   0.09034   0.00000  Uiso   1.00
Cl36   Cl    0.04925   0.30358   0.23145   0.00000  Uiso   1.00
Cl37   Cl    0.44850   0.29800   0.24253   0.00000  Uiso   1.00
Cl38   Cl    0.04910   0.02977   0.10153   0.00000  Uiso   1.00
O39    O     0.38247   0.25327   0.18029   0.00000  Uiso   1.00
C40    C     0.37830   0.27154   0.12407   0.00000  Uiso   1.00
H41    H     0.35637   0.24803   0.09759   0.00000  Uiso   1.00
H42    H     0.41114   0.27527   0.10280   0.00000  Uiso   1.00
H43    H     0.36277   0.30818   0.12581   0.00000  Uiso   1.00
O44    O     0.11733   0.09583   0.10650   0.00000  Uiso   1.00
C45    C     0.11661   0.10957   0.04831   0.00000  Uiso   1.00
H46    H     0.13102   0.14645   0.04223   0.00000  Uiso   1.00
H47    H     0.08242   0.10864   0.03041   0.00000  Uiso   1.00
H48    H     0.13708   0.08332   0.02356   0.00000  Uiso   1.00
O49    O     0.38248   0.08008   0.15299   0.00000  Uiso   1.00
C50    C     0.37829   0.06183   0.20922   0.00000  Uiso   1.00
H51    H     0.35608   0.08517   0.23553   0.00000  Uiso   1.00
H52    H     0.41109   0.05842   0.23070   0.00000  Uiso   1.00
H53    H     0.36304   0.02504   0.20746   0.00000  Uiso   1.00
O54    O     0.11732   0.23729   0.22696   0.00000  Uiso   1.00
C55    C     0.11650   0.22322   0.28504   0.00000  Uiso   1.00
H56    H     0.13807   0.24843   0.30979   0.00000  Uiso   1.00
H57    H     0.12960   0.18566   0.29073   0.00000  Uiso   1.00
H58    H     0.08245   0.22554   0.30323   0.00000  Uiso   1.00
O59    O     0.75000   0.09613   0.21425   0.00000  Uiso   1.00
O60    O     0.75000   0.23720   0.11908   0.00000  Uiso   1.00
O61    O     0.75000   0.23720   0.21425   0.00000  Uiso   1.00
O62    O     0.75000   0.09613   0.11908   0.00000  Uiso   1.00
C63    C     0.75012   0.07333   0.16663   0.00000  Uiso   1.00
C64    C     0.75012   0.26000   0.16671   0.00000  Uiso   1.00
O65    O     0.68513   0.16667   0.21427   0.00000  Uiso   1.00
O66    O     0.81487   0.16667   0.11907   0.00000  Uiso   1.00
O67    O     0.81487   0.16667   0.21427   0.00000  Uiso   1.00
O68    O     0.68513   0.16667   0.11907   0.00000  Uiso   1.00
C69    C     0.66419   0.16663   0.16666   0.00000  Uiso   1.00
C70    C     0.83558   0.16667   0.16667   0.00000  Uiso   1.00
Cu71   Cu    0.75000   0.16667   0.22303   0.00000  Uiso   1.00
Cu72   Cu    0.75000   0.16667   0.11031   0.00000  Uiso   1.00
N73    N     0.75000   0.16667   0.02561   0.00000  Uiso   1.00
N74    N     0.75000   0.16667   0.30773   0.00000  Uiso   1.00
C75    C     0.90621   0.21006   0.17769   0.00000  Uiso   1.00
C76    C     0.59302   0.12964   0.13746   0.00000  Uiso   1.00
C77    C     0.90621   0.12331   0.15557   0.00000  Uiso   1.00
C78    C     0.59302   0.20364   0.19572   0.00000  Uiso   1.00
C79    C     0.88357   0.16667   0.16666   0.00000  Uiso   1.00
C80    C     0.61581   0.16663   0.16662   0.00000  Uiso   1.00
C81    C     0.95268   0.12439   0.14844   0.00000  Uiso   1.00
C82    C     0.54641   0.20705   0.19043   0.00000  Uiso   1.00
C83    C     0.95270   0.20900   0.18470   0.00000  Uiso   1.00
C84    C     0.54639   0.12629   0.14268   0.00000  Uiso   1.00
C85    C     0.97619   0.16669   0.16656   0.00000  Uiso   1.00
C86    C     0.52300   0.16668   0.16655   0.00000  Uiso   1.00
C87    C     0.97611   0.08436   0.12511   0.00000  Uiso   1.00
C88    C     0.52258   0.24876   0.20943   0.00000  Uiso   1.00
C89    C     0.97617   0.24906   0.20794   0.00000  Uiso   1.00
C90    C     0.52252   0.08461   0.12364   0.00000  Uiso   1.00
C91    C     0.75022   0.02177   0.16661   0.00000  Uiso   1.00
C92    C     0.75022   0.31156   0.16672   0.00000  Uiso   1.00
Cl93   Cl    0.94838   0.03555   0.09034   0.00000  Uiso   1.00
Cl94   Cl    0.54925   0.30358   0.23145   0.00000  Uiso   1.00
Cl95   Cl    0.94850   0.29800   0.24253   0.00000  Uiso   1.00
Cl96   Cl    0.54910   0.02977   0.10153   0.00000  Uiso   1.00
O97    O     0.88247   0.25327   0.18029   0.00000  Uiso   1.00
C98    C     0.87830   0.27154   0.12407   0.00000  Uiso   1.00
H99    H     0.85637   0.24803   0.09759   0.00000  Uiso   1.00
H100   H     0.91114   0.27527   0.10280   0.00000  Uiso   1.00
H101   H     0.86277   0.30818   0.12581   0.00000  Uiso   1.00
O102   O     0.61733   0.09583   0.10650   0.00000  Uiso   1.00
C103   C     0.61661   0.10957   0.04831   0.00000  Uiso   1.00
H104   H     0.63102   0.14645   0.04223   0.00000  Uiso   1.00
H105   H     0.58242   0.10864   0.03041   0.00000  Uiso   1.00
H106   H     0.63708   0.08332   0.02356   0.00000  Uiso   1.00
O107   O     0.88248   0.08008   0.15299   0.00000  Uiso   1.00
C108   C     0.87829   0.06183   0.20922   0.00000  Uiso   1.00
H109   H     0.85608   0.08517   0.23553   0.00000  Uiso   1.00
H110   H     0.91109   0.05842   0.23070   0.00000  Uiso   1.00
H111   H     0.86304   0.02504   0.20746   0.00000  Uiso   1.00
O112   O     0.61732   0.23729   0.22696   0.00000  Uiso   1.00
C113   C     0.61650   0.22322   0.28504   0.00000  Uiso   1.00
H114   H     0.63807   0.24843   0.30979   0.00000  Uiso   1.00
H115   H     0.62960   0.18566   0.29073   0.00000  Uiso   1.00
H116   H     0.58245   0.22554   0.30323   0.00000  Uiso   1.00
O117   O     0.25000   0.42946   0.21425   0.00000  Uiso   1.00
O118   O     0.25000   0.57054   0.11908   0.00000  Uiso   1.00
O119   O     0.25000   0.57054   0.21425   0.00000  Uiso   1.00
O120   O     0.25000   0.42946   0.11908   0.00000  Uiso   1.00
C121   C     0.25012   0.40666   0.16663   0.00000  Uiso   1.00
C122   C     0.25012   0.59334   0.16671   0.00000  Uiso   1.00
O123   O     0.18513   0.50000   0.21427   0.00000  Uiso   1.00
O124   O     0.31487   0.50000   0.11907   0.00000  Uiso   1.00
O125   O     0.31487   0.50000   0.21427   0.00000  Uiso   1.00
O126   O     0.18513   0.50000   0.11907   0.00000  Uiso   1.00
C127   C     0.16419   0.49997   0.16666   0.00000  Uiso   1.00
C128   C     0.33558   0.50000   0.16667   0.00000  Uiso   1.00
Cu129  Cu    0.25000   0.50000   0.22303   0.00000  Uiso   1.00
Cu130  Cu    0.25000   0.50000   0.11031   0.00000  Uiso   1.00
N131   N     0.25000   0.50000   0.02561   0.00000  Uiso   1.00
N132   N     0.25000   0.50000   0.30773   0.00000  Uiso   1.00
C133   C     0.40621   0.54339   0.17769   0.00000  Uiso   1.00
C134   C     0.09302   0.46298   0.13746   0.00000  Uiso   1.00
C135   C     0.40621   0.45664   0.15557   0.00000  Uiso   1.00
C136   C     0.09302   0.53698   0.19572   0.00000  Uiso   1.00
C137   C     0.38357   0.50001   0.16666   0.00000  Uiso   1.00
C138   C     0.11581   0.49997   0.16662   0.00000  Uiso   1.00
C139   C     0.45268   0.45773   0.14844   0.00000  Uiso   1.00
C140   C     0.04641   0.54038   0.19043   0.00000  Uiso   1.00
C141   C     0.45270   0.54233   0.18470   0.00000  Uiso   1.00
C142   C     0.04639   0.45962   0.14268   0.00000  Uiso   1.00
C143   C     0.47619   0.50003   0.16656   0.00000  Uiso   1.00
C144   C     0.02300   0.50001   0.16655   0.00000  Uiso   1.00
C145   C     0.47611   0.41770   0.12511   0.00000  Uiso   1.00
C146   C     0.02258   0.58209   0.20943   0.00000  Uiso   1.00
C147   C     0.47617   0.58239   0.20794   0.00000  Uiso   1.00
C148   C     0.02252   0.41794   0.12364   0.00000  Uiso   1.00
C149   C     0.25022   0.35510   0.16661   0.00000  Uiso   1.00
C150   C     0.25022   0.64490   0.16672   0.00000  Uiso   1.00
Cl151  Cl    0.44838   0.36888   0.09034   0.00000  Uiso   1.00
Cl152  Cl    0.04925   0.63692   0.23145   0.00000  Uiso   1.00
Cl153  Cl    0.44850   0.63134   0.24253   0.00000  Uiso   1.00
Cl154  Cl    0.04910   0.36310   0.10153   0.00000  Uiso   1.00
O155   O     0.38247   0.58660   0.18029   0.00000  Uiso   1.00
C156   C     0.37830   0.60488   0.12407   0.00000  Uiso   1.00
H157   H     0.35637   0.58137   0.09759   0.00000  Uiso   1.00
H158   H     0.41114   0.60861   0.10280   0.00000  Uiso   1.00
H159   H     0.36277   0.64151   0.12581   0.00000  Uiso   1.00
O160   O     0.11733   0.42916   0.10650   0.00000  Uiso   1.00
C161   C     0.11661   0.44290   0.04831   0.00000  Uiso   1.00
H162   H     0.13102   0.47979   0.04223   0.00000  Uiso   1.00
H163   H     0.08242   0.44197   0.03041   0.00000  Uiso   1.00
H164   H     0.13708   0.41666   0.02356   0.00000  Uiso   1.00
O165   O     0.38248   0.41341   0.15299   0.00000  Uiso   1.00
C166   C     0.37829   0.39516   0.20922   0.00000  Uiso   1.00
H167   H     0.35608   0.41850   0.23553   0.00000  Uiso   1.00
H168   H     0.41109   0.39175   0.23070   0.00000  Uiso   1.00
H169   H     0.36304   0.35838   0.20746   0.00000  Uiso   1.00
O170   O     0.11732   0.57062   0.22696   0.00000  Uiso   1.00
C171   C     0.11650   0.55656   0.28504   0.00000  Uiso   1.00
H172   H     0.13807   0.58176   0.30979   0.00000  Uiso   1.00
H173   H     0.12960   0.51900   0.29073   0.00000  Uiso   1.00
H174   H     0.08245   0.55887   0.30323   0.00000  Uiso   1.00
O175   O     0.75000   0.42946   0.21425   0.00000  Uiso   1.00
O176   O     0.75000   0.57054   0.11908   0.00000  Uiso   1.00
O177   O     0.75000   0.57054   0.21425   0.00000  Uiso   1.00
O178   O     0.75000   0.42946   0.11908   0.00000  Uiso   1.00
C179   C     0.75012   0.40666   0.16663   0.00000  Uiso   1.00
C180   C     0.75012   0.59334   0.16671   0.00000  Uiso   1.00
O181   O     0.68513   0.50000   0.21427   0.00000  Uiso   1.00
O182   O     0.81487   0.50000   0.11907   0.00000  Uiso   1.00
O183   O     0.81487   0.50000   0.21427   0.00000  Uiso   1.00
O184   O     0.68513   0.50000   0.11907   0.00000  Uiso   1.00
C185   C     0.66419   0.49997   0.16666   0.00000  Uiso   1.00
C186   C     0.83558   0.50000   0.16667   0.00000  Uiso   1.00
Cu187  Cu    0.75000   0.50000   0.22303   0.00000  Uiso   1.00
Cu188  Cu    0.75000   0.50000   0.11031   0.00000  Uiso   1.00
N189   N     0.75000   0.50000   0.02561   0.00000  Uiso   1.00
N190   N     0.75000   0.50000   0.30773   0.00000  Uiso   1.00
C191   C     0.90621   0.54339   0.17769   0.00000  Uiso   1.00
C192   C     0.59302   0.46298   0.13746   0.00000  Uiso   1.00
C193   C     0.90621   0.45664   0.15557   0.00000  Uiso   1.00
C194   C     0.59302   0.53698   0.19572   0.00000  Uiso   1.00
C195   C     0.88357   0.50001   0.16666   0.00000  Uiso   1.00
C196   C     0.61581   0.49997   0.16662   0.00000  Uiso   1.00
C197   C     0.95268   0.45773   0.14844   0.00000  Uiso   1.00
C198   C     0.54641   0.54038   0.19043   0.00000  Uiso   1.00
C199   C     0.95270   0.54233   0.18470   0.00000  Uiso   1.00
C200   C     0.54639   0.45962   0.14268   0.00000  Uiso   1.00
C201   C     0.97619   0.50003   0.16656   0.00000  Uiso   1.00
C202   C     0.52300   0.50001   0.16655   0.00000  Uiso   1.00
C203   C     0.97611   0.41770   0.12511   0.00000  Uiso   1.00
C204   C     0.52258   0.58209   0.20943   0.00000  Uiso   1.00
C205   C     0.97617   0.58239   0.20794   0.00000  Uiso   1.00
C206   C     0.52252   0.41794   0.12364   0.00000  Uiso   1.00
C207   C     0.75022   0.35510   0.16661   0.00000  Uiso   1.00
C208   C     0.75022   0.64490   0.16672   0.00000  Uiso   1.00
Cl209  Cl    0.94838   0.36888   0.09034   0.00000  Uiso   1.00
Cl210  Cl    0.54925   0.63692   0.23145   0.00000  Uiso   1.00
Cl211  Cl    0.94850   0.63134   0.24253   0.00000  Uiso   1.00
Cl212  Cl    0.54910   0.36310   0.10153   0.00000  Uiso   1.00
O213   O     0.88247   0.58660   0.18029   0.00000  Uiso   1.00
C214   C     0.87830   0.60488   0.12407   0.00000  Uiso   1.00
H215   H     0.85637   0.58137   0.09759   0.00000  Uiso   1.00
H216   H     0.91114   0.60861   0.10280   0.00000  Uiso   1.00
H217   H     0.86277   0.64151   0.12581   0.00000  Uiso   1.00
O218   O     0.61733   0.42916   0.10650   0.00000  Uiso   1.00
C219   C     0.61661   0.44290   0.04831   0.00000  Uiso   1.00
H220   H     0.63102   0.47979   0.04223   0.00000  Uiso   1.00
H221   H     0.58242   0.44197   0.03041   0.00000  Uiso   1.00
H222   H     0.63708   0.41666   0.02356   0.00000  Uiso   1.00
O223   O     0.88248   0.41341   0.15299   0.00000  Uiso   1.00
C224   C     0.87829   0.39516   0.20922   0.00000  Uiso   1.00
H225   H     0.85608   0.41850   0.23553   0.00000  Uiso   1.00
H226   H     0.91109   0.39175   0.23070   0.00000  Uiso   1.00
H227   H     0.86304   0.35838   0.20746   0.00000  Uiso   1.00
O228   O     0.61732   0.57062   0.22696   0.00000  Uiso   1.00
C229   C     0.61650   0.55656   0.28504   0.00000  Uiso   1.00
H230   H     0.63807   0.58176   0.30979   0.00000  Uiso   1.00
H231   H     0.62960   0.51900   0.29073   0.00000  Uiso   1.00
H232   H     0.58245   0.55887   0.30323   0.00000  Uiso   1.00
O233   O     0.25000   0.76280   0.21425   0.00000  Uiso   1.00
O234   O     0.25000   0.90387   0.11908   0.00000  Uiso   1.00
O235   O     0.25000   0.90387   0.21425   0.00000  Uiso   1.00
O236   O     0.25000   0.76280   0.11908   0.00000  Uiso   1.00
C237   C     0.25012   0.74000   0.16663   0.00000  Uiso   1.00
C238   C     0.25012   0.92667   0.16671   0.00000  Uiso   1.00
O239   O     0.18513   0.83333   0.21427   0.00000  Uiso   1.00
O240   O     0.31487   0.83333   0.11907   0.00000  Uiso   1.00
O241   O     0.31487   0.83333   0.21427   0.00000  Uiso   1.00
O242   O     0.18513   0.83333   0.11907   0.00000  Uiso   1.00
C243   C     0.16419   0.83330   0.16666   0.00000  Uiso   1.00
C244   C     0.33558   0.83334   0.16667   0.00000  Uiso   1.00
Cu245  Cu    0.25000   0.83333   0.22303   0.00000  Uiso   1.00
Cu246  Cu    0.25000   0.83333   0.11031   0.00000  Uiso   1.00
N247   N     0.25000   0.83333   0.02561   0.00000  Uiso   1.00
N248   N     0.25000   0.83333   0.30773   0.00000  Uiso   1.00
C249   C     0.40621   0.87672   0.17769   0.00000  Uiso   1.00
C250   C     0.09302   0.79631   0.13746   0.00000  Uiso   1.00
C251   C     0.40621   0.78997   0.15557   0.00000  Uiso   1.00
C252   C     0.09302   0.87031   0.19572   0.00000  Uiso   1.00
C253   C     0.38357   0.83334   0.16666   0.00000  Uiso   1.00
C254   C     0.11581   0.83330   0.16662   0.00000  Uiso   1.00
C255   C     0.45268   0.79106   0.14844   0.00000  Uiso   1.00
C256   C     0.04641   0.87372   0.19043   0.00000  Uiso   1.00
C257   C     0.45270   0.87567   0.18470   0.00000  Uiso   1.00
C258   C     0.04639   0.79296   0.14268   0.00000  Uiso   1.00
C259   C     0.47619   0.83336   0.16656   0.00000  Uiso   1.00
C260   C     0.02300   0.83335   0.16655   0.00000  Uiso   1.00
C261   C     0.47611   0.75103   0.12511   0.00000  Uiso   1.00
C262   C     0.02258   0.91543   0.20943   0.00000  Uiso   1.00
C263   C     0.47617   0.91572   0.20794   0.00000  Uiso   1.00
C264   C     0.02252   0.75128   0.12364   0.00000  Uiso   1.00
C265   C     0.25022   0.68844   0.16661   0.00000  Uiso   1.00
C266   C     0.25022   0.97823   0.16672   0.00000  Uiso   1.00
Cl267  Cl    0.44838   0.70222   0.09034   0.00000  Uiso   1.00
Cl268  Cl    0.04925   0.97025   0.23145   0.00000  Uiso   1.00
Cl269  Cl    0.44850   0.96467   0.24253   0.00000  Uiso   1.00
Cl270  Cl    0.04910   0.69643   0.10153   0.00000  Uiso   1.00
O271   O     0.38247   0.91993   0.18029   0.00000  Uiso   1.00
C272   C     0.37830   0.93821   0.12407   0.00000  Uiso   1.00
H273   H     0.35637   0.91470   0.09759   0.00000  Uiso   1.00
H274   H     0.41114   0.94194   0.10280   0.00000  Uiso   1.00
H275   H     0.36277   0.97484   0.12581   0.00000  Uiso   1.00
O276   O     0.11733   0.76249   0.10650   0.00000  Uiso   1.00
C277   C     0.11661   0.77623   0.04831   0.00000  Uiso   1.00
H278   H     0.13102   0.81312   0.04223   0.00000  Uiso   1.00
H279   H     0.08242   0.77530   0.03041   0.00000  Uiso   1.00
H280   H     0.13708   0.74999   0.02356   0.00000  Uiso   1.00
O281   O     0.38248   0.74674   0.15299   0.00000  Uiso   1.00
C282   C     0.37829   0.72849   0.20922   0.00000  Uiso   1.00
H283   H     0.35608   0.75184   0.23553   0.00000  Uiso   1.00
H284   H     0.41109   0.72508   0.23070   0.00000  Uiso   1.00
H285   H     0.36304   0.69171   0.20746   0.00000  Uiso   1.00
O286   O     0.11732   0.90396   0.22696   0.00000  Uiso   1.00
C287   C     0.11650   0.88989   0.28504   0.00000  Uiso   1.00
H288   H     0.13807   0.91509   0.30979   0.00000  Uiso   1.00
H289   H     0.12960   0.85233   0.29073   0.00000  Uiso   1.00
H290   H     0.08245   0.89221   0.30323   0.00000  Uiso   1.00
O291   O     0.75000   0.76280   0.21425   0.00000  Uiso   1.00
O292   O     0.75000   0.90387   0.11908   0.00000  Uiso   1.00
O293   O     0.75000   0.90387   0.21425   0.00000  Uiso   1.00
O294   O     0.75000   0.76280   0.11908   0.00000  Uiso   1.00
C295   C     0.75012   0.74000   0.16663   0.00000  Uiso   1.00
C296   C     0.75012   0.92667   0.16671   0.00000  Uiso   1.00
O297   O     0.68513   0.83333   0.21427   0.00000  Uiso   1.00
O298   O     0.81487   0.83333   0.11907   0.00000  Uiso   1.00
O299   O     0.81487   0.83333   0.21427   0.00000  Uiso   1.00
O300   O     0.68513   0.83333   0.11907   0.00000  Uiso   1.00
C301   C     0.66419   0.83330   0.16666   0.00000  Uiso   1.00
C302   C     0.83558   0.83334   0.16667   0.00000  Uiso   1.00
Cu303  Cu    0.75000   0.83333   0.22303   0.00000  Uiso   1.00
Cu304  Cu    0.75000   0.83333   0.11031   0.00000  Uiso   1.00
N305   N     0.75000   0.83333   0.02561   0.00000  Uiso   1.00
N306   N     0.75000   0.83333   0.30773   0.00000  Uiso   1.00
C307   C     0.90621   0.87672   0.17769   0.00000  Uiso   1.00
C308   C     0.59302   0.79631   0.13746   0.00000  Uiso   1.00
C309   C     0.90621   0.78997   0.15557   0.00000  Uiso   1.00
C310   C     0.59302   0.87031   0.19572   0.00000  Uiso   1.00
C311   C     0.88357   0.83334   0.16666   0.00000  Uiso   1.00
C312   C     0.61581   0.83330   0.16662   0.00000  Uiso   1.00
C313   C     0.95268   0.79106   0.14844   0.00000  Uiso   1.00
C314   C     0.54641   0.87372   0.19043   0.00000  Uiso   1.00
C315   C     0.95270   0.87567   0.18470   0.00000  Uiso   1.00
C316   C     0.54639   0.79296   0.14268   0.00000  Uiso   1.00
C317   C     0.97619   0.83336   0.16656   0.00000  Uiso   1.00
C318   C     0.52300   0.83335   0.16655   0.00000  Uiso   1.00
C319   C     0.97611   0.75103   0.12511   0.00000  Uiso   1.00
C320   C     0.52258   0.91543   0.20943   0.00000  Uiso   1.00
C321   C     0.97617   0.91572   0.20794   0.00000  Uiso   1.00
C322   C     0.52252   0.75128   0.12364   0.00000  Uiso   1.00
C323   C     0.75022   0.68844   0.16661   0.00000  Uiso   1.00
C324   C     0.75022   0.97823   0.16672   0.00000  Uiso   1.00
Cl325  Cl    0.94838   0.70222   0.09034   0.00000  Uiso   1.00
Cl326  Cl    0.54925   0.97025   0.23145   0.00000  Uiso   1.00
Cl327  Cl    0.94850   0.96467   0.24253   0.00000  Uiso   1.00
Cl328  Cl    0.54910   0.69643   0.10153   0.00000  Uiso   1.00
O329   O     0.88247   0.91993   0.18029   0.00000  Uiso   1.00
C330   C     0.87830   0.93821   0.12407   0.00000  Uiso   1.00
H331   H     0.85637   0.91470   0.09759   0.00000  Uiso   1.00
H332   H     0.91114   0.94194   0.10280   0.00000  Uiso   1.00
H333   H     0.86277   0.97484   0.12581   0.00000  Uiso   1.00
O334   O     0.61733   0.76249   0.10650   0.00000  Uiso   1.00
C335   C     0.61661   0.77623   0.04831   0.00000  Uiso   1.00
H336   H     0.63102   0.81312   0.04223   0.00000  Uiso   1.00
H337   H     0.58242   0.77530   0.03041   0.00000  Uiso   1.00
H338   H     0.63708   0.74999   0.02356   0.00000  Uiso   1.00
O339   O     0.88248   0.74674   0.15299   0.00000  Uiso   1.00
C340   C     0.87829   0.72849   0.20922   0.00000  Uiso   1.00
H341   H     0.85608   0.75184   0.23553   0.00000  Uiso   1.00
H342   H     0.91109   0.72508   0.23070   0.00000  Uiso   1.00
H343   H     0.86304   0.69171   0.20746   0.00000  Uiso   1.00
O344   O     0.61732   0.90396   0.22696   0.00000  Uiso   1.00
C345   C     0.61650   0.88989   0.28504   0.00000  Uiso   1.00
H346   H     0.63807   0.91509   0.30979   0.00000  Uiso   1.00
H347   H     0.62960   0.85233   0.29073   0.00000  Uiso   1.00
H348   H     0.58245   0.89221   0.30323   0.00000  Uiso   1.00
O349   O     0.25000   0.09613   0.54759   0.00000  Uiso   1.00
O350   O     0.25000   0.23720   0.45241   0.00000  Uiso   1.00
O351   O     0.25000   0.23720   0.54759   0.00000  Uiso   1.00
O352   O     0.25000   0.09613   0.45241   0.00000  Uiso   1.00
C353   C     0.25012   0.07333   0.49996   0.00000  Uiso   1.00
C354   C     0.25012   0.26000   0.50004   0.00000  Uiso   1.00
O355   O     0.18513   0.16667   0.54760   0.00000  Uiso   1.00
O356   O     0.31487   0.16667   0.45240   0.00000  Uiso   1.00
O357   O     0.31487   0.16667   0.54760   0.00000  Uiso   1.00
O358   O     0.18513   0.16667   0.45240   0.00000  Uiso   1.00
C359   C     0.16419   0.16663   0.49999   0.00000  Uiso   1.00
C360   C     0.33558   0.16667   0.50000   0.00000  Uiso   1.00
Cu361  Cu    0.25000   0.16667   0.55636   0.00000  Uiso   1.00
Cu362  Cu    0.25000   0.16667   0.44364   0.00000  Uiso   1.00
N363   N     0.25000   0.16667   0.35894   0.00000  Uiso   1.00
N364   N     0.25000   0.16667   0.64106   0.00000  Uiso   1.00
C365   C     0.40621   0.21006   0.51102   0.00000  Uiso   1.00
C366   C     0.09302   0.12964   0.47079   0.00000  Uiso   1.00
C367   C     0.40621   0.12331   0.48890   0.00000  Uiso   1.00
C368   C     0.09302   0.20364   0.52905   0.00000  Uiso   1.00
C369   C     0.38357   0.16667   0.50000   0.00000  Uiso   1.00
C370   C     0.11581   0.16663   0.49995   0.00000  Uiso   1.00
C371   C     0.45268   0.12439   0.48178   0.00000  Uiso   1.00
C372   C     0.04641   0.20705   0.52377   0.00000  Uiso   1.00
C373   C     0.45270   0.20900   0.51804   0.00000  Uiso   1.00
C374   C     0.04639   0.12629   0.47601   0.00000  Uiso   1.00
C375   C     0.47619   0.16669   0.49990   0.00000  Uiso   1.00
C376   C     0.02300   0.16668   0.49988   0.00000  Uiso   1.00
C377   C     0.47611   0.08436   0.45844   0.00000  Uiso   1.00
C378   C     0.02258   0.24876   0.54276   0.00000  Uiso   1.00
C379   C     0.47617   0.24906   0.54128   0.00000  Uiso   1.00
C380   C     0.02252   0.08461   0.45697   0.00000  Uiso   1.00
C381   C     0.25022   0.02177   0.49994   0.00000  Uiso   1.00
C382   C     0.25022   0.31156   0.50006   0.00000  Uiso   1.00
Cl383  Cl    0.44838   0.03555   0.42367   0.00000  Uiso   1.00
Cl384  Cl    0.04925   0.30358   0.56478   0.00000  Uiso   1.00
Cl385  Cl    0.44850   0.29800   0.57586   0.00000  Uiso   1.00
Cl386  Cl    0.04910   0.02977   0.43487   0.00000  Uiso   1.00
O387   O     0.38247   0.25327   0.51362   0.00000  Uiso   1.00
C388   C     0.37830   0.27154   0.45741   0.00000  Uiso   1.00
H389   H     0.35637   0.24803   0.43092   0.00000  Uiso   1.00
H390   H     0.41114   0.27527   0.43613   0.00000  Uiso   1.00
H391   H     0.36277   0.30818   0.45914   0.00000  Uiso   1.00
O392   O     0.11733   0.09583   0.43984   0.00000  Uiso   1.00
C393   C     0.11661   0.10957   0.38165   0.00000  Uiso   1.00
H394   H     0.13102   0.14645   0.37556   0.00000  Uiso   1.00
H395   H     0.08242   0.10864   0.36374   0.00000  Uiso   1.00
H396   H     0.13708   0.08332   0.35689   0.00000  Uiso   1.00
O397   O     0.38248   0.08008   0.48633   0.00000  Uiso   1.00
C398   C     0.37829   0.06183   0.54255   0.00000  Uiso   1.00
H399   H     0.35608   0.08517   0.56887   0.00000  Uiso   1.00
H400   H     0.41109   0.05842   0.56403   0.00000  Uiso   1.00
H401   H     0.36304   0.02504   0.54079   0.00000  Uiso   1.00
O402   O     0.11732   0.23729   0.56029   0.00000  Uiso   1.00
C403   C     0.11650   0.22322   0.61837   0.00000  Uiso   1.00
H404   H     0.13807   0.24843   0.64312   0.00000  Uiso   1.00
H405   H     0.12960   0.18566   0.62407   0.00000  Uiso   1.00
H406   H     0.08245   0.22554   0.63656   0.00000  Uiso   1.00
O407   O     0.75000   0.09613   0.54759   0.00000  Uiso   1.00
O408   O     0.75000   0.23720   0.45241   0.00000  Uiso   1.00
O409   O     0.75000   0.23720   0.54759   0.00000  Uiso   1.00
O410   O     0.75000   0.09613   0.45241   0.00000  Uiso   1.00
C411   C     0.75012   0.07333   0.49996   0.00000  Uiso   1.00
C412   C     0.75012   0.26000   0.50004   0.00000  Uiso   1.00
O413   O     0.68513   0.16667   0.54760   0.00000  Uiso   1.00
O414   O     0.81487   0.16667   0.45240   0.00000  Uiso   1.00
O415   O     0.81487   0.16667   0.54760   0.00000  Uiso   1.00
O416   O     0.68513   0.16667   0.45240   0.00000  Uiso   1.00
C417   C     0.66419   0.16663   0.49999   0.00000  Uiso   1.00
C418   C     0.83558   0.16667   0.50000   0.00000  Uiso   1.00
Cu419  Cu    0.75000   0.16667   0.55636   0.00000  Uiso   1.00
Cu420  Cu    0.75000   0.16667   0.44364   0.00000  Uiso   1.00
N421   N     0.75000   0.16667   0.35894   0.00000  Uiso   1.00
N422   N     0.75000   0.16667   0.64106   0.00000  Uiso   1.00
C423   C     0.90621   0.21006   0.51102   0.00000  Uiso   1.00
C424   C     0.59302   0.12964   0.47079   0.00000  Uiso   1.00
C425   C     0.90621   0.12331   0.48890   0.00000  Uiso   1.00
C426   C     0.59302   0.20364   0.52905   0.00000  Uiso   1.00
C427   C     0.88357   0.16667   0.50000   0.00000  Uiso   1.00
C428   C     0.61581   0.16663   0.49995   0.00000  Uiso   1.00
C429   C     0.95268   0.12439   0.48178   0.00000  Uiso   1.00
C430   C     0.54641   0.20705   0.52377   0.00000  Uiso   1.00
C431   C     0.95270   0.20900   0.51804   0.00000  Uiso   1.00
C432   C     0.54639   0.12629   0.47601   0.00000  Uiso   1.00
C433   C     0.97619   0.16669   0.49990   0.00000  Uiso   1.00
C434   C     0.52300   0.16668   0.49988   0.00000  Uiso   1.00
C435   C     0.97611   0.08436   0.45844   0.00000  Uiso   1.00
C436   C     0.52258   0.24876   0.54276   0.00000  Uiso   1.00
C437   C     0.97617   0.24906   0.54128   0.00000  Uiso   1.00
C438   C     0.52252   0.08461   0.45697   0.00000  Uiso   1.00
C439   C     0.75022   0.02177   0.49994   0.00000  Uiso   1.00
C440   C     0.75022   0.31156   0.50006   0.00000  Uiso   1.00
Cl441  Cl    0.94838   0.03555   0.42367   0.00000  Uiso   1.00
Cl442  Cl    0.54925   0.30358   0.56478   0.00000  Uiso   1.00
Cl443  Cl    0.94850   0.29800   0.57586   0.00000  Uiso   1.00
Cl444  Cl    0.54910   0.02977   0.43487   0.00000  Uiso   1.00
O445   O     0.88247   0.25327   0.51362   0.00000  Uiso   1.00
C446   C     0.87830   0.27154   0.45741   0.00000  Uiso   1.00
H447   H     0.85637   0.24803   0.43092   0.00000  Uiso   1.00
H448   H     0.91114   0.27527   0.43613   0.00000  Uiso   1.00
H449   H     0.86277   0.30818   0.45914   0.00000  Uiso   1.00
O450   O     0.61733   0.09583   0.43984   0.00000  Uiso   1.00
C451   C     0.61661   0.10957   0.38165   0.00000  Uiso   1.00
H452   H     0.63102   0.14645   0.37556   0.00000  Uiso   1.00
H453   H     0.58242   0.10864   0.36374   0.00000  Uiso   1.00
H454   H     0.63708   0.08332   0.35689   0.00000  Uiso   1.00
O455   O     0.88248   0.08008   0.48633   0.00000  Uiso   1.00
C456   C     0.87829   0.06183   0.54255   0.00000  Uiso   1.00
H457   H     0.85608   0.08517   0.56887   0.00000  Uiso   1.00
H458   H     0.91109   0.05842   0.56403   0.00000  Uiso   1.00
H459   H     0.86304   0.02504   0.54079   0.00000  Uiso   1.00
O460   O     0.61732   0.23729   0.56029   0.00000  Uiso   1.00
C461   C     0.61650   0.22322   0.61837   0.00000  Uiso   1.00
H462   H     0.63807   0.24843   0.64312   0.00000  Uiso   1.00
H463   H     0.62960   0.18566   0.62407   0.00000  Uiso   1.00
H464   H     0.58245   0.22554   0.63656   0.00000  Uiso   1.00
O465   O     0.25000   0.42946   0.54759   0.00000  Uiso   1.00
O466   O     0.25000   0.57054   0.45241   0.00000  Uiso   1.00
O467   O     0.25000   0.57054   0.54759   0.00000  Uiso   1.00
O468   O     0.25000   0.42946   0.45241   0.00000  Uiso   1.00
C469   C     0.25012   0.40666   0.49996   0.00000  Uiso   1.00
C470   C     0.25012   0.59334   0.50004   0.00000  Uiso   1.00
O471   O     0.18513   0.50000   0.54760   0.00000  Uiso   1.00
O472   O     0.31487   0.50000   0.45240   0.00000  Uiso   1.00
O473   O     0.31487   0.50000   0.54760   0.00000  Uiso   1.00
O474   O     0.18513   0.50000   0.45240   0.00000  Uiso   1.00
C475   C     0.16419   0.49997   0.49999   0.00000  Uiso   1.00
C476   C     0.33558   0.50000   0.50000   0.00000  Uiso   1.00
Cu477  Cu    0.25000   0.50000   0.55636   0.00000  Uiso   1.00
Cu478  Cu    0.25000   0.50000   0.44364   0.00000  Uiso   1.00
N479   N     0.25000   0.50000   0.35894   0.00000  Uiso   1.00
N480   N     0.25000   0.50000   0.64106   0.00000  Uiso   1.00
C481   C     0.40621   0.54339   0.51102   0.00000  Uiso   1.00
C482   C     0.09302   0.46298   0.47079   0.00000  Uiso   1.00
C483   C     0.40621   0.45664   0.48890   0.00000  Uiso   1.00
C484   C     0.09302   0.53698   0.52905   0.00000  Uiso   1.00
C485   C     0.38357   0.50001   0.50000   0.00000  Uiso   1.00
C486   C     0.11581   0.49997   0.49995   0.00000  Uiso   1.00
C487   C     0.45268   0.45773   0.48178   0.00000  Uiso   1.00
C488   C     0.04641   0.54038   0.52377   0.00000  Uiso   1.00
C489   C     0.45270   0.54233   0.51804   0.00000  Uiso   1.00
C490   C     0.04639   0.45962   0.47601   0.00000  Uiso   1.00
C491   C     0.47619   0.50003   0.49990   0.00000  Uiso   1.00
C492   C     0.02300   0.50001   0.49988   0.00000  Uiso   1.00
C493   C     0.47611   0.41770   0.45844   0.00000  Uiso   1.00
C494   C     0.02258   0.58209   0.54276   0.00000  Uiso   1.00
C495   C     0.47617   0.58239   0.54128   0.00000  Uiso   1.00
C496   C     0.02252   0.41794   0.45697   0.00000  Uiso   1.00
C497   C     0.25022   0.35510   0.49994   0.00000  Uiso   1.00
C498   C     0.25022   0.64490   0.50006   0.00000  Uiso   1.00
Cl499  Cl    0.44838   0.36888   0.42367   0.00000  Uiso   1.00
Cl500  Cl    0.04925   0.63692   0.56478   0.00000  Uiso   1.00
Cl501  Cl    0.44850   0.63134   0.57586   0.00000  Uiso   1.00
Cl502  Cl    0.04910   0.36310   0.43487   0.00000  Uiso   1.00
O503   O     0.38247   0.58660   0.51362   0.00000  Uiso   1.00
C504   C     0.37830   0.60488   0.45741   0.00000  Uiso   1.00
H505   H     0.35637   0.58137   0.43092   0.00000  Uiso   1.00
H506   H     0.41114   0.60861   0.43613   0.00000  Uiso   1.00
H507   H     0.36277   0.64151   0.45914   0.00000  Uiso   1.00
O508   O     0.11733   0.42916   0.43984   0.00000  Uiso   1.00
C509   C     0.11661   0.44290   0.38165   0.00000  Uiso   1.00
H510   H     0.13102   0.47979   0.37556   0.00000  Uiso   1.00
H511   H     0.08242   0.44197   0.36374   0.00000  Uiso   1.00
H512   H     0.13708   0.41666   0.35689   0.00000  Uiso   1.00
O513   O     0.38248   0.41341   0.48633   0.00000  Uiso   1.00
C514   C     0.37829   0.39516   0.54255   0.00000  Uiso   1.00
H515   H     0.35608   0.41850   0.56887   0.00000  Uiso   1.00
H516   H     0.41109   0.39175   0.56403   0.00000  Uiso   1.00
H517   H     0.36304   0.35838   0.54079   0.00000  Uiso   1.00
O518   O     0.11732   0.57062   0.56029   0.00000  Uiso   1.00
C519   C     0.11650   0.55656   0.61837   0.00000  Uiso   1.00
H520   H     0.13807   0.58176   0.64312   0.00000  Uiso   1.00
H521   H     0.12960   0.51900   0.62407   0.00000  Uiso   1.00
H522   H     0.08245   0.55887   0.63656   0.00000  Uiso   1.00
O523   O     0.75000   0.42946   0.54759   0.00000  Uiso   1.00
O524   O     0.75000   0.57054   0.45241   0.00000  Uiso   1.00
O525   O     0.75000   0.57054   0.54759   0.00000  Uiso   1.00
O526   O     0.75000   0.42946   0.45241   0.00000  Uiso   1.00
C527   C     0.75012   0.40666   0.49996   0.00000  Uiso   1.00
C528   C     0.75012   0.59334   0.50004   0.00000  Uiso   1.00
O529   O     0.68513   0.50000   0.54760   0.00000  Uiso   1.00
O530   O     0.81487   0.50000   0.45240   0.00000  Uiso   1.00
O531   O     0.81487   0.50000   0.54760   0.00000  Uiso   1.00
O532   O     0.68513   0.50000   0.45240   0.00000  Uiso   1.00
C533   C     0.66419   0.49997   0.49999   0.00000  Uiso   1.00
C534   C     0.83558   0.50000   0.50000   0.00000  Uiso   1.00
Cu535  Cu    0.75000   0.50000   0.55636   0.00000  Uiso   1.00
Cu536  Cu    0.75000   0.50000   0.44364   0.00000  Uiso   1.00
N537   N     0.75000   0.50000   0.35894   0.00000  Uiso   1.00
N538   N     0.75000   0.50000   0.64106   0.00000  Uiso   1.00
C539   C     0.90621   0.54339   0.51102   0.00000  Uiso   1.00
C540   C     0.59302   0.46298   0.47079   0.00000  Uiso   1.00
C541   C     0.90621   0.45664   0.48890   0.00000  Uiso   1.00
C542   C     0.59302   0.53698   0.52905   0.00000  Uiso   1.00
C543   C     0.88357   0.50001   0.50000   0.00000  Uiso   1.00
C544   C     0.61581   0.49997   0.49995   0.00000  Uiso   1.00
C545   C     0.95268   0.45773   0.48178   0.00000  Uiso   1.00
C546   C     0.54641   0.54038   0.52377   0.00000  Uiso   1.00
C547   C     0.95270   0.54233   0.51804   0.00000  Uiso   1.00
C548   C     0.54639   0.45962   0.47601   0.00000  Uiso   1.00
C549   C     0.97619   0.50003   0.49990   0.00000  Uiso   1.00
C550   C     0.52300   0.50001   0.49988   0.00000  Uiso   1.00
C551   C     0.97611   0.41770   0.45844   0.00000  Uiso   1.00
C552   C     0.52258   0.58209   0.54276   0.00000  Uiso   1.00
C553   C     0.97617   0.58239   0.54128   0.00000  Uiso   1.00
C554   C     0.52252   0.41794   0.45697   0.00000  Uiso   1.00
C555   C     0.75022   0.35510   0.49994   0.00000  Uiso   1.00
C556   C     0.75022   0.64490   0.50006   0.00000  Uiso   1.00
Cl557  Cl    0.94838   0.36888   0.42367   0.00000  Uiso   1.00
Cl558  Cl    0.54925   0.63692   0.56478   0.00000  Uiso   1.00
Cl559  Cl    0.94850   0.63134   0.57586   0.00000  Uiso   1.00
Cl560  Cl    0.54910   0.36310   0.43487   0.00000  Uiso   1.00
O561   O     0.88247   0.58660   0.51362   0.00000  Uiso   1.00
C562   C     0.87830   0.60488   0.45741   0.00000  Uiso   1.00
H563   H     0.85637   0.58137   0.43092   0.00000  Uiso   1.00
H564   H     0.91114   0.60861   0.43613   0.00000  Uiso   1.00
H565   H     0.86277   0.64151   0.45914   0.00000  Uiso   1.00
O566   O     0.61733   0.42916   0.43984   0.00000  Uiso   1.00
C567   C     0.61661   0.44290   0.38165   0.00000  Uiso   1.00
H568   H     0.63102   0.47979   0.37556   0.00000  Uiso   1.00
H569   H     0.58242   0.44197   0.36374   0.00000  Uiso   1.00
H570   H     0.63708   0.41666   0.35689   0.00000  Uiso   1.00
O571   O     0.88248   0.41341   0.48633   0.00000  Uiso   1.00
C572   C     0.87829   0.39516   0.54255   0.00000  Uiso   1.00
H573   H     0.85608   0.41850   0.56887   0.00000  Uiso   1.00
H574   H     0.91109   0.39175   0.56403   0.00000  Uiso   1.00
H575   H     0.86304   0.35838   0.54079   0.00000  Uiso   1.00
O576   O     0.61732   0.57062   0.56029   0.00000  Uiso   1.00
C577   C     0.61650   0.55656   0.61837   0.00000  Uiso   1.00
H578   H     0.63807   0.58176   0.64312   0.00000  Uiso   1.00
H579   H     0.62960   0.51900   0.62407   0.00000  Uiso   1.00
H580   H     0.58245   0.55887   0.63656   0.00000  Uiso   1.00
O581   O     0.25000   0.76280   0.54759   0.00000  Uiso   1.00
O582   O     0.25000   0.90387   0.45241   0.00000  Uiso   1.00
O583   O     0.25000   0.90387   0.54759   0.00000  Uiso   1.00
O584   O     0.25000   0.76280   0.45241   0.00000  Uiso   1.00
C585   C     0.25012   0.74000   0.49996   0.00000  Uiso   1.00
C586   C     0.25012   0.92667   0.50004   0.00000  Uiso   1.00
O587   O     0.18513   0.83333   0.54760   0.00000  Uiso   1.00
O588   O     0.31487   0.83333   0.45240   0.00000  Uiso   1.00
O589   O     0.31487   0.83333   0.54760   0.00000  Uiso   1.00
O590   O     0.18513   0.83333   0.45240   0.00000  Uiso   1.00
C591   C     0.16419   0.83330   0.49999   0.00000  Uiso   1.00
C592   C     0.33558   0.83334   0.50000   0.00000  Uiso   1.00
Cu593  Cu    0.25000   0.83333   0.55636   0.00000  Uiso   1.00
Cu594  Cu    0.25000   0.83333   0.44364   0.00000  Uiso   1.00
N595   N     0.25000   0.83333   0.35894   0.00000  Uiso   1.00
N596   N     0.25000   0.83333   0.64106   0.00000  Uiso   1.00
C597   C     0.40621   0.87672   0.51102   0.00000  Uiso   1.00
C598   C     0.09302   0.79631   0.47079   0.00000  Uiso   1.00
C599   C     0.40621   0.78997   0.48890   0.00000  Uiso   1.00
C600   C     0.09302   0.87031   0.52905   0.00000  Uiso   1.00
C601   C     0.38357   0.83334   0.50000   0.00000  Uiso   1.00
C602   C     0.11581   0.83330   0.49995   0.00000  Uiso   1.00
C603   C     0.45268   0.79106   0.48178   0.00000  Uiso   1.00
C604   C     0.04641   0.87372   0.52377   0.00000  Uiso   1.00
C605   C     0.45270   0.87567   0.51804   0.00000  Uiso   1.00
C606   C     0.04639   0.79296   0.47601   0.00000  Uiso   1.00
C607   C     0.47619   0.83336   0.49990   0.00000  Uiso   1.00
C608   C     0.02300   0.83335   0.49988   0.00000  Uiso   1.00
C609   C     0.47611   0.75103   0.45844   0.00000  Uiso   1.00
C610   C     0.02258   0.91543   0.54276   0.00000  Uiso   1.00
C611   C     0.47617   0.91572   0.54128   0.00000  Uiso   1.00
C612   C     0.02252   0.75128   0.45697   0.00000  Uiso   1.00
C613   C     0.25022   0.68844   0.49994   0.00000  Uiso   1.00
C614   C     0.25022   0.97823   0.50006   0.00000  Uiso   1.00
Cl615  Cl    0.44838   0.70222   0.42367   0.00000  Uiso   1.00
Cl616  Cl    0.04925   0.97025   0.56478   0.00000  Uiso   1.00
Cl617  Cl    0.44850   0.96467   0.57586   0.00000  Uiso   1.00
Cl618  Cl    0.04910   0.69643   0.43487   0.00000  Uiso   1.00
O619   O     0.38247   0.91993   0.51362   0.00000  Uiso   1.00
C620   C     0.37830   0.93821   0.45741   0.00000  Uiso   1.00
H621   H     0.35637   0.91470   0.43092   0.00000  Uiso   1.00
H622   H     0.41114   0.94194   0.43613   0.00000  Uiso   1.00
H623   H     0.36277   0.97484   0.45914   0.00000  Uiso   1.00
O624   O     0.11733   0.76249   0.43984   0.00000  Uiso   1.00
C625   C     0.11661   0.77623   0.38165   0.00000  Uiso   1.00
H626   H     0.13102   0.81312   0.37556   0.00000  Uiso   1.00
H627   H     0.08242   0.77530   0.36374   0.00000  Uiso   1.00
H628   H     0.13708   0.74999   0.35689   0.00000  Uiso   1.00
O629   O     0.38248   0.74674   0.48633   0.00000  Uiso   1.00
C630   C     0.37829   0.72849   0.54255   0.00000  Uiso   1.00
H631   H     0.35608   0.75184   0.56887   0.00000  Uiso   1.00
H632   H     0.41109   0.72508   0.56403   0.00000  Uiso   1.00
H633   H     0.36304   0.69171   0.54079   0.00000  Uiso   1.00
O634   O     0.11732   0.90396   0.56029   0.00000  Uiso   1.00
C635   C     0.11650   0.88989   0.61837   0.00000  Uiso   1.00
H636   H     0.13807   0.91509   0.64312   0.00000  Uiso   1.00
H637   H     0.12960   0.85233   0.62407   0.00000  Uiso   1.00
H638   H     0.08245   0.89221   0.63656   0.00000  Uiso   1.00
O639   O     0.75000   0.76280   0.54759   0.00000  Uiso   1.00
O640   O     0.75000   0.90387   0.45241   0.00000  Uiso   1.00
O641   O     0.75000   0.90387   0.54759   0.00000  Uiso   1.00
O642   O     0.75000   0.76280   0.45241   0.00000  Uiso   1.00
C643   C     0.75012   0.74000   0.49996   0.00000  Uiso   1.00
C644   C     0.75012   0.92667   0.50004   0.00000  Uiso   1.00
O645   O     0.68513   0.83333   0.54760   0.00000  Uiso   1.00
O646   O     0.81487   0.83333   0.45240   0.00000  Uiso   1.00
O647   O     0.81487   0.83333   0.54760   0.00000  Uiso   1.00
O648   O     0.68513   0.83333   0.45240   0.00000  Uiso   1.00
C649   C     0.66419   0.83330   0.49999   0.00000  Uiso   1.00
C650   C     0.83558   0.83334   0.50000   0.00000  Uiso   1.00
Cu651  Cu    0.75000   0.83333   0.55636   0.00000  Uiso   1.00
Cu652  Cu    0.75000   0.83333   0.44364   0.00000  Uiso   1.00
N653   N     0.75000   0.83333   0.35894   0.00000  Uiso   1.00
N654   N     0.75000   0.83333   0.64106   0.00000  Uiso   1.00
C655   C     0.90621   0.87672   0.51102   0.00000  Uiso   1.00
C656   C     0.59302   0.79631   0.47079   0.00000  Uiso   1.00
C657   C     0.90621   0.78997   0.48890   0.00000  Uiso   1.00
C658   C     0.59302   0.87031   0.52905   0.00000  Uiso   1.00
C659   C     0.88357   0.83334   0.50000   0.00000  Uiso   1.00
C660   C     0.61581   0.83330   0.49995   0.00000  Uiso   1.00
C661   C     0.95268   0.79106   0.48178   0.00000  Uiso   1.00
C662   C     0.54641   0.87372   0.52377   0.00000  Uiso   1.00
C663   C     0.95270   0.87567   0.51804   0.00000  Uiso   1.00
C664   C     0.54639   0.79296   0.47601   0.00000  Uiso   1.00
C665   C     0.97619   0.83336   0.49990   0.00000  Uiso   1.00
C666   C     0.52300   0.83335   0.49988   0.00000  Uiso   1.00
C667   C     0.97611   0.75103   0.45844   0.00000  Uiso   1.00
C668   C     0.52258   0.91543   0.54276   0.00000  Uiso   1.00
C669   C     0.97617   0.91572   0.54128   0.00000  Uiso   1.00
C670   C     0.52252   0.75128   0.45697   0.00000  Uiso   1.00
C671   C     0.75022   0.68844   0.49994   0.00000  Uiso   1.00
C672   C     0.75022   0.97823   0.50006   0.00000  Uiso   1.00
Cl673  Cl    0.94838   0.70222   0.42367   0.00000  Uiso   1.00
Cl674  Cl    0.54925   0.97025   0.56478   0.00000  Uiso   1.00
Cl675  Cl    0.94850   0.96467   0.57586   0.00000  Uiso   1.00
Cl676  Cl    0.54910   0.69643   0.43487   0.00000  Uiso   1.00
O677   O     0.88247   0.91993   0.51362   0.00000  Uiso   1.00
C678   C     0.87830   0.93821   0.45741   0.00000  Uiso   1.00
H679   H     0.85637   0.91470   0.43092   0.00000  Uiso   1.00
H680   H     0.91114   0.94194   0.43613   0.00000  Uiso   1.00
H681   H     0.86277   0.97484   0.45914   0.00000  Uiso   1.00
O682   O     0.61733   0.76249   0.43984   0.00000  Uiso   1.00
C683   C     0.61661   0.77623   0.38165   0.00000  Uiso   1.00
H684   H     0.63102   0.81312   0.37556   0.00000  Uiso   1.00
H685   H     0.58242   0.77530   0.36374   0.00000  Uiso   1.00
H686   H     0.63708   0.74999   0.35689   0.00000  Uiso   1.00
O687   O     0.88248   0.74674   0.48633   0.00000  Uiso   1.00
C688   C     0.87829   0.72849   0.54255   0.00000  Uiso   1.00
H689   H     0.85608   0.75184   0.56887   0.00000  Uiso   1.00
H690   H     0.91109   0.72508   0.56403   0.00000  Uiso   1.00
H691   H     0.86304   0.69171   0.54079   0.00000  Uiso   1.00
O692   O     0.61732   0.90396   0.56029   0.00000  Uiso   1.00
C693   C     0.61650   0.88989   0.61837   0.00000  Uiso   1.00
H694   H     0.63807   0.91509   0.64312   0.00000  Uiso   1.00
H695   H     0.62960   0.85233   0.62407   0.00000  Uiso   1.00
H696   H     0.58245   0.89221   0.63656   0.00000  Uiso   1.00
O697   O     0.25000   0.09613   0.88092   0.00000  Uiso   1.00
O698   O     0.25000   0.23720   0.78575   0.00000  Uiso   1.00
O699   O     0.25000   0.23720   0.88092   0.00000  Uiso   1.00
O700   O     0.25000   0.09613   0.78575   0.00000  Uiso   1.00
C701   C     0.25012   0.07333   0.83329   0.00000  Uiso   1.00
C702   C     0.25012   0.26000   0.83337   0.00000  Uiso   1.00
O703   O     0.18513   0.16667   0.88093   0.00000  Uiso   1.00
O704   O     0.31487   0.16667   0.78573   0.00000  Uiso   1.00
O705   O     0.31487   0.16667   0.88093   0.00000  Uiso   1.00
O706   O     0.18513   0.16667   0.78573   0.00000  Uiso   1.00
C707   C     0.16419   0.16663   0.83333   0.00000  Uiso   1.00
C708   C     0.33558   0.16667   0.83333   0.00000  Uiso   1.00
Cu709  Cu    0.25000   0.16667   0.88969   0.00000  Uiso   1.00
Cu710  Cu    0.25000   0.16667   0.77697   0.00000  Uiso   1.00
N711   N     0.25000   0.16667   0.69227   0.00000  Uiso   1.00
N712   N     0.25000   0.16667   0.97439   0.00000  Uiso   1.00
C713   C     0.40621   0.21006   0.84435   0.00000  Uiso   1.00
C714   C     0.09302   0.12964   0.80413   0.00000  Uiso   1.00
C715   C     0.40621   0.12331   0.82224   0.00000  Uiso   1.00
C716   C     0.09302   0.20364   0.86239   0.00000  Uiso   1.00
C717   C     0.38357   0.16667   0.83333   0.00000  Uiso   1.00
C718   C     0.11581   0.16663   0.83328   0.00000  Uiso   1.00
C719   C     0.45268   0.12439   0.81511   0.00000  Uiso   1.00
C720   C     0.04641   0.20705   0.85710   0.00000  Uiso   1.00
C721   C     0.45270   0.20900   0.85137   0.00000  Uiso   1.00
C722   C     0.04639   0.12629   0.80934   0.00000  Uiso   1.00
C723   C     0.47619   0.16669   0.83323   0.00000  Uiso   1.00
C724   C     0.02300   0.16668   0.83321   0.00000  Uiso   1.00
C725   C     0.47611   0.08436   0.79177   0.00000  Uiso   1.00
C726   C     0.02258   0.24876   0.87609   0.00000  Uiso   1.00
C727   C     0.47617   0.24906   0.87461   0.00000  Uiso   1.00
C728   C     0.02252   0.08461   0.79030   0.00000  Uiso   1.00
C729   C     0.25022   0.02177   0.83328   0.00000  Uiso   1.00
C730   C     0.25022   0.31156   0.83339   0.00000  Uiso   1.00
Cl731  Cl    0.44838   0.03555   0.75700   0.00000  Uiso   1.00
Cl732  Cl    0.04925   0.30358   0.89811   0.00000  Uiso   1.00
Cl733  Cl    0.44850   0.29800   0.90919   0.00000  Uiso   1.00
Cl734  Cl    0.04910   0.02977   0.76820   0.00000  Uiso   1.00
O735   O     0.38247   0.25327   0.84695   0.00000  Uiso   1.00
C736   C     0.37830   0.27154   0.79074   0.00000  Uiso   1.00
H737   H     0.35637   0.24803   0.76425   0.00000  Uiso   1.00
H738   H     0.41114   0.27527   0.76947   0.00000  Uiso   1.00
H739   H     0.36277   0.30818   0.79248   0.00000  Uiso   1.00
O740   O     0.11733   0.09583   0.77317   0.00000  Uiso   1.00
C741   C     0.11661   0.10957   0.71498   0.00000  Uiso   1.00
H742   H     0.13102   0.14645   0.70890   0.00000  Uiso   1.00
H743   H     0.08242   0.10864   0.69707   0.00000  Uiso   1.00
H744   H     0.13708   0.08332   0.69022   0.00000  Uiso   1.00
O745   O     0.38248   0.08008   0.81966   0.00000  Uiso   1.00
C746   C     0.37829   0.06183   0.87589   0.00000  Uiso   1.00
H747   H     0.35608   0.08517   0.90220   0.00000  Uiso   1.00
H748   H     0.41109   0.05842   0.89737   0.00000  Uiso   1.00
H749   H     0.36304   0.02504   0.87412   0.00000  Uiso   1.00
O750   O     0.11732   0.23729   0.89362   0.00000  Uiso   1.00
C751   C     0.11650   0.22322   0.95171   0.00000  Uiso   1.00
H752   H     0.13807   0.24843   0.97646   0.00000  Uiso   1.00
H753   H     0.12960   0.18566   0.95740   0.00000  Uiso   1.00
H754   H     0.08245   0.22554   0.96989   0.00000  Uiso   1.00
O755   O     0.75000   0.09613   0.88092   0.00000  Uiso   1.00
O756   O     0.75000   0.23720   0.78575   0.00000  Uiso   1.00
O757   O     0.75000   0.23720   0.88092   0.00000  Uiso   1.00
O758   O     0.75000   0.09613   0.78575   0.00000  Uiso   1.00
C759   C     0.75012   0.07333   0.83329   0.00000  Uiso   1.00
C760   C     0.75012   0.26000   0.83337   0.00000  Uiso   1.00
O761   O     0.68513   0.16667   0.88093   0.00000  Uiso   1.00
O762   O     0.81487   0.16667   0.78573   0.00000  Uiso   1.00
O763   O     0.81487   0.16667   0.88093   0.00000  Uiso   1.00
O764   O     0.68513   0.16667   0.78573   0.00000  Uiso   1.00
C765   C     0.66419   0.16663   0.83333   0.00000  Uiso   1.00
C766   C     0.83558   0.16667   0.83333   0.00000  Uiso   1.00
Cu767  Cu    0.75000   0.16667   0.88969   0.00000  Uiso   1.00
Cu768  Cu    0.75000   0.16667   0.77697   0.00000  Uiso   1.00
N769   N     0.75000   0.16667   0.69227   0.00000  Uiso   1.00
N770   N     0.75000   0.16667   0.97439   0.00000  Uiso   1.00
C771   C     0.90621   0.21006   0.84435   0.00000  Uiso   1.00
C772   C     0.59302   0.12964   0.80413   0.00000  Uiso   1.00
C773   C     0.90621   0.12331   0.82224   0.00000  Uiso   1.00
C774   C     0.59302   0.20364   0.86239   0.00000  Uiso   1.00
C775   C     0.88357   0.16667   0.83333   0.00000  Uiso   1.00
C776   C     0.61581   0.16663   0.83328   0.00000  Uiso   1.00
C777   C     0.95268   0.12439   0.81511   0.00000  Uiso   1.00
C778   C     0.54641   0.20705   0.85710   0.00000  Uiso   1.00
C779   C     0.95270   0.20900   0.85137   0.00000  Uiso   1.00
C780   C     0.54639   0.12629   0.80934   0.00000  Uiso   1.00
C781   C     0.97619   0.16669   0.83323   0.00000  Uiso   1.00
C782   C     0.52300   0.16668   0.83321   0.00000  Uiso   1.00
C783   C     0.97611   0.08436   0.79177   0.00000  Uiso   1.00
C784   C     0.52258   0.24876   0.87609   0.00000  Uiso   1.00
C785   C     0.97617   0.24906   0.87461   0.00000  Uiso   1.00
C786   C     0.52252   0.08461   0.79030   0.00000  Uiso   1.00
C787   C     0.75022   0.02177   0.83328   0.00000  Uiso   1.00
C788   C     0.75022   0.31156   0.83339   0.00000  Uiso   1.00
Cl789  Cl    0.94838   0.03555   0.75700   0.00000  Uiso   1.00
Cl790  Cl    0.54925   0.30358   0.89811   0.00000  Uiso   1.00
Cl791  Cl    0.94850   0.29800   0.90919   0.00000  Uiso   1.00
Cl792  Cl    0.54910   0.02977   0.76820   0.00000  Uiso   1.00
O793   O     0.88247   0.25327   0.84695   0.00000  Uiso   1.00
C794   C     0.87830   0.27154   0.79074   0.00000  Uiso   1.00
H795   H     0.85637   0.24803   0.76425   0.00000  Uiso   1.00
H796   H     0.91114   0.27527   0.76947   0.00000  Uiso   1.00
H797   H     0.86277   0.30818   0.79248   0.00000  Uiso   1.00
O798   O     0.61733   0.09583   0.77317   0.00000  Uiso   1.00
C799   C     0.61661   0.10957   0.71498   0.00000  Uiso   1.00
H800   H     0.63102   0.14645   0.70890   0.00000  Uiso   1.00
H801   H     0.58242   0.10864   0.69707   0.00000  Uiso   1.00
H802   H     0.63708   0.08332   0.69022   0.00000  Uiso   1.00
O803   O     0.88248   0.08008   0.81966   0.00000  Uiso   1.00
C804   C     0.87829   0.06183   0.87589   0.00000  Uiso   1.00
H805   H     0.85608   0.08517   0.90220   0.00000  Uiso   1.00
H806   H     0.91109   0.05842   0.89737   0.00000  Uiso   1.00
H807   H     0.86304   0.02504   0.87412   0.00000  Uiso   1.00
O808   O     0.61732   0.23729   0.89362   0.00000  Uiso   1.00
C809   C     0.61650   0.22322   0.95171   0.00000  Uiso   1.00
H810   H     0.63807   0.24843   0.97646   0.00000  Uiso   1.00
H811   H     0.62960   0.18566   0.95740   0.00000  Uiso   1.00
H812   H     0.58245   0.22554   0.96989   0.00000  Uiso   1.00
O813   O     0.25000   0.42946   0.88092   0.00000  Uiso   1.00
O814   O     0.25000   0.57054   0.78575   0.00000  Uiso   1.00
O815   O     0.25000   0.57054   0.88092   0.00000  Uiso   1.00
O816   O     0.25000   0.42946   0.78575   0.00000  Uiso   1.00
C817   C     0.25012   0.40666   0.83329   0.00000  Uiso   1.00
C818   C     0.25012   0.59334   0.83337   0.00000  Uiso   1.00
O819   O     0.18513   0.50000   0.88093   0.00000  Uiso   1.00
O820   O     0.31487   0.50000   0.78573   0.00000  Uiso   1.00
O821   O     0.31487   0.50000   0.88093   0.00000  Uiso   1.00
O822   O     0.18513   0.50000   0.78573   0.00000  Uiso   1.00
C823   C     0.16419   0.49997   0.83333   0.00000  Uiso   1.00
C824   C     0.33558   0.50000   0.83333   0.00000  Uiso   1.00
Cu825  Cu    0.25000   0.50000   0.88969   0.00000  Uiso   1.00
Cu826  Cu    0.25000   0.50000   0.77697   0.00000  Uiso   1.00
N827   N     0.25000   0.50000   0.69227   0.00000  Uiso   1.00
N828   N     0.25000   0.50000   0.97439   0.00000  Uiso   1.00
C829   C     0.40621   0.54339   0.84435   0.00000  Uiso   1.00
C830   C     0.09302   0.46298   0.80413   0.00000  Uiso   1.00
C831   C     0.40621   0.45664   0.82224   0.00000  Uiso   1.00
C832   C     0.09302   0.53698   0.86239   0.00000  Uiso   1.00
C833   C     0.38357   0.50001   0.83333   0.00000  Uiso   1.00
C834   C     0.11581   0.49997   0.83328   0.00000  Uiso   1.00
C835   C     0.45268   0.45773   0.81511   0.00000  Uiso   1.00
C836   C     0.04641   0.54038   0.85710   0.00000  Uiso   1.00
C837   C     0.45270   0.54233   0.85137   0.00000  Uiso   1.00
C838   C     0.04639   0.45962   0.80934   0.00000  Uiso   1.00
C839   C     0.47619   0.50003   0.83323   0.00000  Uiso   1.00
C840   C     0.02300   0.50001   0.83321   0.00000  Uiso   1.00
C841   C     0.47611   0.41770   0.79177   0.00000  Uiso   1.00
C842   C     0.02258   0.58209   0.87609   0.00000  Uiso   1.00
C843   C     0.47617   0.58239   0.87461   0.00000  Uiso   1.00
C844   C     0.02252   0.41794   0.79030   0.00000  Uiso   1.00
C845   C     0.25022   0.35510   0.83328   0.00000  Uiso   1.00
C846   C     0.25022   0.64490   0.83339   0.00000  Uiso   1.00
Cl847  Cl    0.44838   0.36888   0.75700   0.00000  Uiso   1.00
Cl848  Cl    0.04925   0.63692   0.89811   0.00000  Uiso   1.00
Cl849  Cl    0.44850   0.63134   0.90919   0.00000  Uiso   1.00
Cl850  Cl    0.04910   0.36310   0.76820   0.00000  Uiso   1.00
O851   O     0.38247   0.58660   0.84695   0.00000  Uiso   1.00
C852   C     0.37830   0.60488   0.79074   0.00000  Uiso   1.00
H853   H     0.35637   0.58137   0.76425   0.00000  Uiso   1.00
H854   H     0.41114   0.60861   0.76947   0.00000  Uiso   1.00
H855   H     0.36277   0.64151   0.79248   0.00000  Uiso   1.00
O856   O     0.11733   0.42916   0.77317   0.00000  Uiso   1.00
C857   C     0.11661   0.44290   0.71498   0.00000  Uiso   1.00
H858   H     0.13102   0.47979   0.70890   0.00000  Uiso   1.00
H859   H     0.08242   0.44197   0.69707   0.00000  Uiso   1.00
H860   H     0.13708   0.41666   0.69022   0.00000  Uiso   1.00
O861   O     0.38248   0.41341   0.81966   0.00000  Uiso   1.00
C862   C     0.37829   0.39516   0.87589   0.00000  Uiso   1.00
H863   H     0.35608   0.41850   0.90220   0.00000  Uiso   1.00
H864   H     0.41109   0.39175   0.89737   0.00000  Uiso   1.00
H865   H     0.36304   0.35838   0.87412   0.00000  Uiso   1.00
O866   O     0.11732   0.57062   0.89362   0.00000  Uiso   1.00
C867   C     0.11650   0.55656   0.95171   0.00000  Uiso   1.00
H868   H     0.13807   0.58176   0.97646   0.00000  Uiso   1.00
H869   H     0.12960   0.51900   0.95740   0.00000  Uiso   1.00
H870   H     0.08245   0.55887   0.96989   0.00000  Uiso   1.00
O871   O     0.75000   0.42946   0.88092   0.00000  Uiso   1.00
O872   O     0.75000   0.57054   0.78575   0.00000  Uiso   1.00
O873   O     0.75000   0.57054   0.88092   0.00000  Uiso   1.00
O874   O     0.75000   0.42946   0.78575   0.00000  Uiso   1.00
C875   C     0.75012   0.40666   0.83329   0.00000  Uiso   1.00
C876   C     0.75012   0.59334   0.83337   0.00000  Uiso   1.00
O877   O     0.68513   0.50000   0.88093   0.00000  Uiso   1.00
O878   O     0.81487   0.50000   0.78573   0.00000  Uiso   1.00
O879   O     0.81487   0.50000   0.88093   0.00000  Uiso   1.00
O880   O     0.68513   0.50000   0.78573   0.00000  Uiso   1.00
C881   C     0.66419   0.49997   0.83333   0.00000  Uiso   1.00
C882   C     0.83558   0.50000   0.83333   0.00000  Uiso   1.00
Cu883  Cu    0.75000   0.50000   0.88969   0.00000  Uiso   1.00
Cu884  Cu    0.75000   0.50000   0.77697   0.00000  Uiso   1.00
N885   N     0.75000   0.50000   0.69227   0.00000  Uiso   1.00
N886   N     0.75000   0.50000   0.97439   0.00000  Uiso   1.00
C887   C     0.90621   0.54339   0.84435   0.00000  Uiso   1.00
C888   C     0.59302   0.46298   0.80413   0.00000  Uiso   1.00
C889   C     0.90621   0.45664   0.82224   0.00000  Uiso   1.00
C890   C     0.59302   0.53698   0.86239   0.00000  Uiso   1.00
C891   C     0.88357   0.50001   0.83333   0.00000  Uiso   1.00
C892   C     0.61581   0.49997   0.83328   0.00000  Uiso   1.00
C893   C     0.95268   0.45773   0.81511   0.00000  Uiso   1.00
C894   C     0.54641   0.54038   0.85710   0.00000  Uiso   1.00
C895   C     0.95270   0.54233   0.85137   0.00000  Uiso   1.00
C896   C     0.54639   0.45962   0.80934   0.00000  Uiso   1.00
C897   C     0.97619   0.50003   0.83323   0.00000  Uiso   1.00
C898   C     0.52300   0.50001   0.83321   0.00000  Uiso   1.00
C899   C     0.97611   0.41770   0.79177   0.00000  Uiso   1.00
C900   C     0.52258   0.58209   0.87609   0.00000  Uiso   1.00
C901   C     0.97617   0.58239   0.87461   0.00000  Uiso   1.00
C902   C     0.52252   0.41794   0.79030   0.00000  Uiso   1.00
C903   C     0.75022   0.35510   0.83328   0.00000  Uiso   1.00
C904   C     0.75022   0.64490   0.83339   0.00000  Uiso   1.00
Cl905  Cl    0.94838   0.36888   0.75700   0.00000  Uiso   1.00
Cl906  Cl    0.54925   0.63692   0.89811   0.00000  Uiso   1.00
Cl907  Cl    0.94850   0.63134   0.90919   0.00000  Uiso   1.00
Cl908  Cl    0.54910   0.36310   0.76820   0.00000  Uiso   1.00
O909   O     0.88247   0.58660   0.84695   0.00000  Uiso   1.00
C910   C     0.87830   0.60488   0.79074   0.00000  Uiso   1.00
H911   H     0.85637   0.58137   0.76425   0.00000  Uiso   1.00
H912   H     0.91114   0.60861   0.76947   0.00000  Uiso   1.00
H913   H     0.86277   0.64151   0.79248   0.00000  Uiso   1.00
O914   O     0.61733   0.42916   0.77317   0.00000  Uiso   1.00
C915   C     0.61661   0.44290   0.71498   0.00000  Uiso   1.00
H916   H     0.63102   0.47979   0.70890   0.00000  Uiso   1.00
H917   H     0.58242   0.44197   0.69707   0.00000  Uiso   1.00
H918   H     0.63708   0.41666   0.69022   0.00000  Uiso   1.00
O919   O     0.88248   0.41341   0.81966   0.00000  Uiso   1.00
C920   C     0.87829   0.39516   0.87589   0.00000  Uiso   1.00
H921   H     0.85608   0.41850   0.90220   0.00000  Uiso   1.00
H922   H     0.91109   0.39175   0.89737   0.00000  Uiso   1.00
H923   H     0.86304   0.35838   0.87412   0.00000  Uiso   1.00
O924   O     0.61732   0.57062   0.89362   0.00000  Uiso   1.00
C925   C     0.61650   0.55656   0.95171   0.00000  Uiso   1.00
H926   H     0.63807   0.58176   0.97646   0.00000  Uiso   1.00
H927   H     0.62960   0.51900   0.95740   0.00000  Uiso   1.00
H928   H     0.58245   0.55887   0.96989   0.00000  Uiso   1.00
O929   O     0.25000   0.76280   0.88092   0.00000  Uiso   1.00
O930   O     0.25000   0.90387   0.78575   0.00000  Uiso   1.00
O931   O     0.25000   0.90387   0.88092   0.00000  Uiso   1.00
O932   O     0.25000   0.76280   0.78575   0.00000  Uiso   1.00
C933   C     0.25012   0.74000   0.83329   0.00000  Uiso   1.00
C934   C     0.25012   0.92667   0.83337   0.00000  Uiso   1.00
O935   O     0.18513   0.83333   0.88093   0.00000  Uiso   1.00
O936   O     0.31487   0.83333   0.78573   0.00000  Uiso   1.00
O937   O     0.31487   0.83333   0.88093   0.00000  Uiso   1.00
O938   O     0.18513   0.83333   0.78573   0.00000  Uiso   1.00
C939   C     0.16419   0.83330   0.83333   0.00000  Uiso   1.00
C940   C     0.33558   0.83334   0.83333   0.00000  Uiso   1.00
Cu941  Cu    0.25000   0.83333   0.88969   0.00000  Uiso   1.00
Cu942  Cu    0.25000   0.83333   0.77697   0.00000  Uiso   1.00
N943   N     0.25000   0.83333   0.69227   0.00000  Uiso   1.00
N944   N     0.25000   0.83333   0.97439   0.00000  Uiso   1.00
C945   C     0.40621   0.87672   0.84435   0.00000  Uiso   1.00
C946   C     0.09302   0.79631   0.80413   0.00000  Uiso   1.00
C947   C     0.40621   0.78997   0.82224   0.00000  Uiso   1.00
C948   C     0.09302   0.87031   0.86239   0.00000  Uiso   1.00
C949   C     0.38357   0.83334   0.83333   0.00000  Uiso   1.00
C950   C     0.11581   0.83330   0.83328   0.00000  Uiso   1.00
C951   C     0.45268   0.79106   0.81511   0.00000  Uiso   1.00
C952   C     0.04641   0.87372   0.85710   0.00000  Uiso   1.00
C953   C     0.45270   0.87567   0.85137   0.00000  Uiso   1.00
C954   C     0.04639   0.79296   0.80934   0.00000  Uiso   1.00
C955   C     0.47619   0.83336   0.83323   0.00000  Uiso   1.00
C956   C     0.02300   0.83335   0.83321   0.00000  Uiso   1.00
C957   C     0.47611   0.75103   0.79177   0.00000  Uiso   1.00
C958   C     0.02258   0.91543   0.87609   0.00000  Uiso   1.00
C959   C     0.47617   0.91572   0.87461   0.00000  Uiso   1.00
C960   C     0.02252   0.75128   0.79030   0.00000  Uiso   1.00
C961   C     0.25022   0.68844   0.83328   0.00000  Uiso   1.00
C962   C     0.25022   0.97823   0.83339   0.00000  Uiso   1.00
Cl963  Cl    0.44838   0.70222   0.75700   0.00000  Uiso   1.00
Cl964  Cl    0.04925   0.97025   0.89811   0.00000  Uiso   1.00
Cl965  Cl    0.44850   0.96467   0.90919   0.00000  Uiso   1.00
Cl966  Cl    0.04910   0.69643   0.76820   0.00000  Uiso   1.00
O967   O     0.38247   0.91993   0.84695   0.00000  Uiso   1.00
C968   C     0.37830   0.93821   0.79074   0.00000  Uiso   1.00
H969   H     0.35637   0.91470   0.76425   0.00000  Uiso   1.00
H970   H     0.41114   0.94194   0.76947   0.00000  Uiso   1.00
H971   H     0.36277   0.97484   0.79248   0.00000  Uiso   1.00
O972   O     0.11733   0.76249   0.77317   0.00000  Uiso   1.00
C973   C     0.11661   0.77623   0.71498   0.00000  Uiso   1.00
H974   H     0.13102   0.81312   0.70890   0.00000  Uiso   1.00
H975   H     0.08242   0.77530   0.69707   0.00000  Uiso   1.00
H976   H     0.13708   0.74999   0.69022   0.00000  Uiso   1.00
O977   O     0.38248   0.74674   0.81966   0.00000  Uiso   1.00
C978   C     0.37829   0.72849   0.87589   0.00000  Uiso   1.00
H979   H     0.35608   0.75184   0.90220   0.00000  Uiso   1.00
H980   H     0.41109   0.72508   0.89737   0.00000  Uiso   1.00
H981   H     0.36304   0.69171   0.87412   0.00000  Uiso   1.00
O982   O     0.11732   0.90396   0.89362   0.00000  Uiso   1.00
C983   C     0.11650   0.88989   0.95171   0.00000  Uiso   1.00
H984   H     0.13807   0.91509   0.97646   0.00000  Uiso   1.00
H985   H     0.12960   0.85233   0.95740   0.00000  Uiso   1.00
H986   H     0.08245   0.89221   0.96989   0.00000  Uiso   1.00
O987   O     0.75000   0.76280   0.88092   0.00000  Uiso   1.00
O988   O     0.75000   0.90387   0.78575   0.00000  Uiso   1.00
O989   O     0.75000   0.90387   0.88092   0.00000  Uiso   1.00
O990   O     0.75000   0.76280   0.78575   0.00000  Uiso   1.00
C991   C     0.75012   0.74000   0.83329   0.00000  Uiso   1.00
C992   C     0.75012   0.92667   0.83337   0.00000  Uiso   1.00
O993   O     0.68513   0.83333   0.88093   0.00000  Uiso   1.00
O994   O     0.81487   0.83333   0.78573   0.00000  Uiso   1.00
O995   O     0.81487   0.83333   0.88093   0.00000  Uiso   1.00
O996   O     0.68513   0.83333   0.78573   0.00000  Uiso   1.00
C997   C     0.66419   0.83330   0.83333   0.00000  Uiso   1.00
C998   C     0.83558   0.83334   0.83333   0.00000  Uiso   1.00
Cu999  Cu    0.75000   0.83333   0.88969   0.00000  Uiso   1.00
Cu1000 Cu    0.75000   0.83333   0.77697   0.00000  Uiso   1.00
N1001  N     0.75000   0.83333   0.69227   0.00000  Uiso   1.00
N1002  N     0.75000   0.83333   0.97439   0.00000  Uiso   1.00
C1003  C     0.90621   0.87672   0.84435   0.00000  Uiso   1.00
C1004  C     0.59302   0.79631   0.80413   0.00000  Uiso   1.00
C1005  C     0.90621   0.78997   0.82224   0.00000  Uiso   1.00
C1006  C     0.59302   0.87031   0.86239   0.00000  Uiso   1.00
C1007  C     0.88357   0.83334   0.83333   0.00000  Uiso   1.00
C1008  C     0.61581   0.83330   0.83328   0.00000  Uiso   1.00
C1009  C     0.95268   0.79106   0.81511   0.00000  Uiso   1.00
C1010  C     0.54641   0.87372   0.85710   0.00000  Uiso   1.00
C1011  C     0.95270   0.87567   0.85137   0.00000  Uiso   1.00
C1012  C     0.54639   0.79296   0.80934   0.00000  Uiso   1.00
C1013  C     0.97619   0.83336   0.83323   0.00000  Uiso   1.00
C1014  C     0.52300   0.83335   0.83321   0.00000  Uiso   1.00
C1015  C     0.97611   0.75103   0.79177   0.00000  Uiso   1.00
C1016  C     0.52258   0.91543   0.87609   0.00000  Uiso   1.00
C1017  C     0.97617   0.91572   0.87461   0.00000  Uiso   1.00
C1018  C     0.52252   0.75128   0.79030   0.00000  Uiso   1.00
C1019  C     0.75022   0.68844   0.83328   0.00000  Uiso   1.00
C1020  C     0.75022   0.97823   0.83339   0.00000  Uiso   1.00
Cl1021 Cl    0.94838   0.70222   0.75700   0.00000  Uiso   1.00
Cl1022 Cl    0.54925   0.97025   0.89811   0.00000  Uiso   1.00
Cl1023 Cl    0.94850   0.96467   0.90919   0.00000  Uiso   1.00
Cl1024 Cl    0.54910   0.69643   0.76820   0.00000  Uiso   1.00
O1025  O     0.88247   0.91993   0.84695   0.00000  Uiso   1.00
C1026  C     0.87830   0.93821   0.79074   0.00000  Uiso   1.00
H1027  H     0.85637   0.91470   0.76425   0.00000  Uiso   1.00
H1028  H     0.91114   0.94194   0.76947   0.00000  Uiso   1.00
H1029  H     0.86277   0.97484   0.79248   0.00000  Uiso   1.00
O1030  O     0.61733   0.76249   0.77317   0.00000  Uiso   1.00
C1031  C     0.61661   0.77623   0.71498   0.00000  Uiso   1.00
H1032  H     0.63102   0.81312   0.70890   0.00000  Uiso   1.00
H1033  H     0.58242   0.77530   0.69707   0.00000  Uiso   1.00
H1034  H     0.63708   0.74999   0.69022   0.00000  Uiso   1.00
O1035  O     0.88248   0.74674   0.81966   0.00000  Uiso   1.00
C1036  C     0.87829   0.72849   0.87589   0.00000  Uiso   1.00
H1037  H     0.85608   0.75184   0.90220   0.00000  Uiso   1.00
H1038  H     0.91109   0.72508   0.89737   0.00000  Uiso   1.00
H1039  H     0.86304   0.69171   0.87412   0.00000  Uiso   1.00
O1040  O     0.61732   0.90396   0.89362   0.00000  Uiso   1.00
C1041  C     0.61650   0.88989   0.95171   0.00000  Uiso   1.00
H1042  H     0.63807   0.91509   0.97646   0.00000  Uiso   1.00
H1043  H     0.62960   0.85233   0.95740   0.00000  Uiso   1.00
H1044  H     0.58245   0.89221   0.96989   0.00000  Uiso   1.00
loop_
_geom_bond_atom_site_label_1
_geom_bond_atom_site_label_2
_geom_bond_distance
_geom_bond_site_symmetry_2
_ccdc_geom_bond_type
O1     C5      1.275   .     A
O1     Cu13    1.941   .     S
O2     C6      1.275   .     A
O2     Cu14    1.941   .     S
O3     Cu13    1.942   .     S
O3     C6      1.276   .     A
O4     Cu14    1.942   .     S
O4     C5      1.276   .     A
C5     C33     1.412   .     S
C6     C34     1.412   .     S
O7     C11     1.279   .     A
O7     Cu13    1.966   .     S
O8     C12     1.276   .     A
O8     Cu14    1.966   .     S
O9     C12     1.276   .     A
O9     Cu13    1.966   .     S
O10    C11     1.279   .     A
O10    Cu14    1.966   .     S
C11    C22     1.459   .     S
C12    C21     1.447   .     S
Cu13   N16     1.980   .     S
Cu13   Cu14    2.635   .     S
Cu14   N15     1.980   .     S
N15    N712    1.197   1_554 S
N16    N363    1.197   .     S
C17    C25     1.411   .     A
C17    O39     1.384   .     S
C17    C21     1.393   .     A
C18    O44     1.384   .     S
C18    C22     1.400   .     A
C18    C26     1.414   .     A
C19    C23     1.411   .     A
C19    O49     1.384   .     S
C19    C21     1.393   .     A
C20    C22     1.399   .     A
C20    O54     1.384   .     S
C20    C24     1.414   .     A
C23    C29     1.412   .     A
C23    C27     1.421   .     A
C24    C30     1.420   .     A
C24    C28     1.424   .     A
C25    C31     1.413   .     A
C25    C27     1.422   .     A
C26    C32     1.420   .     A
C26    C28     1.424   .     A
C27    C86     1.411   .     S
C28    C85     1.411   1_455 S
C29    Cl35    1.772   .     S
C29    C90     1.399   .     S
C30    Cl36    1.778   .     S
C30    C89     1.400   1_455 S
C31    Cl37    1.772   .     S
C31    C88     1.400   .     S
C32    Cl38    1.778   .     S
C32    C87     1.399   1_455 S
C33    C266    1.192   1_545 S
C34    C149    1.192   .     S
O39    C40     1.413   .     S
C40    H42     1.113   .     S
C40    H41     1.110   .     S
C40    H43     1.107   .     S
O44    C45     1.412   .     S
C45    H46     1.109   .     S
C45    H48     1.109   .     S
C45    H47     1.113   .     S
O49    C50     1.413   .     S
C50    H51     1.110   .     S
C50    H53     1.108   .     S
C50    H52     1.113   .     S
O54    C55     1.412   .     S
C55    H56     1.110   .     S
C55    H57     1.110   .     S
C55    H58     1.113   .     S
O59    C63     1.275   .     A
O59    Cu71    1.941   .     S
O60    C64     1.275   .     A
O60    Cu72    1.941   .     S
O61    Cu71    1.942   .     S
O61    C64     1.276   .     A
O62    Cu72    1.942   .     S
O62    C63     1.276   .     A
C63    C91     1.412   .     S
C64    C92     1.412   .     S
O65    C69     1.279   .     A
O65    Cu71    1.966   .     S
O66    C70     1.276   .     A
O66    Cu72    1.966   .     S
O67    C70     1.276   .     A
O67    Cu71    1.966   .     S
O68    C69     1.279   .     A
O68    Cu72    1.966   .     S
C69    C80     1.459   .     S
C70    C79     1.447   .     S
Cu71   N74     1.980   .     S
Cu71   Cu72    2.635   .     S
Cu72   N73     1.980   .     S
N73    N770    1.197   1_554 S
N74    N421    1.197   .     S
C75    C83     1.411   .     A
C75    O97     1.384   .     S
C75    C79     1.393   .     A
C76    O102    1.384   .     S
C76    C80     1.400   .     A
C76    C84     1.414   .     A
C77    C81     1.411   .     A
C77    O107    1.384   .     S
C77    C79     1.393   .     A
C78    C80     1.399   .     A
C78    O112    1.384   .     S
C78    C82     1.414   .     A
C81    C87     1.412   .     A
C81    C85     1.421   .     A
C82    C88     1.420   .     A
C82    C86     1.424   .     A
C83    C89     1.413   .     A
C83    C85     1.422   .     A
C84    C90     1.420   .     A
C84    C86     1.424   .     A
C85    C28     1.411   1_655 S
C87    Cl93    1.772   .     S
C87    C32     1.399   1_655 S
C88    Cl94    1.778   .     S
C89    Cl95    1.772   .     S
C89    C30     1.400   1_655 S
C90    Cl96    1.778   .     S
C91    C324    1.192   1_545 S
C92    C207    1.192   .     S
O97    C98     1.413   .     S
C98    H100    1.113   .     S
C98    H99     1.110   .     S
C98    H101    1.107   .     S
O102   C103    1.412   .     S
C103   H104    1.109   .     S
C103   H106    1.109   .     S
C103   H105    1.113   .     S
O107   C108    1.413   .     S
C108   H109    1.110   .     S
C108   H111    1.108   .     S
C108   H110    1.113   .     S
O112   C113    1.412   .     S
C113   H114    1.110   .     S
C113   H115    1.110   .     S
C113   H116    1.113   .     S
O117   C121    1.275   .     A
O117   Cu129   1.941   .     S
O118   C122    1.275   .     A
O118   Cu130   1.941   .     S
O119   Cu129   1.942   .     S
O119   C122    1.276   .     A
O120   Cu130   1.942   .     S
O120   C121    1.276   .     A
C121   C149    1.412   .     S
C122   C150    1.412   .     S
O123   C127    1.279   .     A
O123   Cu129   1.966   .     S
O124   C128    1.276   .     A
O124   Cu130   1.966   .     S
O125   C128    1.276   .     A
O125   Cu129   1.966   .     S
O126   C127    1.279   .     A
O126   Cu130   1.966   .     S
C127   C138    1.459   .     S
C128   C137    1.447   .     S
Cu129  N132    1.980   .     S
Cu129  Cu130   2.635   .     S
Cu130  N131    1.980   .     S
N131   N828    1.197   1_554 S
N132   N479    1.197   .     S
C133   C141    1.411   .     A
C133   O155    1.384   .     S
C133   C137    1.393   .     A
C134   O160    1.384   .     S
C134   C138    1.400   .     A
C134   C142    1.414   .     A
C135   C139    1.411   .     A
C135   O165    1.384   .     S
C135   C137    1.393   .     A
C136   C138    1.399   .     A
C136   O170    1.384   .     S
C136   C140    1.414   .     A
C139   C145    1.412   .     A
C139   C143    1.421   .     A
C140   C146    1.420   .     A
C140   C144    1.424   .     A
C141   C147    1.413   .     A
C141   C143    1.422   .     A
C142   C148    1.420   .     A
C142   C144    1.424   .     A
C143   C202    1.411   .     S
C144   C201    1.411   1_455 S
C145   Cl151   1.772   .     S
C145   C206    1.399   .     S
C146   Cl152   1.778   .     S
C146   C205    1.400   1_455 S
C147   Cl153   1.772   .     S
C147   C204    1.400   .     S
C148   Cl154   1.778   .     S
C148   C203    1.399   1_455 S
C150   C265    1.192   .     S
O155   C156    1.413   .     S
C156   H158    1.113   .     S
C156   H157    1.110   .     S
C156   H159    1.107   .     S
O160   C161    1.412   .     S
C161   H162    1.109   .     S
C161   H164    1.109   .     S
C161   H163    1.113   .     S
O165   C166    1.413   .     S
C166   H167    1.110   .     S
C166   H169    1.108   .     S
C166   H168    1.113   .     S
O170   C171    1.412   .     S
C171   H172    1.110   .     S
C171   H173    1.110   .     S
C171   H174    1.113   .     S
O175   C179    1.275   .     A
O175   Cu187   1.941   .     S
O176   C180    1.275   .     A
O176   Cu188   1.941   .     S
O177   Cu187   1.942   .     S
O177   C180    1.276   .     A
O178   Cu188   1.942   .     S
O178   C179    1.276   .     A
C179   C207    1.412   .     S
C180   C208    1.412   .     S
O181   C185    1.279   .     A
O181   Cu187   1.966   .     S
O182   C186    1.276   .     A
O182   Cu188   1.966   .     S
O183   C186    1.276   .     A
O183   Cu187   1.966   .     S
O184   C185    1.279   .     A
O184   Cu188   1.966   .     S
C185   C196    1.459   .     S
C186   C195    1.447   .     S
Cu187  N190    1.980   .     S
Cu187  Cu188   2.635   .     S
Cu188  N189    1.980   .     S
N189   N886    1.197   1_554 S
N190   N537    1.197   .     S
C191   C199    1.411   .     A
C191   O213    1.384   .     S
C191   C195    1.393   .     A
C192   O218    1.384   .     S
C192   C196    1.400   .     A
C192   C200    1.414   .     A
C193   C197    1.411   .     A
C193   O223    1.384   .     S
C193   C195    1.393   .     A
C194   C196    1.399   .     A
C194   O228    1.384   .     S
C194   C198    1.414   .     A
C197   C203    1.412   .     A
C197   C201    1.421   .     A
C198   C204    1.420   .     A
C198   C202    1.424   .     A
C199   C205    1.413   .     A
C199   C201    1.422   .     A
C200   C206    1.420   .     A
C200   C202    1.424   .     A
C201   C144    1.411   1_655 S
C203   Cl209   1.772   .     S
C203   C148    1.399   1_655 S
C204   Cl210   1.778   .     S
C205   Cl211   1.772   .     S
C205   C146    1.400   1_655 S
C206   Cl212   1.778   .     S
C208   C323    1.192   .     S
O213   C214    1.413   .     S
C214   H216    1.113   .     S
C214   H215    1.110   .     S
C214   H217    1.107   .     S
O218   C219    1.412   .     S
C219   H220    1.109   .     S
C219   H222    1.109   .     S
C219   H221    1.113   .     S
O223   C224    1.413   .     S
C224   H225    1.110   .     S
C224   H227    1.108   .     S
C224   H226    1.113   .     S
O228   C229    1.412   .     S
C229   H230    1.110   .     S
C229   H231    1.110   .     S
C229   H232    1.113   .     S
O233   C237    1.275   .     A
O233   Cu245   1.941   .     S
O234   C238    1.275   .     A
O234   Cu246   1.941   .     S
O235   Cu245   1.942   .     S
O235   C238    1.276   .     A
O236   Cu246   1.942   .     S
O236   C237    1.276   .     A
C237   C265    1.412   .     S
C238   C266    1.412   .     S
O239   C243    1.279   .     A
O239   Cu245   1.966   .     S
O240   C244    1.276   .     A
O240   Cu246   1.966   .     S
O241   C244    1.276   .     A
O241   Cu245   1.966   .     S
O242   C243    1.279   .     A
O242   Cu246   1.966   .     S
C243   C254    1.459   .     S
C244   C253    1.447   .     S
Cu245  N248    1.980   .     S
Cu245  Cu246   2.635   .     S
Cu246  N247    1.980   .     S
N247   N944    1.197   1_554 S
N248   N595    1.197   .     S
C249   C257    1.411   .     A
C249   O271    1.384   .     S
C249   C253    1.393   .     A
C250   O276    1.384   .     S
C250   C254    1.400   .     A
C250   C258    1.414   .     A
C251   C255    1.411   .     A
C251   O281    1.384   .     S
C251   C253    1.393   .     A
C252   C254    1.399   .     A
C252   O286    1.384   .     S
C252   C256    1.414   .     A
C255   C261    1.412   .     A
C255   C259    1.421   .     A
C256   C262    1.420   .     A
C256   C260    1.424   .     A
C257   C263    1.413   .     A
C257   C259    1.422   .     A
C258   C264    1.420   .     A
C258   C260    1.424   .     A
C259   C318    1.411   .     S
C260   C317    1.411   1_455 S
C261   Cl267   1.772   .     S
C261   C322    1.399   .     S
C262   Cl268   1.778   .     S
C262   C321    1.400   1_455 S
C263   Cl269   1.772   .     S
C263   C320    1.400   .     S
C264   Cl270   1.778   .     S
C264   C319    1.399   1_455 S
C266   C33     1.192   1_565 S
O271   C272    1.413   .     S
C272   H274    1.113   .     S
C272   H273    1.110   .     S
C272   H275    1.107   .     S
O276   C277    1.412   .     S
C277   H278    1.109   .     S
C277   H280    1.109   .     S
C277   H279    1.113   .     S
O281   C282    1.413   .     S
C282   H283    1.110   .     S
C282   H285    1.108   .     S
C282   H284    1.113   .     S
O286   C287    1.412   .     S
C287   H288    1.110   .     S
C287   H289    1.110   .     S
C287   H290    1.113   .     S
O291   C295    1.275   .     A
O291   Cu303   1.941   .     S
O292   C296    1.275   .     A
O292   Cu304   1.941   .     S
O293   Cu303   1.942   .     S
O293   C296    1.276   .     A
O294   Cu304   1.942   .     S
O294   C295    1.276   .     A
C295   C323    1.412   .     S
C296   C324    1.412   .     S
O297   C301    1.279   .     A
O297   Cu303   1.966   .     S
O298   C302    1.276   .     A
O298   Cu304   1.966   .     S
O299   C302    1.276   .     A
O299   Cu303   1.966   .     S
O300   C301    1.279   .     A
O300   Cu304   1.966   .     S
C301   C312    1.459   .     S
C302   C311    1.447   .     S
Cu303  N306    1.980   .     S
Cu303  Cu304   2.635   .     S
Cu304  N305    1.980   .     S
N305   N1002   1.197   1_554 S
N306   N653    1.197   .     S
C307   C315    1.411   .     A
C307   O329    1.384   .     S
C307   C311    1.393   .     A
C308   O334    1.384   .     S
C308   C312    1.400   .     A
C308   C316    1.414   .     A
C309   C313    1.411   .     A
C309   O339    1.384   .     S
C309   C311    1.393   .     A
C310   C312    1.399   .     A
C310   O344    1.384   .     S
C310   C314    1.414   .     A
C313   C319    1.412   .     A
C313   C317    1.421   .     A
C314   C320    1.420   .     A
C314   C318    1.424   .     A
C315   C321    1.413   .     A
C315   C317    1.422   .     A
C316   C322    1.420   .     A
C316   C318    1.424   .     A
C317   C260    1.411   1_655 S
C319   Cl325   1.772   .     S
C319   C264    1.399   1_655 S
C320   Cl326   1.778   .     S
C321   Cl327   1.772   .     S
C321   C262    1.400   1_655 S
C322   Cl328   1.778   .     S
C324   C91     1.192   1_565 S
O329   C330    1.413   .     S
C330   H332    1.113   .     S
C330   H331    1.110   .     S
C330   H333    1.107   .     S
O334   C335    1.412   .     S
C335   H336    1.109   .     S
C335   H338    1.109   .     S
C335   H337    1.113   .     S
O339   C340    1.413   .     S
C340   H341    1.110   .     S
C340   H343    1.108   .     S
C340   H342    1.113   .     S
O344   C345    1.412   .     S
C345   H346    1.110   .     S
C345   H347    1.110   .     S
C345   H348    1.113   .     S
O349   C353    1.275   .     A
O349   Cu361   1.941   .     S
O350   C354    1.275   .     A
O350   Cu362   1.941   .     S
O351   Cu361   1.942   .     S
O351   C354    1.276   .     A
O352   Cu362   1.942   .     S
O352   C353    1.276   .     A
C353   C381    1.412   .     S
C354   C382    1.412   .     S
O355   C359    1.279   .     A
O355   Cu361   1.966   .     S
O356   C360    1.276   .     A
O356   Cu362   1.966   .     S
O357   C360    1.276   .     A
O357   Cu361   1.966   .     S
O358   C359    1.279   .     A
O358   Cu362   1.966   .     S
C359   C370    1.459   .     S
C360   C369    1.447   .     S
Cu361  N364    1.980   .     S
Cu361  Cu362   2.635   .     S
Cu362  N363    1.980   .     S
N364   N711    1.197   .     S
C365   C373    1.411   .     A
C365   O387    1.384   .     S
C365   C369    1.393   .     A
C366   O392    1.384   .     S
C366   C370    1.400   .     A
C366   C374    1.414   .     A
C367   C371    1.411   .     A
C367   O397    1.384   .     S
C367   C369    1.393   .     A
C368   C370    1.399   .     A
C368   O402    1.384   .     S
C368   C372    1.414   .     A
C371   C377    1.412   .     A
C371   C375    1.421   .     A
C372   C378    1.420   .     A
C372   C376    1.424   .     A
C373   C379    1.413   .     A
C373   C375    1.422   .     A
C374   C380    1.420   .     A
C374   C376    1.424   .     A
C375   C434    1.411   .     S
C376   C433    1.411   1_455 S
C377   Cl383   1.772   .     S
C377   C438    1.399   .     S
C378   Cl384   1.778   .     S
C378   C437    1.400   1_455 S
C379   Cl385   1.772   .     S
C379   C436    1.400   .     S
C380   Cl386   1.778   .     S
C380   C435    1.399   1_455 S
C381   C614    1.192   1_545 S
C382   C497    1.192   .     S
O387   C388    1.413   .     S
C388   H390    1.113   .     S
C388   H389    1.110   .     S
C388   H391    1.107   .     S
O392   C393    1.412   .     S
C393   H394    1.109   .     S
C393   H396    1.109   .     S
C393   H395    1.113   .     S
O397   C398    1.413   .     S
C398   H399    1.110   .     S
C398   H401    1.108   .     S
C398   H400    1.113   .     S
O402   C403    1.412   .     S
C403   H404    1.110   .     S
C403   H405    1.110   .     S
C403   H406    1.113   .     S
O407   C411    1.275   .     A
O407   Cu419   1.941   .     S
O408   C412    1.275   .     A
O408   Cu420   1.941   .     S
O409   Cu419   1.942   .     S
O409   C412    1.276   .     A
O410   Cu420   1.942   .     S
O410   C411    1.276   .     A
C411   C439    1.412   .     S
C412   C440    1.412   .     S
O413   C417    1.279   .     A
O413   Cu419   1.966   .     S
O414   C418    1.276   .     A
O414   Cu420   1.966   .     S
O415   C418    1.276   .     A
O415   Cu419   1.966   .     S
O416   C417    1.279   .     A
O416   Cu420   1.966   .     S
C417   C428    1.459   .     S
C418   C427    1.447   .     S
Cu419  N422    1.980   .     S
Cu419  Cu420   2.635   .     S
Cu420  N421    1.980   .     S
N422   N769    1.197   .     S
C423   C431    1.411   .     A
C423   O445    1.384   .     S
C423   C427    1.393   .     A
C424   O450    1.384   .     S
C424   C428    1.400   .     A
C424   C432    1.414   .     A
C425   C429    1.411   .     A
C425   O455    1.384   .     S
C425   C427    1.393   .     A
C426   C428    1.399   .     A
C426   O460    1.384   .     S
C426   C430    1.414   .     A
C429   C435    1.412   .     A
C429   C433    1.421   .     A
C430   C436    1.420   .     A
C430   C434    1.424   .     A
C431   C437    1.413   .     A
C431   C433    1.422   .     A
C432   C438    1.420   .     A
C432   C434    1.424   .     A
C433   C376    1.411   1_655 S
C435   Cl441   1.772   .     S
C435   C380    1.399   1_655 S
C436   Cl442   1.778   .     S
C437   Cl443   1.772   .     S
C437   C378    1.400   1_655 S
C438   Cl444   1.778   .     S
C439   C672    1.192   1_545 S
C440   C555    1.192   .     S
O445   C446    1.413   .     S
C446   H448    1.113   .     S
C446   H447    1.110   .     S
C446   H449    1.107   .     S
O450   C451    1.412   .     S
C451   H452    1.109   .     S
C451   H454    1.109   .     S
C451   H453    1.113   .     S
O455   C456    1.413   .     S
C456   H457    1.110   .     S
C456   H459    1.108   .     S
C456   H458    1.113   .     S
O460   C461    1.412   .     S
C461   H462    1.110   .     S
C461   H463    1.110   .     S
C461   H464    1.113   .     S
O465   C469    1.275   .     A
O465   Cu477   1.941   .     S
O466   C470    1.275   .     A
O466   Cu478   1.941   .     S
O467   Cu477   1.942   .     S
O467   C470    1.276   .     A
O468   Cu478   1.942   .     S
O468   C469    1.276   .     A
C469   C497    1.412   .     S
C470   C498    1.412   .     S
O471   C475    1.279   .     A
O471   Cu477   1.966   .     S
O472   C476    1.276   .     A
O472   Cu478   1.966   .     S
O473   C476    1.276   .     A
O473   Cu477   1.966   .     S
O474   C475    1.279   .     A
O474   Cu478   1.966   .     S
C475   C486    1.459   .     S
C476   C485    1.447   .     S
Cu477  N480    1.980   .     S
Cu477  Cu478   2.635   .     S
Cu478  N479    1.980   .     S
N480   N827    1.197   .     S
C481   C489    1.411   .     A
C481   O503    1.384   .     S
C481   C485    1.393   .     A
C482   O508    1.384   .     S
C482   C486    1.400   .     A
C482   C490    1.414   .     A
C483   C487    1.411   .     A
C483   O513    1.384   .     S
C483   C485    1.393   .     A
C484   C486    1.399   .     A
C484   O518    1.384   .     S
C484   C488    1.414   .     A
C487   C493    1.412   .     A
C487   C491    1.421   .     A
C488   C494    1.420   .     A
C488   C492    1.424   .     A
C489   C495    1.413   .     A
C489   C491    1.422   .     A
C490   C496    1.420   .     A
C490   C492    1.424   .     A
C491   C550    1.411   .     S
C492   C549    1.411   1_455 S
C493   Cl499   1.772   .     S
C493   C554    1.399   .     S
C494   Cl500   1.778   .     S
C494   C553    1.400   1_455 S
C495   Cl501   1.772   .     S
C495   C552    1.400   .     S
C496   Cl502   1.778   .     S
C496   C551    1.399   1_455 S
C498   C613    1.192   .     S
O503   C504    1.413   .     S
C504   H506    1.113   .     S
C504   H505    1.110   .     S
C504   H507    1.107   .     S
O508   C509    1.412   .     S
C509   H510    1.109   .     S
C509   H512    1.109   .     S
C509   H511    1.113   .     S
O513   C514    1.413   .     S
C514   H515    1.110   .     S
C514   H517    1.108   .     S
C514   H516    1.113   .     S
O518   C519    1.412   .     S
C519   H520    1.110   .     S
C519   H521    1.110   .     S
C519   H522    1.113   .     S
O523   C527    1.275   .     A
O523   Cu535   1.941   .     S
O524   C528    1.275   .     A
O524   Cu536   1.941   .     S
O525   Cu535   1.942   .     S
O525   C528    1.276   .     A
O526   Cu536   1.942   .     S
O526   C527    1.276   .     A
C527   C555    1.412   .     S
C528   C556    1.412   .     S
O529   C533    1.279   .     A
O529   Cu535   1.966   .     S
O530   C534    1.276   .     A
O530   Cu536   1.966   .     S
O531   C534    1.276   .     A
O531   Cu535   1.966   .     S
O532   C533    1.279   .     A
O532   Cu536   1.966   .     S
C533   C544    1.459   .     S
C534   C543    1.447   .     S
Cu535  N538    1.980   .     S
Cu535  Cu536   2.635   .     S
Cu536  N537    1.980   .     S
N538   N885    1.197   .     S
C539   C547    1.411   .     A
C539   O561    1.384   .     S
C539   C543    1.393   .     A
C540   O566    1.384   .     S
C540   C544    1.400   .     A
C540   C548    1.414   .     A
C541   C545    1.411   .     A
C541   O571    1.384   .     S
C541   C543    1.393   .     A
C542   C544    1.399   .     A
C542   O576    1.384   .     S
C542   C546    1.414   .     A
C545   C551    1.412   .     A
C545   C549    1.421   .     A
C546   C552    1.420   .     A
C546   C550    1.424   .     A
C547   C553    1.413   .     A
C547   C549    1.422   .     A
C548   C554    1.420   .     A
C548   C550    1.424   .     A
C549   C492    1.411   1_655 S
C551   Cl557   1.772   .     S
C551   C496    1.399   1_655 S
C552   Cl558   1.778   .     S
C553   Cl559   1.772   .     S
C553   C494    1.400   1_655 S
C554   Cl560   1.778   .     S
C556   C671    1.192   .     S
O561   C562    1.413   .     S
C562   H564    1.113   .     S
C562   H563    1.110   .     S
C562   H565    1.107   .     S
O566   C567    1.412   .     S
C567   H568    1.109   .     S
C567   H570    1.109   .     S
C567   H569    1.113   .     S
O571   C572    1.413   .     S
C572   H573    1.110   .     S
C572   H575    1.108   .     S
C572   H574    1.113   .     S
O576   C577    1.412   .     S
C577   H578    1.110   .     S
C577   H579    1.110   .     S
C577   H580    1.113   .     S
O581   C585    1.275   .     A
O581   Cu593   1.941   .     S
O582   C586    1.275   .     A
O582   Cu594   1.941   .     S
O583   Cu593   1.942   .     S
O583   C586    1.276   .     A
O584   Cu594   1.942   .     S
O584   C585    1.276   .     A
C585   C613    1.412   .     S
C586   C614    1.412   .     S
O587   C591    1.279   .     A
O587   Cu593   1.966   .     S
O588   C592    1.276   .     A
O588   Cu594   1.966   .     S
O589   C592    1.276   .     A
O589   Cu593   1.966   .     S
O590   C591    1.279   .     A
O590   Cu594   1.966   .     S
C591   C602    1.459   .     S
C592   C601    1.447   .     S
Cu593  N596    1.980   .     S
Cu593  Cu594   2.635   .     S
Cu594  N595    1.980   .     S
N596   N943    1.197   .     S
C597   C605    1.411   .     A
C597   O619    1.384   .     S
C597   C601    1.393   .     A
C598   O624    1.384   .     S
C598   C602    1.400   .     A
C598   C606    1.414   .     A
C599   C603    1.411   .     A
C599   O629    1.384   .     S
C599   C601    1.393   .     A
C600   C602    1.399   .     A
C600   O634    1.384   .     S
C600   C604    1.414   .     A
C603   C609    1.412   .     A
C603   C607    1.421   .     A
C604   C610    1.420   .     A
C604   C608    1.424   .     A
C605   C611    1.413   .     A
C605   C607    1.422   .     A
C606   C612    1.420   .     A
C606   C608    1.424   .     A
C607   C666    1.411   .     S
C608   C665    1.411   1_455 S
C609   Cl615   1.772   .     S
C609   C670    1.399   .     S
C610   Cl616   1.778   .     S
C610   C669    1.400   1_455 S
C611   Cl617   1.772   .     S
C611   C668    1.400   .     S
C612   Cl618   1.778   .     S
C612   C667    1.399   1_455 S
C614   C381    1.192   1_565 S
O619   C620    1.413   .     S
C620   H622    1.113   .     S
C620   H621    1.110   .     S
C620   H623    1.107   .     S
O624   C625    1.412   .     S
C625   H626    1.109   .     S
C625   H628    1.109   .     S
C625   H627    1.113   .     S
O629   C630    1.413   .     S
C630   H631    1.110   .     S
C630   H633    1.108   .     S
C630   H632    1.113   .     S
O634   C635    1.412   .     S
C635   H636    1.110   .     S
C635   H637    1.110   .     S
C635   H638    1.113   .     S
O639   C643    1.275   .     A
O639   Cu651   1.941   .     S
O640   C644    1.275   .     A
O640   Cu652   1.941   .     S
O641   Cu651   1.942   .     S
O641   C644    1.276   .     A
O642   Cu652   1.942   .     S
O642   C643    1.276   .     A
C643   C671    1.412   .     S
C644   C672    1.412   .     S
O645   C649    1.279   .     A
O645   Cu651   1.966   .     S
O646   C650    1.276   .     A
O646   Cu652   1.966   .     S
O647   C650    1.276   .     A
O647   Cu651   1.966   .     S
O648   C649    1.279   .     A
O648   Cu652   1.966   .     S
C649   C660    1.459   .     S
C650   C659    1.447   .     S
Cu651  N654    1.980   .     S
Cu651  Cu652   2.635   .     S
Cu652  N653    1.980   .     S
N654   N1001   1.197   .     S
C655   C663    1.411   .     A
C655   O677    1.384   .     S
C655   C659    1.393   .     A
C656   O682    1.384   .     S
C656   C660    1.400   .     A
C656   C664    1.414   .     A
C657   C661    1.411   .     A
C657   O687    1.384   .     S
C657   C659    1.393   .     A
C658   C660    1.399   .     A
C658   O692    1.384   .     S
C658   C662    1.414   .     A
C661   C667    1.412   .     A
C661   C665    1.421   .     A
C662   C668    1.420   .     A
C662   C666    1.424   .     A
C663   C669    1.413   .     A
C663   C665    1.422   .     A
C664   C670    1.420   .     A
C664   C666    1.424   .     A
C665   C608    1.411   1_655 S
C667   Cl673   1.772   .     S
C667   C612    1.399   1_655 S
C668   Cl674   1.778   .     S
C669   Cl675   1.772   .     S
C669   C610    1.400   1_655 S
C670   Cl676   1.778   .     S
C672   C439    1.192   1_565 S
O677   C678    1.413   .     S
C678   H680    1.113   .     S
C678   H679    1.110   .     S
C678   H681    1.107   .     S
O682   C683    1.412   .     S
C683   H684    1.109   .     S
C683   H686    1.109   .     S
C683   H685    1.113   .     S
O687   C688    1.413   .     S
C688   H689    1.110   .     S
C688   H691    1.108   .     S
C688   H690    1.113   .     S
O692   C693    1.412   .     S
C693   H694    1.110   .     S
C693   H695    1.110   .     S
C693   H696    1.113   .     S
O697   C701    1.275   .     A
O697   Cu709   1.941   .     S
O698   C702    1.275   .     A
O698   Cu710   1.941   .     S
O699   Cu709   1.942   .     S
O699   C702    1.276   .     A
O700   Cu710   1.942   .     S
O700   C701    1.276   .     A
C701   C729    1.412   .     S
C702   C730    1.412   .     S
O703   C707    1.279   .     A
O703   Cu709   1.966   .     S
O704   C708    1.276   .     A
O704   Cu710   1.966   .     S
O705   C708    1.276   .     A
O705   Cu709   1.966   .     S
O706   C707    1.279   .     A
O706   Cu710   1.966   .     S
C707   C718    1.459   .     S
C708   C717    1.447   .     S
Cu709  N712    1.980   .     S
Cu709  Cu710   2.635   .     S
Cu710  N711    1.980   .     S
N712   N15     1.197   1_556 S
C713   C721    1.411   .     A
C713   O735    1.384   .     S
C713   C717    1.393   .     A
C714   O740    1.384   .     S
C714   C718    1.400   .     A
C714   C722    1.414   .     A
C715   C719    1.411   .     A
C715   O745    1.384   .     S
C715   C717    1.393   .     A
C716   C718    1.399   .     A
C716   O750    1.384   .     S
C716   C720    1.414   .     A
C719   C725    1.412   .     A
C719   C723    1.421   .     A
C720   C726    1.420   .     A
C720   C724    1.424   .     A
C721   C727    1.413   .     A
C721   C723    1.422   .     A
C722   C728    1.420   .     A
C722   C724    1.424   .     A
C723   C782    1.411   .     S
C724   C781    1.411   1_455 S
C725   Cl731   1.772   .     S
C725   C786    1.399   .     S
C726   Cl732   1.778   .     S
C726   C785    1.400   1_455 S
C727   Cl733   1.772   .     S
C727   C784    1.400   .     S
C728   Cl734   1.778   .     S
C728   C783    1.399   1_455 S
C729   C962    1.192   1_545 S
C730   C845    1.192   .     S
O735   C736    1.413   .     S
C736   H738    1.113   .     S
C736   H737    1.110   .     S
C736   H739    1.107   .     S
O740   C741    1.412   .     S
C741   H742    1.109   .     S
C741   H744    1.109   .     S
C741   H743    1.113   .     S
O745   C746    1.413   .     S
C746   H747    1.110   .     S
C746   H749    1.108   .     S
C746   H748    1.113   .     S
O750   C751    1.412   .     S
C751   H752    1.110   .     S
C751   H753    1.110   .     S
C751   H754    1.113   .     S
O755   C759    1.275   .     A
O755   Cu767   1.941   .     S
O756   C760    1.275   .     A
O756   Cu768   1.941   .     S
O757   Cu767   1.942   .     S
O757   C760    1.276   .     A
O758   Cu768   1.942   .     S
O758   C759    1.276   .     A
C759   C787    1.412   .     S
C760   C788    1.412   .     S
O761   C765    1.279   .     A
O761   Cu767   1.966   .     S
O762   C766    1.276   .     A
O762   Cu768   1.966   .     S
O763   C766    1.276   .     A
O763   Cu767   1.966   .     S
O764   C765    1.279   .     A
O764   Cu768   1.966   .     S
C765   C776    1.459   .     S
C766   C775    1.447   .     S
Cu767  N770    1.980   .     S
Cu767  Cu768   2.635   .     S
Cu768  N769    1.980   .     S
N770   N73     1.197   1_556 S
C771   C779    1.411   .     A
C771   O793    1.384   .     S
C771   C775    1.393   .     A
C772   O798    1.384   .     S
C772   C776    1.400   .     A
C772   C780    1.414   .     A
C773   C777    1.411   .     A
C773   O803    1.384   .     S
C773   C775    1.393   .     A
C774   C776    1.399   .     A
C774   O808    1.384   .     S
C774   C778    1.414   .     A
C777   C783    1.412   .     A
C777   C781    1.421   .     A
C778   C784    1.420   .     A
C778   C782    1.424   .     A
C779   C785    1.413   .     A
C779   C781    1.422   .     A
C780   C786    1.420   .     A
C780   C782    1.424   .     A
C781   C724    1.411   1_655 S
C783   Cl789   1.772   .     S
C783   C728    1.399   1_655 S
C784   Cl790   1.778   .     S
C785   Cl791   1.772   .     S
C785   C726    1.400   1_655 S
C786   Cl792   1.778   .     S
C787   C1020   1.192   1_545 S
C788   C903    1.192   .     S
O793   C794    1.413   .     S
C794   H796    1.113   .     S
C794   H795    1.110   .     S
C794   H797    1.107   .     S
O798   C799    1.412   .     S
C799   H800    1.109   .     S
C799   H802    1.109   .     S
C799   H801    1.113   .     S
O803   C804    1.413   .     S
C804   H805    1.110   .     S
C804   H807    1.108   .     S
C804   H806    1.113   .     S
O808   C809    1.412   .     S
C809   H810    1.110   .     S
C809   H811    1.110   .     S
C809   H812    1.113   .     S
O813   C817    1.275   .     A
O813   Cu825   1.941   .     S
O814   C818    1.275   .     A
O814   Cu826   1.941   .     S
O815   Cu825   1.942   .     S
O815   C818    1.276   .     A
O816   Cu826   1.942   .     S
O816   C817    1.276   .     A
C817   C845    1.412   .     S
C818   C846    1.412   .     S
O819   C823    1.279   .     A
O819   Cu825   1.966   .     S
O820   C824    1.276   .     A
O820   Cu826   1.966   .     S
O821   C824    1.276   .     A
O821   Cu825   1.966   .     S
O822   C823    1.279   .     A
O822   Cu826   1.966   .     S
C823   C834    1.459   .     S
C824   C833    1.447   .     S
Cu825  N828    1.980   .     S
Cu825  Cu826   2.635   .     S
Cu826  N827    1.980   .     S
N828   N131    1.197   1_556 S
C829   C837    1.411   .     A
C829   O851    1.384   .     S
C829   C833    1.393   .     A
C830   O856    1.384   .     S
C830   C834    1.400   .     A
C830   C838    1.414   .     A
C831   C835    1.411   .     A
C831   O861    1.384   .     S
C831   C833    1.393   .     A
C832   C834    1.399   .     A
C832   O866    1.384   .     S
C832   C836    1.414   .     A
C835   C841    1.412   .     A
C835   C839    1.421   .     A
C836   C842    1.420   .     A
C836   C840    1.424   .     A
C837   C843    1.413   .     A
C837   C839    1.422   .     A
C838   C844    1.420   .     A
C838   C840    1.424   .     A
C839   C898    1.411   .     S
C840   C897    1.411   1_455 S
C841   Cl847   1.772   .     S
C841   C902    1.399   .     S
C842   Cl848   1.778   .     S
C842   C901    1.400   1_455 S
C843   Cl849   1.772   .     S
C843   C900    1.400   .     S
C844   Cl850   1.778   .     S
C844   C899    1.399   1_455 S
C846   C961    1.192   .     S
O851   C852    1.413   .     S
C852   H854    1.113   .     S
C852   H853    1.110   .     S
C852   H855    1.107   .     S
O856   C857    1.412   .     S
C857   H858    1.109   .     S
C857   H860    1.109   .     S
C857   H859    1.113   .     S
O861   C862    1.413   .     S
C862   H863    1.110   .     S
C862   H865    1.108   .     S
C862   H864    1.113   .     S
O866   C867    1.412   .     S
C867   H868    1.110   .     S
C867   H869    1.110   .     S
C867   H870    1.113   .     S
O871   C875    1.275   .     A
O871   Cu883   1.941   .     S
O872   C876    1.275   .     A
O872   Cu884   1.941   .     S
O873   Cu883   1.942   .     S
O873   C876    1.276   .     A
O874   Cu884   1.942   .     S
O874   C875    1.276   .     A
C875   C903    1.412   .     S
C876   C904    1.412   .     S
O877   C881    1.279   .     A
O877   Cu883   1.966   .     S
O878   C882    1.276   .     A
O878   Cu884   1.966   .     S
O879   C882    1.276   .     A
O879   Cu883   1.966   .     S
O880   C881    1.279   .     A
O880   Cu884   1.966   .     S
C881   C892    1.459   .     S
C882   C891    1.447   .     S
Cu883  N886    1.980   .     S
Cu883  Cu884   2.635   .     S
Cu884  N885    1.980   .     S
N886   N189    1.197   1_556 S
C887   C895    1.411   .     A
C887   O909    1.384   .     S
C887   C891    1.393   .     A
C888   O914    1.384   .     S
C888   C892    1.400   .     A
C888   C896    1.414   .     A
C889   C893    1.411   .     A
C889   O919    1.384   .     S
C889   C891    1.393   .     A
C890   C892    1.399   .     A
C890   O924    1.384   .     S
C890   C894    1.414   .     A
C893   C899    1.412   .     A
C893   C897    1.421   .     A
C894   C900    1.420   .     A
C894   C898    1.424   .     A
C895   C901    1.413   .     A
C895   C897    1.422   .     A
C896   C902    1.420   .     A
C896   C898    1.424   .     A
C897   C840    1.411   1_655 S
C899   Cl905   1.772   .     S
C899   C844    1.399   1_655 S
C900   Cl906   1.778   .     S
C901   Cl907   1.772   .     S
C901   C842    1.400   1_655 S
C902   Cl908   1.778   .     S
C904   C1019   1.192   .     S
O909   C910    1.413   .     S
C910   H912    1.113   .     S
C910   H911    1.110   .     S
C910   H913    1.107   .     S
O914   C915    1.412   .     S
C915   H916    1.109   .     S
C915   H918    1.109   .     S
C915   H917    1.113   .     S
O919   C920    1.413   .     S
C920   H921    1.110   .     S
C920   H923    1.108   .     S
C920   H922    1.113   .     S
O924   C925    1.412   .     S
C925   H926    1.110   .     S
C925   H927    1.110   .     S
C925   H928    1.113   .     S
O929   C933    1.275   .     A
O929   Cu941   1.941   .     S
O930   C934    1.275   .     A
O930   Cu942   1.941   .     S
O931   Cu941   1.942   .     S
O931   C934    1.276   .     A
O932   Cu942   1.942   .     S
O932   C933    1.276   .     A
C933   C961    1.412   .     S
C934   C962    1.412   .     S
O935   C939    1.279   .     A
O935   Cu941   1.966   .     S
O936   C940    1.276   .     A
O936   Cu942   1.966   .     S
O937   C940    1.276   .     A
O937   Cu941   1.966   .     S
O938   C939    1.279   .     A
O938   Cu942   1.966   .     S
C939   C950    1.459   .     S
C940   C949    1.447   .     S
Cu941  N944    1.980   .     S
Cu941  Cu942   2.635   .     S
Cu942  N943    1.980   .     S
N944   N247    1.197   1_556 S
C945   C953    1.411   .     A
C945   O967    1.384   .     S
C945   C949    1.393   .     A
C946   O972    1.384   .     S
C946   C950    1.400   .     A
C946   C954    1.414   .     A
C947   C951    1.411   .     A
C947   O977    1.384   .     S
C947   C949    1.393   .     A
C948   C950    1.399   .     A
C948   O982    1.384   .     S
C948   C952    1.414   .     A
C951   C957    1.412   .     A
C951   C955    1.421   .     A
C952   C958    1.420   .     A
C952   C956    1.424   .     A
C953   C959    1.413   .     A
C953   C955    1.422   .     A
C954   C960    1.420   .     A
C954   C956    1.424   .     A
C955   C1014   1.411   .     S
C956   C1013   1.411   1_455 S
C957   Cl963   1.772   .     S
C957   C1018   1.399   .     S
C958   Cl964   1.778   .     S
C958   C1017   1.400   1_455 S
C959   Cl965   1.772   .     S
C959   C1016   1.400   .     S
C960   Cl966   1.778   .     S
C960   C1015   1.399   1_455 S
C962   C729    1.192   1_565 S
O967   C968    1.413   .     S
C968   H970    1.113   .     S
C968   H969    1.110   .     S
C968   H971    1.107   .     S
O972   C973    1.412   .     S
C973   H974    1.109   .     S
C973   H976    1.109   .     S
C973   H975    1.113   .     S
O977   C978    1.413   .     S
C978   H979    1.110   .     S
C978   H981    1.108   .     S
C978   H980    1.113   .     S
O982   C983    1.412   .     S
C983   H984    1.110   .     S
C983   H985    1.110   .     S
C983   H986    1.113   .     S
O987   C991    1.275   .     A
O987   Cu999   1.941   .     S
O988   C992    1.275   .     A
O988   Cu1000  1.941   .     S
O989   Cu999   1.942   .     S
O989   C992    1.276   .     A
O990   Cu1000  1.942   .     S
O990   C991    1.276   .     A
C991   C1019   1.412   .     S
C992   C1020   1.412   .     S
O993   C997    1.279   .     A
O993   Cu999   1.966   .     S
O994   C998    1.276   .     A
O994   Cu1000  1.966   .     S
O995   C998    1.276   .     A
O995   Cu999   1.966   .     S
O996   C997    1.279   .     A
O996   Cu1000  1.966   .     S
C997   C1008   1.459   .     S
C998   C1007   1.447   .     S
Cu999  N1002   1.980   .     S
Cu999  Cu1000  2.635   .     S
Cu1000 N1001   1.980   .     S
N1002  N305    1.197   1_556 S
C1003  C1011   1.411   .     A
C1003  O1025   1.384   .     S
C1003  C1007   1.393   .     A
C1004  O1030   1.384   .     S
C1004  C1008   1.400   .     A
C1004  C1012   1.414   .     A
C1005  C1009   1.411   .     A
C1005  O1035   1.384   .     S
C1005  C1007   1.393   .     A
C1006  C1008   1.399   .     A
C1006  O1040   1.384   .     S
C1006  C1010   1.414   .     A
C1009  C1015   1.412   .     A
C1009  C1013   1.421   .     A
C1010  C1016   1.420   .     A
C1010  C1014   1.424   .     A
C1011  C1017   1.413   .     A
C1011  C1013   1.422   .     A
C1012  C1018   1.420   .     A
C1012  C1014   1.424   .     A
C1013  C956    1.411   1_655 S
C1015  Cl1021  1.772   .     S
C1015  C960    1.399   1_655 S
C1016  Cl1022  1.778   .     S
C1017  Cl1023  1.772   .     S
C1017  C958    1.400   1_655 S
C1018  Cl1024  1.778   .     S
C1020  C787    1.192   1_565 S
O1025  C1026   1.413   .     S
C1026  H1028   1.113   .     S
C1026  H1027   1.110   .     S
C1026  H1029   1.107   .     S
O1030  C1031   1.412   .     S
C1031  H1032   1.109   .     S
C1031  H1034   1.109   .     S
C1031  H1033   1.113   .     S
O1035  C1036   1.413   .     S
C1036  H1037   1.110   .     S
C1036  H1039   1.108   .     S
C1036  H1038   1.113   .     S
O1040  C1041   1.412   .     S
C1041  H1042   1.110   .     S
C1041  H1043   1.110   .     S
C1041  H1044   1.113   .     S
