data_str_m2_o10_o16_pcu_sym.27
_audit_creation_date              2020-01-03
_audit_creation_method            'Materials Studio'
_symmetry_space_group_name_H-M    'P1'
_symmetry_Int_Tables_number       1
_symmetry_cell_setting            triclinic
loop_
_symmetry_equiv_pos_as_xyz
  x,y,z
_cell_length_a                    22.4750
_cell_length_b                    26.0682
_cell_length_c                    26.8035
_cell_angle_alpha                 94.9767
_cell_angle_beta                  77.7092
_cell_angle_gamma                 102.8990
loop_
_atom_site_label
_atom_site_type_symbol
_atom_site_fract_x
_atom_site_fract_y
_atom_site_fract_z
_atom_site_U_iso_or_equiv
_atom_site_adp_type
_atom_site_occupancy
C1     C     0.18108   0.26656   0.25282   0.00000  Uiso   1.00
C2     C     0.11223   0.16315   0.40339   0.00000  Uiso   1.00
C3     C     0.18759   0.32238   0.25706   0.00000  Uiso   1.00
C4     C     0.13321   0.16526   0.34721   0.00000  Uiso   1.00
C5     C     0.14345   0.01064   0.24696   0.00000  Uiso   1.00
C6     C     0.15154   0.06668   0.24868   0.00000  Uiso   1.00
C7     C     0.20026   0.17035   0.15314   0.00000  Uiso   1.00
C8     C     0.29112   0.22573   0.02806   0.00000  Uiso   1.00
C9     C     0.22018   0.17883   0.09831   0.00000  Uiso   1.00
C10    C     0.05139   0.13541   0.42405   0.00000  Uiso   1.00
C11    C     0.03397   0.12749   0.47635   0.00000  Uiso   1.00
C12    C     0.13915   0.16826   0.48805   0.00000  Uiso   1.00
C13    C     0.07726   0.14222   0.00769   0.00000  Uiso   1.00
C14    C     0.32653   0.10479   0.20912   0.00000  Uiso   1.00
C15    C     0.00129   0.06343   0.38396   0.00000  Uiso   1.00
C16    C     0.15460   0.18336   0.43654   0.00000  Uiso   1.00
C17    C     0.18588   0.18087   0.01825   0.00000  Uiso   1.00
C18    C     0.24486   0.21274   0.49845   0.00000  Uiso   1.00
C19    C     0.25636   0.23258   0.44997   0.00000  Uiso   1.00
C20    C     0.21164   0.21892   0.41983   0.00000  Uiso   1.00
C21    C     0.17580   0.16261   0.06764   0.00000  Uiso   1.00
C22    C     0.27868   0.20917   0.07799   0.00000  Uiso   1.00
Cu23   Cu    0.10710   0.16105   0.24436   0.00000  Uiso   1.00
Cu24   Cu    0.22623   0.17228   0.25565   0.00000  Uiso   1.00
H25    H     0.31359   0.22200   0.10130   0.00000  Uiso   1.00
H26    H     0.22868   0.01229   0.26922   0.00000  Uiso   1.00
H27    H     0.03238   0.09241   0.18176   0.00000  Uiso   1.00
H28    H     0.30759   0.07304   0.23637   0.00000  Uiso   1.00
H29    H     0.29415   0.10967   0.18544   0.00000  Uiso   1.00
H30    H     0.31371   0.04152   0.41949   0.00000  Uiso   1.00
H31    H     0.04675   0.05306   0.36588   0.00000  Uiso   1.00
H32    H     0.30273   0.05049   0.35676   0.00000  Uiso   1.00
H33    H     0.10124   0.32036   0.23636   0.00000  Uiso   1.00
H34    H     0.00537   0.21122   0.28458   0.00000  Uiso   1.00
H35    H     0.30013   0.25895   0.43526   0.00000  Uiso   1.00
H36    H     0.00293   0.25001   0.01309   0.00000  Uiso   1.00
H37    H     0.13310   0.13632   0.08385   0.00000  Uiso   1.00
H38    H     0.06006   0.13410   0.04752   0.00000  Uiso   1.00
H39    H     0.31997   0.10839   0.49265   0.00000  Uiso   1.00
H40    H     0.22203   0.23785   0.38379   0.00000  Uiso   1.00
N41    N     0.31574   0.18074   0.26416   0.00000  Uiso   1.00
N42    N     0.01759   0.15259   0.23584   0.00000  Uiso   1.00
O43    O     0.12797   0.23807   0.24633   0.00000  Uiso   1.00
O44    O     0.22858   0.24755   0.25587   0.00000  Uiso   1.00
O45    O     0.09181   0.15960   0.31840   0.00000  Uiso   1.00
O46    O     0.19242   0.16908   0.32793   0.00000  Uiso   1.00
O47    O     0.10476   0.08578   0.24414   0.00000  Uiso   1.00
O48    O     0.20536   0.09526   0.25367   0.00000  Uiso   1.00
O49    O     0.14092   0.16425   0.17207   0.00000  Uiso   1.00
O50    O     0.24152   0.17373   0.18161   0.00000  Uiso   1.00
O51    O     0.00762   0.11825   0.39362   0.00000  Uiso   1.00
C52    C     0.51441   0.26656   0.25282   0.00000  Uiso   1.00
C53    C     0.44556   0.16315   0.40339   0.00000  Uiso   1.00
C54    C     0.52092   0.32238   0.25706   0.00000  Uiso   1.00
C55    C     0.46654   0.16526   0.34721   0.00000  Uiso   1.00
C56    C     0.47678   0.01064   0.24696   0.00000  Uiso   1.00
C57    C     0.48488   0.06668   0.24868   0.00000  Uiso   1.00
C58    C     0.53360   0.17035   0.15314   0.00000  Uiso   1.00
C59    C     0.62445   0.22573   0.02806   0.00000  Uiso   1.00
C60    C     0.55351   0.17883   0.09831   0.00000  Uiso   1.00
C61    C     0.38473   0.13541   0.42405   0.00000  Uiso   1.00
C62    C     0.36730   0.12749   0.47635   0.00000  Uiso   1.00
C63    C     0.47249   0.16826   0.48805   0.00000  Uiso   1.00
C64    C     0.41059   0.14222   0.00769   0.00000  Uiso   1.00
C65    C     0.65987   0.10479   0.20912   0.00000  Uiso   1.00
C66    C     0.33462   0.06343   0.38396   0.00000  Uiso   1.00
C67    C     0.48793   0.18336   0.43654   0.00000  Uiso   1.00
C68    C     0.51921   0.18087   0.01825   0.00000  Uiso   1.00
C69    C     0.57819   0.21274   0.49845   0.00000  Uiso   1.00
C70    C     0.58969   0.23258   0.44997   0.00000  Uiso   1.00
C71    C     0.54497   0.21892   0.41983   0.00000  Uiso   1.00
C72    C     0.50913   0.16261   0.06764   0.00000  Uiso   1.00
C73    C     0.61201   0.20917   0.07799   0.00000  Uiso   1.00
Cu74   Cu    0.44043   0.16105   0.24436   0.00000  Uiso   1.00
Cu75   Cu    0.55957   0.17228   0.25565   0.00000  Uiso   1.00
H76    H     0.64693   0.22200   0.10130   0.00000  Uiso   1.00
H77    H     0.56202   0.01229   0.26922   0.00000  Uiso   1.00
H78    H     0.36571   0.09241   0.18176   0.00000  Uiso   1.00
H79    H     0.64092   0.07304   0.23637   0.00000  Uiso   1.00
H80    H     0.62748   0.10967   0.18544   0.00000  Uiso   1.00
H81    H     0.64704   0.04152   0.41949   0.00000  Uiso   1.00
H82    H     0.38008   0.05306   0.36588   0.00000  Uiso   1.00
H83    H     0.63606   0.05049   0.35676   0.00000  Uiso   1.00
H84    H     0.43458   0.32036   0.23636   0.00000  Uiso   1.00
H85    H     0.33870   0.21122   0.28458   0.00000  Uiso   1.00
H86    H     0.63346   0.25895   0.43526   0.00000  Uiso   1.00
H87    H     0.33626   0.25001   0.01309   0.00000  Uiso   1.00
H88    H     0.46643   0.13632   0.08385   0.00000  Uiso   1.00
H89    H     0.39339   0.13410   0.04752   0.00000  Uiso   1.00
H90    H     0.65331   0.10839   0.49265   0.00000  Uiso   1.00
H91    H     0.55536   0.23785   0.38379   0.00000  Uiso   1.00
N92    N     0.64908   0.18074   0.26416   0.00000  Uiso   1.00
N93    N     0.35092   0.15259   0.23584   0.00000  Uiso   1.00
O94    O     0.46131   0.23807   0.24633   0.00000  Uiso   1.00
O95    O     0.56191   0.24755   0.25587   0.00000  Uiso   1.00
O96    O     0.42515   0.15960   0.31840   0.00000  Uiso   1.00
O97    O     0.52575   0.16908   0.32793   0.00000  Uiso   1.00
O98    O     0.43809   0.08578   0.24414   0.00000  Uiso   1.00
O99    O     0.53869   0.09526   0.25367   0.00000  Uiso   1.00
O100   O     0.47425   0.16425   0.17207   0.00000  Uiso   1.00
O101   O     0.57485   0.17373   0.18161   0.00000  Uiso   1.00
O102   O     0.34095   0.11825   0.39362   0.00000  Uiso   1.00
C103   C     0.84775   0.26656   0.25282   0.00000  Uiso   1.00
C104   C     0.77889   0.16315   0.40339   0.00000  Uiso   1.00
C105   C     0.85426   0.32238   0.25706   0.00000  Uiso   1.00
C106   C     0.79987   0.16526   0.34721   0.00000  Uiso   1.00
C107   C     0.81011   0.01064   0.24696   0.00000  Uiso   1.00
C108   C     0.81821   0.06668   0.24868   0.00000  Uiso   1.00
C109   C     0.86693   0.17035   0.15314   0.00000  Uiso   1.00
C110   C     0.95779   0.22573   0.02806   0.00000  Uiso   1.00
C111   C     0.88684   0.17883   0.09831   0.00000  Uiso   1.00
C112   C     0.71806   0.13541   0.42405   0.00000  Uiso   1.00
C113   C     0.70064   0.12749   0.47635   0.00000  Uiso   1.00
C114   C     0.80582   0.16826   0.48805   0.00000  Uiso   1.00
C115   C     0.74392   0.14222   0.00769   0.00000  Uiso   1.00
C116   C     0.99320   0.10479   0.20912   0.00000  Uiso   1.00
C117   C     0.66796   0.06343   0.38396   0.00000  Uiso   1.00
C118   C     0.82127   0.18336   0.43654   0.00000  Uiso   1.00
C119   C     0.85254   0.18087   0.01825   0.00000  Uiso   1.00
C120   C     0.91152   0.21274   0.49845   0.00000  Uiso   1.00
C121   C     0.92303   0.23258   0.44997   0.00000  Uiso   1.00
C122   C     0.87830   0.21892   0.41983   0.00000  Uiso   1.00
C123   C     0.84247   0.16261   0.06764   0.00000  Uiso   1.00
C124   C     0.94534   0.20917   0.07799   0.00000  Uiso   1.00
Cu125  Cu    0.77377   0.16105   0.24436   0.00000  Uiso   1.00
Cu126  Cu    0.89290   0.17228   0.25565   0.00000  Uiso   1.00
H127   H     0.98026   0.22200   0.10130   0.00000  Uiso   1.00
H128   H     0.89535   0.01229   0.26922   0.00000  Uiso   1.00
H129   H     0.69905   0.09241   0.18176   0.00000  Uiso   1.00
H130   H     0.97426   0.07304   0.23637   0.00000  Uiso   1.00
H131   H     0.96082   0.10967   0.18544   0.00000  Uiso   1.00
H132   H     0.98037   0.04152   0.41949   0.00000  Uiso   1.00
H133   H     0.71341   0.05306   0.36588   0.00000  Uiso   1.00
H134   H     0.96940   0.05049   0.35676   0.00000  Uiso   1.00
H135   H     0.76791   0.32036   0.23636   0.00000  Uiso   1.00
H136   H     0.67204   0.21122   0.28458   0.00000  Uiso   1.00
H137   H     0.96679   0.25895   0.43526   0.00000  Uiso   1.00
H138   H     0.66959   0.25001   0.01309   0.00000  Uiso   1.00
H139   H     0.79976   0.13632   0.08385   0.00000  Uiso   1.00
H140   H     0.72672   0.13410   0.04752   0.00000  Uiso   1.00
H141   H     0.98664   0.10839   0.49265   0.00000  Uiso   1.00
H142   H     0.88869   0.23785   0.38379   0.00000  Uiso   1.00
N143   N     0.98241   0.18074   0.26416   0.00000  Uiso   1.00
N144   N     0.68426   0.15259   0.23584   0.00000  Uiso   1.00
O145   O     0.79464   0.23807   0.24633   0.00000  Uiso   1.00
O146   O     0.89524   0.24755   0.25587   0.00000  Uiso   1.00
O147   O     0.75848   0.15960   0.31840   0.00000  Uiso   1.00
O148   O     0.85908   0.16908   0.32793   0.00000  Uiso   1.00
O149   O     0.77142   0.08578   0.24414   0.00000  Uiso   1.00
O150   O     0.87203   0.09526   0.25367   0.00000  Uiso   1.00
O151   O     0.80758   0.16425   0.17207   0.00000  Uiso   1.00
O152   O     0.90819   0.17373   0.18161   0.00000  Uiso   1.00
O153   O     0.67429   0.11825   0.39362   0.00000  Uiso   1.00
C154   C     0.18108   0.59990   0.25282   0.00000  Uiso   1.00
C155   C     0.11223   0.49649   0.40339   0.00000  Uiso   1.00
C156   C     0.18759   0.65571   0.25706   0.00000  Uiso   1.00
C157   C     0.13321   0.49859   0.34721   0.00000  Uiso   1.00
C158   C     0.14345   0.34397   0.24696   0.00000  Uiso   1.00
C159   C     0.15154   0.40002   0.24868   0.00000  Uiso   1.00
C160   C     0.20026   0.50368   0.15314   0.00000  Uiso   1.00
C161   C     0.29112   0.55906   0.02806   0.00000  Uiso   1.00
C162   C     0.22018   0.51216   0.09831   0.00000  Uiso   1.00
C163   C     0.05139   0.46874   0.42405   0.00000  Uiso   1.00
C164   C     0.03397   0.46082   0.47635   0.00000  Uiso   1.00
C165   C     0.13915   0.50159   0.48805   0.00000  Uiso   1.00
C166   C     0.07726   0.47555   0.00769   0.00000  Uiso   1.00
C167   C     0.32653   0.43813   0.20912   0.00000  Uiso   1.00
C168   C     0.00129   0.39676   0.38396   0.00000  Uiso   1.00
C169   C     0.15460   0.51670   0.43654   0.00000  Uiso   1.00
C170   C     0.18588   0.51420   0.01825   0.00000  Uiso   1.00
C171   C     0.24486   0.54608   0.49845   0.00000  Uiso   1.00
C172   C     0.25636   0.56592   0.44997   0.00000  Uiso   1.00
C173   C     0.21164   0.55225   0.41983   0.00000  Uiso   1.00
C174   C     0.17580   0.49594   0.06764   0.00000  Uiso   1.00
C175   C     0.27868   0.54250   0.07799   0.00000  Uiso   1.00
Cu176  Cu    0.10710   0.49439   0.24436   0.00000  Uiso   1.00
Cu177  Cu    0.22623   0.50561   0.25565   0.00000  Uiso   1.00
H178   H     0.31359   0.55534   0.10130   0.00000  Uiso   1.00
H179   H     0.22868   0.34563   0.26922   0.00000  Uiso   1.00
H180   H     0.03238   0.42574   0.18176   0.00000  Uiso   1.00
H181   H     0.30759   0.40638   0.23637   0.00000  Uiso   1.00
H182   H     0.29415   0.44301   0.18544   0.00000  Uiso   1.00
H183   H     0.31371   0.37486   0.41949   0.00000  Uiso   1.00
H184   H     0.04675   0.38639   0.36588   0.00000  Uiso   1.00
H185   H     0.30273   0.38382   0.35676   0.00000  Uiso   1.00
H186   H     0.10124   0.65369   0.23636   0.00000  Uiso   1.00
H187   H     0.00537   0.54455   0.28458   0.00000  Uiso   1.00
H188   H     0.30013   0.59229   0.43526   0.00000  Uiso   1.00
H189   H     0.00293   0.58334   0.01309   0.00000  Uiso   1.00
H190   H     0.13310   0.46965   0.08385   0.00000  Uiso   1.00
H191   H     0.06006   0.46743   0.04752   0.00000  Uiso   1.00
H192   H     0.31997   0.44173   0.49265   0.00000  Uiso   1.00
H193   H     0.22203   0.57118   0.38379   0.00000  Uiso   1.00
N194   N     0.31574   0.51407   0.26416   0.00000  Uiso   1.00
N195   N     0.01759   0.48593   0.23584   0.00000  Uiso   1.00
O196   O     0.12797   0.57141   0.24633   0.00000  Uiso   1.00
O197   O     0.22858   0.58089   0.25587   0.00000  Uiso   1.00
O198   O     0.09181   0.49293   0.31840   0.00000  Uiso   1.00
O199   O     0.19242   0.50241   0.32793   0.00000  Uiso   1.00
O200   O     0.10476   0.41911   0.24414   0.00000  Uiso   1.00
O201   O     0.20536   0.42859   0.25367   0.00000  Uiso   1.00
O202   O     0.14092   0.49759   0.17207   0.00000  Uiso   1.00
O203   O     0.24152   0.50707   0.18161   0.00000  Uiso   1.00
O204   O     0.00762   0.45158   0.39362   0.00000  Uiso   1.00
C205   C     0.51441   0.59990   0.25282   0.00000  Uiso   1.00
C206   C     0.44556   0.49649   0.40339   0.00000  Uiso   1.00
C207   C     0.52092   0.65571   0.25706   0.00000  Uiso   1.00
C208   C     0.46654   0.49859   0.34721   0.00000  Uiso   1.00
C209   C     0.47678   0.34397   0.24696   0.00000  Uiso   1.00
C210   C     0.48488   0.40002   0.24868   0.00000  Uiso   1.00
C211   C     0.53360   0.50368   0.15314   0.00000  Uiso   1.00
C212   C     0.62445   0.55906   0.02806   0.00000  Uiso   1.00
C213   C     0.55351   0.51216   0.09831   0.00000  Uiso   1.00
C214   C     0.38473   0.46874   0.42405   0.00000  Uiso   1.00
C215   C     0.36730   0.46082   0.47635   0.00000  Uiso   1.00
C216   C     0.47249   0.50159   0.48805   0.00000  Uiso   1.00
C217   C     0.41059   0.47555   0.00769   0.00000  Uiso   1.00
C218   C     0.65987   0.43813   0.20912   0.00000  Uiso   1.00
C219   C     0.33462   0.39676   0.38396   0.00000  Uiso   1.00
C220   C     0.48793   0.51670   0.43654   0.00000  Uiso   1.00
C221   C     0.51921   0.51420   0.01825   0.00000  Uiso   1.00
C222   C     0.57819   0.54608   0.49845   0.00000  Uiso   1.00
C223   C     0.58969   0.56592   0.44997   0.00000  Uiso   1.00
C224   C     0.54497   0.55225   0.41983   0.00000  Uiso   1.00
C225   C     0.50913   0.49594   0.06764   0.00000  Uiso   1.00
C226   C     0.61201   0.54250   0.07799   0.00000  Uiso   1.00
Cu227  Cu    0.44043   0.49439   0.24436   0.00000  Uiso   1.00
Cu228  Cu    0.55957   0.50561   0.25565   0.00000  Uiso   1.00
H229   H     0.64693   0.55534   0.10130   0.00000  Uiso   1.00
H230   H     0.56202   0.34563   0.26922   0.00000  Uiso   1.00
H231   H     0.36571   0.42574   0.18176   0.00000  Uiso   1.00
H232   H     0.64092   0.40638   0.23637   0.00000  Uiso   1.00
H233   H     0.62748   0.44301   0.18544   0.00000  Uiso   1.00
H234   H     0.64704   0.37486   0.41949   0.00000  Uiso   1.00
H235   H     0.38008   0.38639   0.36588   0.00000  Uiso   1.00
H236   H     0.63606   0.38382   0.35676   0.00000  Uiso   1.00
H237   H     0.43458   0.65369   0.23636   0.00000  Uiso   1.00
H238   H     0.33870   0.54455   0.28458   0.00000  Uiso   1.00
H239   H     0.63346   0.59229   0.43526   0.00000  Uiso   1.00
H240   H     0.33626   0.58334   0.01309   0.00000  Uiso   1.00
H241   H     0.46643   0.46965   0.08385   0.00000  Uiso   1.00
H242   H     0.39339   0.46743   0.04752   0.00000  Uiso   1.00
H243   H     0.65331   0.44173   0.49265   0.00000  Uiso   1.00
H244   H     0.55536   0.57118   0.38379   0.00000  Uiso   1.00
N245   N     0.64908   0.51407   0.26416   0.00000  Uiso   1.00
N246   N     0.35092   0.48593   0.23584   0.00000  Uiso   1.00
O247   O     0.46131   0.57141   0.24633   0.00000  Uiso   1.00
O248   O     0.56191   0.58089   0.25587   0.00000  Uiso   1.00
O249   O     0.42515   0.49293   0.31840   0.00000  Uiso   1.00
O250   O     0.52575   0.50241   0.32793   0.00000  Uiso   1.00
O251   O     0.43809   0.41911   0.24414   0.00000  Uiso   1.00
O252   O     0.53869   0.42859   0.25367   0.00000  Uiso   1.00
O253   O     0.47425   0.49759   0.17207   0.00000  Uiso   1.00
O254   O     0.57485   0.50707   0.18161   0.00000  Uiso   1.00
O255   O     0.34095   0.45158   0.39362   0.00000  Uiso   1.00
C256   C     0.84775   0.59990   0.25282   0.00000  Uiso   1.00
C257   C     0.77889   0.49649   0.40339   0.00000  Uiso   1.00
C258   C     0.85426   0.65571   0.25706   0.00000  Uiso   1.00
C259   C     0.79987   0.49859   0.34721   0.00000  Uiso   1.00
C260   C     0.81011   0.34397   0.24696   0.00000  Uiso   1.00
C261   C     0.81821   0.40002   0.24868   0.00000  Uiso   1.00
C262   C     0.86693   0.50368   0.15314   0.00000  Uiso   1.00
C263   C     0.95779   0.55906   0.02806   0.00000  Uiso   1.00
C264   C     0.88684   0.51216   0.09831   0.00000  Uiso   1.00
C265   C     0.71806   0.46874   0.42405   0.00000  Uiso   1.00
C266   C     0.70064   0.46082   0.47635   0.00000  Uiso   1.00
C267   C     0.80582   0.50159   0.48805   0.00000  Uiso   1.00
C268   C     0.74392   0.47555   0.00769   0.00000  Uiso   1.00
C269   C     0.99320   0.43813   0.20912   0.00000  Uiso   1.00
C270   C     0.66796   0.39676   0.38396   0.00000  Uiso   1.00
C271   C     0.82127   0.51670   0.43654   0.00000  Uiso   1.00
C272   C     0.85254   0.51420   0.01825   0.00000  Uiso   1.00
C273   C     0.91152   0.54608   0.49845   0.00000  Uiso   1.00
C274   C     0.92303   0.56592   0.44997   0.00000  Uiso   1.00
C275   C     0.87830   0.55225   0.41983   0.00000  Uiso   1.00
C276   C     0.84247   0.49594   0.06764   0.00000  Uiso   1.00
C277   C     0.94534   0.54250   0.07799   0.00000  Uiso   1.00
Cu278  Cu    0.77377   0.49439   0.24436   0.00000  Uiso   1.00
Cu279  Cu    0.89290   0.50561   0.25565   0.00000  Uiso   1.00
H280   H     0.98026   0.55534   0.10130   0.00000  Uiso   1.00
H281   H     0.89535   0.34563   0.26922   0.00000  Uiso   1.00
H282   H     0.69905   0.42574   0.18176   0.00000  Uiso   1.00
H283   H     0.97426   0.40638   0.23637   0.00000  Uiso   1.00
H284   H     0.96082   0.44301   0.18544   0.00000  Uiso   1.00
H285   H     0.98037   0.37486   0.41949   0.00000  Uiso   1.00
H286   H     0.71341   0.38639   0.36588   0.00000  Uiso   1.00
H287   H     0.96940   0.38382   0.35676   0.00000  Uiso   1.00
H288   H     0.76791   0.65369   0.23636   0.00000  Uiso   1.00
H289   H     0.67204   0.54455   0.28458   0.00000  Uiso   1.00
H290   H     0.96679   0.59229   0.43526   0.00000  Uiso   1.00
H291   H     0.66959   0.58334   0.01309   0.00000  Uiso   1.00
H292   H     0.79976   0.46965   0.08385   0.00000  Uiso   1.00
H293   H     0.72672   0.46743   0.04752   0.00000  Uiso   1.00
H294   H     0.98664   0.44173   0.49265   0.00000  Uiso   1.00
H295   H     0.88869   0.57118   0.38379   0.00000  Uiso   1.00
N296   N     0.98241   0.51407   0.26416   0.00000  Uiso   1.00
N297   N     0.68426   0.48593   0.23584   0.00000  Uiso   1.00
O298   O     0.79464   0.57141   0.24633   0.00000  Uiso   1.00
O299   O     0.89524   0.58089   0.25587   0.00000  Uiso   1.00
O300   O     0.75848   0.49293   0.31840   0.00000  Uiso   1.00
O301   O     0.85908   0.50241   0.32793   0.00000  Uiso   1.00
O302   O     0.77142   0.41911   0.24414   0.00000  Uiso   1.00
O303   O     0.87203   0.42859   0.25367   0.00000  Uiso   1.00
O304   O     0.80758   0.49759   0.17207   0.00000  Uiso   1.00
O305   O     0.90819   0.50707   0.18161   0.00000  Uiso   1.00
O306   O     0.67429   0.45158   0.39362   0.00000  Uiso   1.00
C307   C     0.18108   0.93323   0.25282   0.00000  Uiso   1.00
C308   C     0.11223   0.82982   0.40339   0.00000  Uiso   1.00
C309   C     0.18759   0.98904   0.25706   0.00000  Uiso   1.00
C310   C     0.13321   0.83193   0.34721   0.00000  Uiso   1.00
C311   C     0.14345   0.67731   0.24696   0.00000  Uiso   1.00
C312   C     0.15154   0.73335   0.24868   0.00000  Uiso   1.00
C313   C     0.20026   0.83702   0.15314   0.00000  Uiso   1.00
C314   C     0.29112   0.89240   0.02806   0.00000  Uiso   1.00
C315   C     0.22018   0.84549   0.09831   0.00000  Uiso   1.00
C316   C     0.05139   0.80208   0.42405   0.00000  Uiso   1.00
C317   C     0.03397   0.79415   0.47635   0.00000  Uiso   1.00
C318   C     0.13915   0.83493   0.48805   0.00000  Uiso   1.00
C319   C     0.07726   0.80889   0.00769   0.00000  Uiso   1.00
C320   C     0.32653   0.77146   0.20912   0.00000  Uiso   1.00
C321   C     0.00129   0.73009   0.38396   0.00000  Uiso   1.00
C322   C     0.15460   0.85003   0.43654   0.00000  Uiso   1.00
C323   C     0.18588   0.84754   0.01825   0.00000  Uiso   1.00
C324   C     0.24486   0.87941   0.49845   0.00000  Uiso   1.00
C325   C     0.25636   0.89925   0.44997   0.00000  Uiso   1.00
C326   C     0.21164   0.88559   0.41983   0.00000  Uiso   1.00
C327   C     0.17580   0.82928   0.06764   0.00000  Uiso   1.00
C328   C     0.27868   0.87583   0.07799   0.00000  Uiso   1.00
Cu329  Cu    0.10710   0.82772   0.24436   0.00000  Uiso   1.00
Cu330  Cu    0.22623   0.83895   0.25565   0.00000  Uiso   1.00
H331   H     0.31359   0.88867   0.10130   0.00000  Uiso   1.00
H332   H     0.22868   0.67896   0.26922   0.00000  Uiso   1.00
H333   H     0.03238   0.75907   0.18176   0.00000  Uiso   1.00
H334   H     0.30759   0.73971   0.23637   0.00000  Uiso   1.00
H335   H     0.29415   0.77634   0.18544   0.00000  Uiso   1.00
H336   H     0.31371   0.70819   0.41949   0.00000  Uiso   1.00
H337   H     0.04675   0.71972   0.36588   0.00000  Uiso   1.00
H338   H     0.30273   0.71716   0.35676   0.00000  Uiso   1.00
H339   H     0.10124   0.98702   0.23636   0.00000  Uiso   1.00
H340   H     0.00537   0.87789   0.28458   0.00000  Uiso   1.00
H341   H     0.30013   0.92562   0.43526   0.00000  Uiso   1.00
H342   H     0.00293   0.91667   0.01309   0.00000  Uiso   1.00
H343   H     0.13310   0.80299   0.08385   0.00000  Uiso   1.00
H344   H     0.06006   0.80077   0.04752   0.00000  Uiso   1.00
H345   H     0.31997   0.77506   0.49265   0.00000  Uiso   1.00
H346   H     0.22203   0.90452   0.38379   0.00000  Uiso   1.00
N347   N     0.31574   0.84741   0.26416   0.00000  Uiso   1.00
N348   N     0.01759   0.81926   0.23584   0.00000  Uiso   1.00
O349   O     0.12797   0.90474   0.24633   0.00000  Uiso   1.00
O350   O     0.22858   0.91422   0.25587   0.00000  Uiso   1.00
O351   O     0.09181   0.82627   0.31840   0.00000  Uiso   1.00
O352   O     0.19242   0.83575   0.32793   0.00000  Uiso   1.00
O353   O     0.10476   0.75245   0.24414   0.00000  Uiso   1.00
O354   O     0.20536   0.76193   0.25367   0.00000  Uiso   1.00
O355   O     0.14092   0.83092   0.17207   0.00000  Uiso   1.00
O356   O     0.24152   0.84040   0.18161   0.00000  Uiso   1.00
O357   O     0.00762   0.78492   0.39362   0.00000  Uiso   1.00
C358   C     0.51441   0.93323   0.25282   0.00000  Uiso   1.00
C359   C     0.44556   0.82982   0.40339   0.00000  Uiso   1.00
C360   C     0.52092   0.98904   0.25706   0.00000  Uiso   1.00
C361   C     0.46654   0.83193   0.34721   0.00000  Uiso   1.00
C362   C     0.47678   0.67731   0.24696   0.00000  Uiso   1.00
C363   C     0.48488   0.73335   0.24868   0.00000  Uiso   1.00
C364   C     0.53360   0.83702   0.15314   0.00000  Uiso   1.00
C365   C     0.62445   0.89240   0.02806   0.00000  Uiso   1.00
C366   C     0.55351   0.84549   0.09831   0.00000  Uiso   1.00
C367   C     0.38473   0.80208   0.42405   0.00000  Uiso   1.00
C368   C     0.36730   0.79415   0.47635   0.00000  Uiso   1.00
C369   C     0.47249   0.83493   0.48805   0.00000  Uiso   1.00
C370   C     0.41059   0.80889   0.00769   0.00000  Uiso   1.00
C371   C     0.65987   0.77146   0.20912   0.00000  Uiso   1.00
C372   C     0.33462   0.73009   0.38396   0.00000  Uiso   1.00
C373   C     0.48793   0.85003   0.43654   0.00000  Uiso   1.00
C374   C     0.51921   0.84754   0.01825   0.00000  Uiso   1.00
C375   C     0.57819   0.87941   0.49845   0.00000  Uiso   1.00
C376   C     0.58969   0.89925   0.44997   0.00000  Uiso   1.00
C377   C     0.54497   0.88559   0.41983   0.00000  Uiso   1.00
C378   C     0.50913   0.82928   0.06764   0.00000  Uiso   1.00
C379   C     0.61201   0.87583   0.07799   0.00000  Uiso   1.00
Cu380  Cu    0.44043   0.82772   0.24436   0.00000  Uiso   1.00
Cu381  Cu    0.55957   0.83895   0.25565   0.00000  Uiso   1.00
H382   H     0.64693   0.88867   0.10130   0.00000  Uiso   1.00
H383   H     0.56202   0.67896   0.26922   0.00000  Uiso   1.00
H384   H     0.36571   0.75907   0.18176   0.00000  Uiso   1.00
H385   H     0.64092   0.73971   0.23637   0.00000  Uiso   1.00
H386   H     0.62748   0.77634   0.18544   0.00000  Uiso   1.00
H387   H     0.64704   0.70819   0.41949   0.00000  Uiso   1.00
H388   H     0.38008   0.71972   0.36588   0.00000  Uiso   1.00
H389   H     0.63606   0.71716   0.35676   0.00000  Uiso   1.00
H390   H     0.43458   0.98702   0.23636   0.00000  Uiso   1.00
H391   H     0.33870   0.87789   0.28458   0.00000  Uiso   1.00
H392   H     0.63346   0.92562   0.43526   0.00000  Uiso   1.00
H393   H     0.33626   0.91667   0.01309   0.00000  Uiso   1.00
H394   H     0.46643   0.80299   0.08385   0.00000  Uiso   1.00
H395   H     0.39339   0.80077   0.04752   0.00000  Uiso   1.00
H396   H     0.65331   0.77506   0.49265   0.00000  Uiso   1.00
H397   H     0.55536   0.90452   0.38379   0.00000  Uiso   1.00
N398   N     0.64908   0.84741   0.26416   0.00000  Uiso   1.00
N399   N     0.35092   0.81926   0.23584   0.00000  Uiso   1.00
O400   O     0.46131   0.90474   0.24633   0.00000  Uiso   1.00
O401   O     0.56191   0.91422   0.25587   0.00000  Uiso   1.00
O402   O     0.42515   0.82627   0.31840   0.00000  Uiso   1.00
O403   O     0.52575   0.83575   0.32793   0.00000  Uiso   1.00
O404   O     0.43809   0.75245   0.24414   0.00000  Uiso   1.00
O405   O     0.53869   0.76193   0.25367   0.00000  Uiso   1.00
O406   O     0.47425   0.83092   0.17207   0.00000  Uiso   1.00
O407   O     0.57485   0.84040   0.18161   0.00000  Uiso   1.00
O408   O     0.34095   0.78492   0.39362   0.00000  Uiso   1.00
C409   C     0.84775   0.93323   0.25282   0.00000  Uiso   1.00
C410   C     0.77889   0.82982   0.40339   0.00000  Uiso   1.00
C411   C     0.85426   0.98904   0.25706   0.00000  Uiso   1.00
C412   C     0.79987   0.83193   0.34721   0.00000  Uiso   1.00
C413   C     0.81011   0.67731   0.24696   0.00000  Uiso   1.00
C414   C     0.81821   0.73335   0.24868   0.00000  Uiso   1.00
C415   C     0.86693   0.83702   0.15314   0.00000  Uiso   1.00
C416   C     0.95779   0.89240   0.02806   0.00000  Uiso   1.00
C417   C     0.88684   0.84549   0.09831   0.00000  Uiso   1.00
C418   C     0.71806   0.80208   0.42405   0.00000  Uiso   1.00
C419   C     0.70064   0.79415   0.47635   0.00000  Uiso   1.00
C420   C     0.80582   0.83493   0.48805   0.00000  Uiso   1.00
C421   C     0.74392   0.80889   0.00769   0.00000  Uiso   1.00
C422   C     0.99320   0.77146   0.20912   0.00000  Uiso   1.00
C423   C     0.66796   0.73009   0.38396   0.00000  Uiso   1.00
C424   C     0.82127   0.85003   0.43654   0.00000  Uiso   1.00
C425   C     0.85254   0.84754   0.01825   0.00000  Uiso   1.00
C426   C     0.91152   0.87941   0.49845   0.00000  Uiso   1.00
C427   C     0.92303   0.89925   0.44997   0.00000  Uiso   1.00
C428   C     0.87830   0.88559   0.41983   0.00000  Uiso   1.00
C429   C     0.84247   0.82928   0.06764   0.00000  Uiso   1.00
C430   C     0.94534   0.87583   0.07799   0.00000  Uiso   1.00
Cu431  Cu    0.77377   0.82772   0.24436   0.00000  Uiso   1.00
Cu432  Cu    0.89290   0.83895   0.25565   0.00000  Uiso   1.00
H433   H     0.98026   0.88867   0.10130   0.00000  Uiso   1.00
H434   H     0.89535   0.67896   0.26922   0.00000  Uiso   1.00
H435   H     0.69905   0.75907   0.18176   0.00000  Uiso   1.00
H436   H     0.97426   0.73971   0.23637   0.00000  Uiso   1.00
H437   H     0.96082   0.77634   0.18544   0.00000  Uiso   1.00
H438   H     0.98037   0.70819   0.41949   0.00000  Uiso   1.00
H439   H     0.71341   0.71972   0.36588   0.00000  Uiso   1.00
H440   H     0.96940   0.71716   0.35676   0.00000  Uiso   1.00
H441   H     0.76791   0.98702   0.23636   0.00000  Uiso   1.00
H442   H     0.67204   0.87789   0.28458   0.00000  Uiso   1.00
H443   H     0.96679   0.92562   0.43526   0.00000  Uiso   1.00
H444   H     0.66959   0.91667   0.01309   0.00000  Uiso   1.00
H445   H     0.79976   0.80299   0.08385   0.00000  Uiso   1.00
H446   H     0.72672   0.80077   0.04752   0.00000  Uiso   1.00
H447   H     0.98664   0.77506   0.49265   0.00000  Uiso   1.00
H448   H     0.88869   0.90452   0.38379   0.00000  Uiso   1.00
N449   N     0.98241   0.84741   0.26416   0.00000  Uiso   1.00
N450   N     0.68426   0.81926   0.23584   0.00000  Uiso   1.00
O451   O     0.79464   0.90474   0.24633   0.00000  Uiso   1.00
O452   O     0.89524   0.91422   0.25587   0.00000  Uiso   1.00
O453   O     0.75848   0.82627   0.31840   0.00000  Uiso   1.00
O454   O     0.85908   0.83575   0.32793   0.00000  Uiso   1.00
O455   O     0.77142   0.75245   0.24414   0.00000  Uiso   1.00
O456   O     0.87203   0.76193   0.25367   0.00000  Uiso   1.00
O457   O     0.80758   0.83092   0.17207   0.00000  Uiso   1.00
O458   O     0.90819   0.84040   0.18161   0.00000  Uiso   1.00
O459   O     0.67429   0.78492   0.39362   0.00000  Uiso   1.00
C460   C     0.18108   0.26656   0.75282   0.00000  Uiso   1.00
C461   C     0.11223   0.16315   0.90339   0.00000  Uiso   1.00
C462   C     0.18759   0.32238   0.75706   0.00000  Uiso   1.00
C463   C     0.13321   0.16526   0.84721   0.00000  Uiso   1.00
C464   C     0.14345   0.01064   0.74696   0.00000  Uiso   1.00
C465   C     0.15154   0.06668   0.74868   0.00000  Uiso   1.00
C466   C     0.20026   0.17035   0.65314   0.00000  Uiso   1.00
C467   C     0.29112   0.22573   0.52806   0.00000  Uiso   1.00
C468   C     0.22018   0.17883   0.59831   0.00000  Uiso   1.00
C469   C     0.05139   0.13541   0.92405   0.00000  Uiso   1.00
C470   C     0.03397   0.12749   0.97635   0.00000  Uiso   1.00
C471   C     0.13915   0.16826   0.98805   0.00000  Uiso   1.00
C472   C     0.07726   0.14222   0.50769   0.00000  Uiso   1.00
C473   C     0.32653   0.10479   0.70912   0.00000  Uiso   1.00
C474   C     0.00129   0.06343   0.88396   0.00000  Uiso   1.00
C475   C     0.15460   0.18336   0.93654   0.00000  Uiso   1.00
C476   C     0.18588   0.18087   0.51825   0.00000  Uiso   1.00
C477   C     0.24486   0.21274   0.99845   0.00000  Uiso   1.00
C478   C     0.25636   0.23258   0.94997   0.00000  Uiso   1.00
C479   C     0.21164   0.21892   0.91983   0.00000  Uiso   1.00
C480   C     0.17580   0.16261   0.56764   0.00000  Uiso   1.00
C481   C     0.27868   0.20917   0.57799   0.00000  Uiso   1.00
Cu482  Cu    0.10710   0.16105   0.74436   0.00000  Uiso   1.00
Cu483  Cu    0.22623   0.17228   0.75565   0.00000  Uiso   1.00
H484   H     0.31359   0.22200   0.60130   0.00000  Uiso   1.00
H485   H     0.22868   0.01229   0.76922   0.00000  Uiso   1.00
H486   H     0.03238   0.09241   0.68176   0.00000  Uiso   1.00
H487   H     0.30759   0.07304   0.73637   0.00000  Uiso   1.00
H488   H     0.29415   0.10967   0.68544   0.00000  Uiso   1.00
H489   H     0.31371   0.04152   0.91949   0.00000  Uiso   1.00
H490   H     0.04675   0.05306   0.86588   0.00000  Uiso   1.00
H491   H     0.30273   0.05049   0.85676   0.00000  Uiso   1.00
H492   H     0.10124   0.32036   0.73636   0.00000  Uiso   1.00
H493   H     0.00537   0.21122   0.78458   0.00000  Uiso   1.00
H494   H     0.30013   0.25895   0.93526   0.00000  Uiso   1.00
H495   H     0.00293   0.25001   0.51309   0.00000  Uiso   1.00
H496   H     0.13310   0.13632   0.58385   0.00000  Uiso   1.00
H497   H     0.06006   0.13410   0.54752   0.00000  Uiso   1.00
H498   H     0.31997   0.10839   0.99265   0.00000  Uiso   1.00
H499   H     0.22203   0.23785   0.88379   0.00000  Uiso   1.00
N500   N     0.31574   0.18074   0.76416   0.00000  Uiso   1.00
N501   N     0.01759   0.15259   0.73584   0.00000  Uiso   1.00
O502   O     0.12797   0.23807   0.74633   0.00000  Uiso   1.00
O503   O     0.22858   0.24755   0.75587   0.00000  Uiso   1.00
O504   O     0.09181   0.15960   0.81840   0.00000  Uiso   1.00
O505   O     0.19242   0.16908   0.82793   0.00000  Uiso   1.00
O506   O     0.10476   0.08578   0.74414   0.00000  Uiso   1.00
O507   O     0.20536   0.09526   0.75367   0.00000  Uiso   1.00
O508   O     0.14092   0.16425   0.67207   0.00000  Uiso   1.00
O509   O     0.24152   0.17373   0.68161   0.00000  Uiso   1.00
O510   O     0.00762   0.11825   0.89362   0.00000  Uiso   1.00
C511   C     0.51441   0.26656   0.75282   0.00000  Uiso   1.00
C512   C     0.44556   0.16315   0.90339   0.00000  Uiso   1.00
C513   C     0.52092   0.32238   0.75706   0.00000  Uiso   1.00
C514   C     0.46654   0.16526   0.84721   0.00000  Uiso   1.00
C515   C     0.47678   0.01064   0.74696   0.00000  Uiso   1.00
C516   C     0.48488   0.06668   0.74868   0.00000  Uiso   1.00
C517   C     0.53360   0.17035   0.65314   0.00000  Uiso   1.00
C518   C     0.62445   0.22573   0.52806   0.00000  Uiso   1.00
C519   C     0.55351   0.17883   0.59831   0.00000  Uiso   1.00
C520   C     0.38473   0.13541   0.92405   0.00000  Uiso   1.00
C521   C     0.36730   0.12749   0.97635   0.00000  Uiso   1.00
C522   C     0.47249   0.16826   0.98805   0.00000  Uiso   1.00
C523   C     0.41059   0.14222   0.50769   0.00000  Uiso   1.00
C524   C     0.65987   0.10479   0.70912   0.00000  Uiso   1.00
C525   C     0.33462   0.06343   0.88396   0.00000  Uiso   1.00
C526   C     0.48793   0.18336   0.93654   0.00000  Uiso   1.00
C527   C     0.51921   0.18087   0.51825   0.00000  Uiso   1.00
C528   C     0.57819   0.21274   0.99845   0.00000  Uiso   1.00
C529   C     0.58969   0.23258   0.94997   0.00000  Uiso   1.00
C530   C     0.54497   0.21892   0.91983   0.00000  Uiso   1.00
C531   C     0.50913   0.16261   0.56764   0.00000  Uiso   1.00
C532   C     0.61201   0.20917   0.57799   0.00000  Uiso   1.00
Cu533  Cu    0.44043   0.16105   0.74436   0.00000  Uiso   1.00
Cu534  Cu    0.55957   0.17228   0.75565   0.00000  Uiso   1.00
H535   H     0.64693   0.22200   0.60130   0.00000  Uiso   1.00
H536   H     0.56202   0.01229   0.76922   0.00000  Uiso   1.00
H537   H     0.36571   0.09241   0.68176   0.00000  Uiso   1.00
H538   H     0.64092   0.07304   0.73637   0.00000  Uiso   1.00
H539   H     0.62748   0.10967   0.68544   0.00000  Uiso   1.00
H540   H     0.64704   0.04152   0.91949   0.00000  Uiso   1.00
H541   H     0.38008   0.05306   0.86588   0.00000  Uiso   1.00
H542   H     0.63606   0.05049   0.85676   0.00000  Uiso   1.00
H543   H     0.43458   0.32036   0.73636   0.00000  Uiso   1.00
H544   H     0.33870   0.21122   0.78458   0.00000  Uiso   1.00
H545   H     0.63346   0.25895   0.93526   0.00000  Uiso   1.00
H546   H     0.33626   0.25001   0.51309   0.00000  Uiso   1.00
H547   H     0.46643   0.13632   0.58385   0.00000  Uiso   1.00
H548   H     0.39339   0.13410   0.54752   0.00000  Uiso   1.00
H549   H     0.65331   0.10839   0.99265   0.00000  Uiso   1.00
H550   H     0.55536   0.23785   0.88379   0.00000  Uiso   1.00
N551   N     0.64908   0.18074   0.76416   0.00000  Uiso   1.00
N552   N     0.35092   0.15259   0.73584   0.00000  Uiso   1.00
O553   O     0.46131   0.23807   0.74633   0.00000  Uiso   1.00
O554   O     0.56191   0.24755   0.75587   0.00000  Uiso   1.00
O555   O     0.42515   0.15960   0.81840   0.00000  Uiso   1.00
O556   O     0.52575   0.16908   0.82793   0.00000  Uiso   1.00
O557   O     0.43809   0.08578   0.74414   0.00000  Uiso   1.00
O558   O     0.53869   0.09526   0.75367   0.00000  Uiso   1.00
O559   O     0.47425   0.16425   0.67207   0.00000  Uiso   1.00
O560   O     0.57485   0.17373   0.68161   0.00000  Uiso   1.00
O561   O     0.34095   0.11825   0.89362   0.00000  Uiso   1.00
C562   C     0.84775   0.26656   0.75282   0.00000  Uiso   1.00
C563   C     0.77889   0.16315   0.90339   0.00000  Uiso   1.00
C564   C     0.85426   0.32238   0.75706   0.00000  Uiso   1.00
C565   C     0.79987   0.16526   0.84721   0.00000  Uiso   1.00
C566   C     0.81011   0.01064   0.74696   0.00000  Uiso   1.00
C567   C     0.81821   0.06668   0.74868   0.00000  Uiso   1.00
C568   C     0.86693   0.17035   0.65314   0.00000  Uiso   1.00
C569   C     0.95779   0.22573   0.52806   0.00000  Uiso   1.00
C570   C     0.88684   0.17883   0.59831   0.00000  Uiso   1.00
C571   C     0.71806   0.13541   0.92405   0.00000  Uiso   1.00
C572   C     0.70064   0.12749   0.97635   0.00000  Uiso   1.00
C573   C     0.80582   0.16826   0.98805   0.00000  Uiso   1.00
C574   C     0.74392   0.14222   0.50769   0.00000  Uiso   1.00
C575   C     0.99320   0.10479   0.70912   0.00000  Uiso   1.00
C576   C     0.66796   0.06343   0.88396   0.00000  Uiso   1.00
C577   C     0.82127   0.18336   0.93654   0.00000  Uiso   1.00
C578   C     0.85254   0.18087   0.51825   0.00000  Uiso   1.00
C579   C     0.91152   0.21274   0.99845   0.00000  Uiso   1.00
C580   C     0.92303   0.23258   0.94997   0.00000  Uiso   1.00
C581   C     0.87830   0.21892   0.91983   0.00000  Uiso   1.00
C582   C     0.84247   0.16261   0.56764   0.00000  Uiso   1.00
C583   C     0.94534   0.20917   0.57799   0.00000  Uiso   1.00
Cu584  Cu    0.77377   0.16105   0.74436   0.00000  Uiso   1.00
Cu585  Cu    0.89290   0.17228   0.75565   0.00000  Uiso   1.00
H586   H     0.98026   0.22200   0.60130   0.00000  Uiso   1.00
H587   H     0.89535   0.01229   0.76922   0.00000  Uiso   1.00
H588   H     0.69905   0.09241   0.68176   0.00000  Uiso   1.00
H589   H     0.97426   0.07304   0.73637   0.00000  Uiso   1.00
H590   H     0.96082   0.10967   0.68544   0.00000  Uiso   1.00
H591   H     0.98037   0.04152   0.91949   0.00000  Uiso   1.00
H592   H     0.71341   0.05306   0.86588   0.00000  Uiso   1.00
H593   H     0.96940   0.05049   0.85676   0.00000  Uiso   1.00
H594   H     0.76791   0.32036   0.73636   0.00000  Uiso   1.00
H595   H     0.67204   0.21122   0.78458   0.00000  Uiso   1.00
H596   H     0.96679   0.25895   0.93526   0.00000  Uiso   1.00
H597   H     0.66959   0.25001   0.51309   0.00000  Uiso   1.00
H598   H     0.79976   0.13632   0.58385   0.00000  Uiso   1.00
H599   H     0.72672   0.13410   0.54752   0.00000  Uiso   1.00
H600   H     0.98664   0.10839   0.99265   0.00000  Uiso   1.00
H601   H     0.88869   0.23785   0.88379   0.00000  Uiso   1.00
N602   N     0.98241   0.18074   0.76416   0.00000  Uiso   1.00
N603   N     0.68426   0.15259   0.73584   0.00000  Uiso   1.00
O604   O     0.79464   0.23807   0.74633   0.00000  Uiso   1.00
O605   O     0.89524   0.24755   0.75587   0.00000  Uiso   1.00
O606   O     0.75848   0.15960   0.81840   0.00000  Uiso   1.00
O607   O     0.85908   0.16908   0.82793   0.00000  Uiso   1.00
O608   O     0.77142   0.08578   0.74414   0.00000  Uiso   1.00
O609   O     0.87203   0.09526   0.75367   0.00000  Uiso   1.00
O610   O     0.80758   0.16425   0.67207   0.00000  Uiso   1.00
O611   O     0.90819   0.17373   0.68161   0.00000  Uiso   1.00
O612   O     0.67429   0.11825   0.89362   0.00000  Uiso   1.00
C613   C     0.18108   0.59990   0.75282   0.00000  Uiso   1.00
C614   C     0.11223   0.49649   0.90339   0.00000  Uiso   1.00
C615   C     0.18759   0.65571   0.75706   0.00000  Uiso   1.00
C616   C     0.13321   0.49859   0.84721   0.00000  Uiso   1.00
C617   C     0.14345   0.34397   0.74696   0.00000  Uiso   1.00
C618   C     0.15154   0.40002   0.74868   0.00000  Uiso   1.00
C619   C     0.20026   0.50368   0.65314   0.00000  Uiso   1.00
C620   C     0.29112   0.55906   0.52806   0.00000  Uiso   1.00
C621   C     0.22018   0.51216   0.59831   0.00000  Uiso   1.00
C622   C     0.05139   0.46874   0.92405   0.00000  Uiso   1.00
C623   C     0.03397   0.46082   0.97635   0.00000  Uiso   1.00
C624   C     0.13915   0.50159   0.98805   0.00000  Uiso   1.00
C625   C     0.07726   0.47555   0.50769   0.00000  Uiso   1.00
C626   C     0.32653   0.43813   0.70912   0.00000  Uiso   1.00
C627   C     0.00129   0.39676   0.88396   0.00000  Uiso   1.00
C628   C     0.15460   0.51670   0.93654   0.00000  Uiso   1.00
C629   C     0.18588   0.51420   0.51825   0.00000  Uiso   1.00
C630   C     0.24486   0.54608   0.99845   0.00000  Uiso   1.00
C631   C     0.25636   0.56592   0.94997   0.00000  Uiso   1.00
C632   C     0.21164   0.55225   0.91983   0.00000  Uiso   1.00
C633   C     0.17580   0.49594   0.56764   0.00000  Uiso   1.00
C634   C     0.27868   0.54250   0.57799   0.00000  Uiso   1.00
Cu635  Cu    0.10710   0.49439   0.74436   0.00000  Uiso   1.00
Cu636  Cu    0.22623   0.50561   0.75565   0.00000  Uiso   1.00
H637   H     0.31359   0.55534   0.60130   0.00000  Uiso   1.00
H638   H     0.22868   0.34563   0.76922   0.00000  Uiso   1.00
H639   H     0.03238   0.42574   0.68176   0.00000  Uiso   1.00
H640   H     0.30759   0.40638   0.73637   0.00000  Uiso   1.00
H641   H     0.29415   0.44301   0.68544   0.00000  Uiso   1.00
H642   H     0.31371   0.37486   0.91949   0.00000  Uiso   1.00
H643   H     0.04675   0.38639   0.86588   0.00000  Uiso   1.00
H644   H     0.30273   0.38382   0.85676   0.00000  Uiso   1.00
H645   H     0.10124   0.65369   0.73636   0.00000  Uiso   1.00
H646   H     0.00537   0.54455   0.78458   0.00000  Uiso   1.00
H647   H     0.30013   0.59229   0.93526   0.00000  Uiso   1.00
H648   H     0.00293   0.58334   0.51309   0.00000  Uiso   1.00
H649   H     0.13310   0.46965   0.58385   0.00000  Uiso   1.00
H650   H     0.06006   0.46743   0.54752   0.00000  Uiso   1.00
H651   H     0.31997   0.44173   0.99265   0.00000  Uiso   1.00
H652   H     0.22203   0.57118   0.88379   0.00000  Uiso   1.00
N653   N     0.31574   0.51407   0.76416   0.00000  Uiso   1.00
N654   N     0.01759   0.48593   0.73584   0.00000  Uiso   1.00
O655   O     0.12797   0.57141   0.74633   0.00000  Uiso   1.00
O656   O     0.22858   0.58089   0.75587   0.00000  Uiso   1.00
O657   O     0.09181   0.49293   0.81840   0.00000  Uiso   1.00
O658   O     0.19242   0.50241   0.82793   0.00000  Uiso   1.00
O659   O     0.10476   0.41911   0.74414   0.00000  Uiso   1.00
O660   O     0.20536   0.42859   0.75367   0.00000  Uiso   1.00
O661   O     0.14092   0.49759   0.67207   0.00000  Uiso   1.00
O662   O     0.24152   0.50707   0.68161   0.00000  Uiso   1.00
O663   O     0.00762   0.45158   0.89362   0.00000  Uiso   1.00
C664   C     0.51441   0.59990   0.75282   0.00000  Uiso   1.00
C665   C     0.44556   0.49649   0.90339   0.00000  Uiso   1.00
C666   C     0.52092   0.65571   0.75706   0.00000  Uiso   1.00
C667   C     0.46654   0.49859   0.84721   0.00000  Uiso   1.00
C668   C     0.47678   0.34397   0.74696   0.00000  Uiso   1.00
C669   C     0.48488   0.40002   0.74868   0.00000  Uiso   1.00
C670   C     0.53360   0.50368   0.65314   0.00000  Uiso   1.00
C671   C     0.62445   0.55906   0.52806   0.00000  Uiso   1.00
C672   C     0.55351   0.51216   0.59831   0.00000  Uiso   1.00
C673   C     0.38473   0.46874   0.92405   0.00000  Uiso   1.00
C674   C     0.36730   0.46082   0.97635   0.00000  Uiso   1.00
C675   C     0.47249   0.50159   0.98805   0.00000  Uiso   1.00
C676   C     0.41059   0.47555   0.50769   0.00000  Uiso   1.00
C677   C     0.65987   0.43813   0.70912   0.00000  Uiso   1.00
C678   C     0.33462   0.39676   0.88396   0.00000  Uiso   1.00
C679   C     0.48793   0.51670   0.93654   0.00000  Uiso   1.00
C680   C     0.51921   0.51420   0.51825   0.00000  Uiso   1.00
C681   C     0.57819   0.54608   0.99845   0.00000  Uiso   1.00
C682   C     0.58969   0.56592   0.94997   0.00000  Uiso   1.00
C683   C     0.54497   0.55225   0.91983   0.00000  Uiso   1.00
C684   C     0.50913   0.49594   0.56764   0.00000  Uiso   1.00
C685   C     0.61201   0.54250   0.57799   0.00000  Uiso   1.00
Cu686  Cu    0.44043   0.49439   0.74436   0.00000  Uiso   1.00
Cu687  Cu    0.55957   0.50561   0.75565   0.00000  Uiso   1.00
H688   H     0.64693   0.55534   0.60130   0.00000  Uiso   1.00
H689   H     0.56202   0.34563   0.76922   0.00000  Uiso   1.00
H690   H     0.36571   0.42574   0.68176   0.00000  Uiso   1.00
H691   H     0.64092   0.40638   0.73637   0.00000  Uiso   1.00
H692   H     0.62748   0.44301   0.68544   0.00000  Uiso   1.00
H693   H     0.64704   0.37486   0.91949   0.00000  Uiso   1.00
H694   H     0.38008   0.38639   0.86588   0.00000  Uiso   1.00
H695   H     0.63606   0.38382   0.85676   0.00000  Uiso   1.00
H696   H     0.43458   0.65369   0.73636   0.00000  Uiso   1.00
H697   H     0.33870   0.54455   0.78458   0.00000  Uiso   1.00
H698   H     0.63346   0.59229   0.93526   0.00000  Uiso   1.00
H699   H     0.33626   0.58334   0.51309   0.00000  Uiso   1.00
H700   H     0.46643   0.46965   0.58385   0.00000  Uiso   1.00
H701   H     0.39339   0.46743   0.54752   0.00000  Uiso   1.00
H702   H     0.65331   0.44173   0.99265   0.00000  Uiso   1.00
H703   H     0.55536   0.57118   0.88379   0.00000  Uiso   1.00
N704   N     0.64908   0.51407   0.76416   0.00000  Uiso   1.00
N705   N     0.35092   0.48593   0.73584   0.00000  Uiso   1.00
O706   O     0.46131   0.57141   0.74633   0.00000  Uiso   1.00
O707   O     0.56191   0.58089   0.75587   0.00000  Uiso   1.00
O708   O     0.42515   0.49293   0.81840   0.00000  Uiso   1.00
O709   O     0.52575   0.50241   0.82793   0.00000  Uiso   1.00
O710   O     0.43809   0.41911   0.74414   0.00000  Uiso   1.00
O711   O     0.53869   0.42859   0.75367   0.00000  Uiso   1.00
O712   O     0.47425   0.49759   0.67207   0.00000  Uiso   1.00
O713   O     0.57485   0.50707   0.68161   0.00000  Uiso   1.00
O714   O     0.34095   0.45158   0.89362   0.00000  Uiso   1.00
C715   C     0.84775   0.59990   0.75282   0.00000  Uiso   1.00
C716   C     0.77889   0.49649   0.90339   0.00000  Uiso   1.00
C717   C     0.85426   0.65571   0.75706   0.00000  Uiso   1.00
C718   C     0.79987   0.49859   0.84721   0.00000  Uiso   1.00
C719   C     0.81011   0.34397   0.74696   0.00000  Uiso   1.00
C720   C     0.81821   0.40002   0.74868   0.00000  Uiso   1.00
C721   C     0.86693   0.50368   0.65314   0.00000  Uiso   1.00
C722   C     0.95779   0.55906   0.52806   0.00000  Uiso   1.00
C723   C     0.88684   0.51216   0.59831   0.00000  Uiso   1.00
C724   C     0.71806   0.46874   0.92405   0.00000  Uiso   1.00
C725   C     0.70064   0.46082   0.97635   0.00000  Uiso   1.00
C726   C     0.80582   0.50159   0.98805   0.00000  Uiso   1.00
C727   C     0.74392   0.47555   0.50769   0.00000  Uiso   1.00
C728   C     0.99320   0.43813   0.70912   0.00000  Uiso   1.00
C729   C     0.66796   0.39676   0.88396   0.00000  Uiso   1.00
C730   C     0.82127   0.51670   0.93654   0.00000  Uiso   1.00
C731   C     0.85254   0.51420   0.51825   0.00000  Uiso   1.00
C732   C     0.91152   0.54608   0.99845   0.00000  Uiso   1.00
C733   C     0.92303   0.56592   0.94997   0.00000  Uiso   1.00
C734   C     0.87830   0.55225   0.91983   0.00000  Uiso   1.00
C735   C     0.84247   0.49594   0.56764   0.00000  Uiso   1.00
C736   C     0.94534   0.54250   0.57799   0.00000  Uiso   1.00
Cu737  Cu    0.77377   0.49439   0.74436   0.00000  Uiso   1.00
Cu738  Cu    0.89290   0.50561   0.75565   0.00000  Uiso   1.00
H739   H     0.98026   0.55534   0.60130   0.00000  Uiso   1.00
H740   H     0.89535   0.34563   0.76922   0.00000  Uiso   1.00
H741   H     0.69905   0.42574   0.68176   0.00000  Uiso   1.00
H742   H     0.97426   0.40638   0.73637   0.00000  Uiso   1.00
H743   H     0.96082   0.44301   0.68544   0.00000  Uiso   1.00
H744   H     0.98037   0.37486   0.91949   0.00000  Uiso   1.00
H745   H     0.71341   0.38639   0.86588   0.00000  Uiso   1.00
H746   H     0.96940   0.38382   0.85676   0.00000  Uiso   1.00
H747   H     0.76791   0.65369   0.73636   0.00000  Uiso   1.00
H748   H     0.67204   0.54455   0.78458   0.00000  Uiso   1.00
H749   H     0.96679   0.59229   0.93526   0.00000  Uiso   1.00
H750   H     0.66959   0.58334   0.51309   0.00000  Uiso   1.00
H751   H     0.79976   0.46965   0.58385   0.00000  Uiso   1.00
H752   H     0.72672   0.46743   0.54752   0.00000  Uiso   1.00
H753   H     0.98664   0.44173   0.99265   0.00000  Uiso   1.00
H754   H     0.88869   0.57118   0.88379   0.00000  Uiso   1.00
N755   N     0.98241   0.51407   0.76416   0.00000  Uiso   1.00
N756   N     0.68426   0.48593   0.73584   0.00000  Uiso   1.00
O757   O     0.79464   0.57141   0.74633   0.00000  Uiso   1.00
O758   O     0.89524   0.58089   0.75587   0.00000  Uiso   1.00
O759   O     0.75848   0.49293   0.81840   0.00000  Uiso   1.00
O760   O     0.85908   0.50241   0.82793   0.00000  Uiso   1.00
O761   O     0.77142   0.41911   0.74414   0.00000  Uiso   1.00
O762   O     0.87203   0.42859   0.75367   0.00000  Uiso   1.00
O763   O     0.80758   0.49759   0.67207   0.00000  Uiso   1.00
O764   O     0.90819   0.50707   0.68161   0.00000  Uiso   1.00
O765   O     0.67429   0.45158   0.89362   0.00000  Uiso   1.00
C766   C     0.18108   0.93323   0.75282   0.00000  Uiso   1.00
C767   C     0.11223   0.82982   0.90339   0.00000  Uiso   1.00
C768   C     0.18759   0.98904   0.75706   0.00000  Uiso   1.00
C769   C     0.13321   0.83193   0.84721   0.00000  Uiso   1.00
C770   C     0.14345   0.67731   0.74696   0.00000  Uiso   1.00
C771   C     0.15154   0.73335   0.74868   0.00000  Uiso   1.00
C772   C     0.20026   0.83702   0.65314   0.00000  Uiso   1.00
C773   C     0.29112   0.89240   0.52806   0.00000  Uiso   1.00
C774   C     0.22018   0.84549   0.59831   0.00000  Uiso   1.00
C775   C     0.05139   0.80208   0.92405   0.00000  Uiso   1.00
C776   C     0.03397   0.79415   0.97635   0.00000  Uiso   1.00
C777   C     0.13915   0.83493   0.98805   0.00000  Uiso   1.00
C778   C     0.07726   0.80889   0.50769   0.00000  Uiso   1.00
C779   C     0.32653   0.77146   0.70912   0.00000  Uiso   1.00
C780   C     0.00129   0.73009   0.88396   0.00000  Uiso   1.00
C781   C     0.15460   0.85003   0.93654   0.00000  Uiso   1.00
C782   C     0.18588   0.84754   0.51825   0.00000  Uiso   1.00
C783   C     0.24486   0.87941   0.99845   0.00000  Uiso   1.00
C784   C     0.25636   0.89925   0.94997   0.00000  Uiso   1.00
C785   C     0.21164   0.88559   0.91983   0.00000  Uiso   1.00
C786   C     0.17580   0.82928   0.56764   0.00000  Uiso   1.00
C787   C     0.27868   0.87583   0.57799   0.00000  Uiso   1.00
Cu788  Cu    0.10710   0.82772   0.74436   0.00000  Uiso   1.00
Cu789  Cu    0.22623   0.83895   0.75565   0.00000  Uiso   1.00
H790   H     0.31359   0.88867   0.60130   0.00000  Uiso   1.00
H791   H     0.22868   0.67896   0.76922   0.00000  Uiso   1.00
H792   H     0.03238   0.75907   0.68176   0.00000  Uiso   1.00
H793   H     0.30759   0.73971   0.73637   0.00000  Uiso   1.00
H794   H     0.29415   0.77634   0.68544   0.00000  Uiso   1.00
H795   H     0.31371   0.70819   0.91949   0.00000  Uiso   1.00
H796   H     0.04675   0.71972   0.86588   0.00000  Uiso   1.00
H797   H     0.30273   0.71716   0.85676   0.00000  Uiso   1.00
H798   H     0.10124   0.98702   0.73636   0.00000  Uiso   1.00
H799   H     0.00537   0.87789   0.78458   0.00000  Uiso   1.00
H800   H     0.30013   0.92562   0.93526   0.00000  Uiso   1.00
H801   H     0.00293   0.91667   0.51309   0.00000  Uiso   1.00
H802   H     0.13310   0.80299   0.58385   0.00000  Uiso   1.00
H803   H     0.06006   0.80077   0.54752   0.00000  Uiso   1.00
H804   H     0.31997   0.77506   0.99265   0.00000  Uiso   1.00
H805   H     0.22203   0.90452   0.88379   0.00000  Uiso   1.00
N806   N     0.31574   0.84741   0.76416   0.00000  Uiso   1.00
N807   N     0.01759   0.81926   0.73584   0.00000  Uiso   1.00
O808   O     0.12797   0.90474   0.74633   0.00000  Uiso   1.00
O809   O     0.22858   0.91422   0.75587   0.00000  Uiso   1.00
O810   O     0.09181   0.82627   0.81840   0.00000  Uiso   1.00
O811   O     0.19242   0.83575   0.82793   0.00000  Uiso   1.00
O812   O     0.10476   0.75245   0.74414   0.00000  Uiso   1.00
O813   O     0.20536   0.76193   0.75367   0.00000  Uiso   1.00
O814   O     0.14092   0.83092   0.67207   0.00000  Uiso   1.00
O815   O     0.24152   0.84040   0.68161   0.00000  Uiso   1.00
O816   O     0.00762   0.78492   0.89362   0.00000  Uiso   1.00
C817   C     0.51441   0.93323   0.75282   0.00000  Uiso   1.00
C818   C     0.44556   0.82982   0.90339   0.00000  Uiso   1.00
C819   C     0.52092   0.98904   0.75706   0.00000  Uiso   1.00
C820   C     0.46654   0.83193   0.84721   0.00000  Uiso   1.00
C821   C     0.47678   0.67731   0.74696   0.00000  Uiso   1.00
C822   C     0.48488   0.73335   0.74868   0.00000  Uiso   1.00
C823   C     0.53360   0.83702   0.65314   0.00000  Uiso   1.00
C824   C     0.62445   0.89240   0.52806   0.00000  Uiso   1.00
C825   C     0.55351   0.84549   0.59831   0.00000  Uiso   1.00
C826   C     0.38473   0.80208   0.92405   0.00000  Uiso   1.00
C827   C     0.36730   0.79415   0.97635   0.00000  Uiso   1.00
C828   C     0.47249   0.83493   0.98805   0.00000  Uiso   1.00
C829   C     0.41059   0.80889   0.50769   0.00000  Uiso   1.00
C830   C     0.65987   0.77146   0.70912   0.00000  Uiso   1.00
C831   C     0.33462   0.73009   0.88396   0.00000  Uiso   1.00
C832   C     0.48793   0.85003   0.93654   0.00000  Uiso   1.00
C833   C     0.51921   0.84754   0.51825   0.00000  Uiso   1.00
C834   C     0.57819   0.87941   0.99845   0.00000  Uiso   1.00
C835   C     0.58969   0.89925   0.94997   0.00000  Uiso   1.00
C836   C     0.54497   0.88559   0.91983   0.00000  Uiso   1.00
C837   C     0.50913   0.82928   0.56764   0.00000  Uiso   1.00
C838   C     0.61201   0.87583   0.57799   0.00000  Uiso   1.00
Cu839  Cu    0.44043   0.82772   0.74436   0.00000  Uiso   1.00
Cu840  Cu    0.55957   0.83895   0.75565   0.00000  Uiso   1.00
H841   H     0.64693   0.88867   0.60130   0.00000  Uiso   1.00
H842   H     0.56202   0.67896   0.76922   0.00000  Uiso   1.00
H843   H     0.36571   0.75907   0.68176   0.00000  Uiso   1.00
H844   H     0.64092   0.73971   0.73637   0.00000  Uiso   1.00
H845   H     0.62748   0.77634   0.68544   0.00000  Uiso   1.00
H846   H     0.64704   0.70819   0.91949   0.00000  Uiso   1.00
H847   H     0.38008   0.71972   0.86588   0.00000  Uiso   1.00
H848   H     0.63606   0.71716   0.85676   0.00000  Uiso   1.00
H849   H     0.43458   0.98702   0.73636   0.00000  Uiso   1.00
H850   H     0.33870   0.87789   0.78458   0.00000  Uiso   1.00
H851   H     0.63346   0.92562   0.93526   0.00000  Uiso   1.00
H852   H     0.33626   0.91667   0.51309   0.00000  Uiso   1.00
H853   H     0.46643   0.80299   0.58385   0.00000  Uiso   1.00
H854   H     0.39339   0.80077   0.54752   0.00000  Uiso   1.00
H855   H     0.65331   0.77506   0.99265   0.00000  Uiso   1.00
H856   H     0.55536   0.90452   0.88379   0.00000  Uiso   1.00
N857   N     0.64908   0.84741   0.76416   0.00000  Uiso   1.00
N858   N     0.35092   0.81926   0.73584   0.00000  Uiso   1.00
O859   O     0.46131   0.90474   0.74633   0.00000  Uiso   1.00
O860   O     0.56191   0.91422   0.75587   0.00000  Uiso   1.00
O861   O     0.42515   0.82627   0.81840   0.00000  Uiso   1.00
O862   O     0.52575   0.83575   0.82793   0.00000  Uiso   1.00
O863   O     0.43809   0.75245   0.74414   0.00000  Uiso   1.00
O864   O     0.53869   0.76193   0.75367   0.00000  Uiso   1.00
O865   O     0.47425   0.83092   0.67207   0.00000  Uiso   1.00
O866   O     0.57485   0.84040   0.68161   0.00000  Uiso   1.00
O867   O     0.34095   0.78492   0.89362   0.00000  Uiso   1.00
C868   C     0.84775   0.93323   0.75282   0.00000  Uiso   1.00
C869   C     0.77889   0.82982   0.90339   0.00000  Uiso   1.00
C870   C     0.85426   0.98904   0.75706   0.00000  Uiso   1.00
C871   C     0.79987   0.83193   0.84721   0.00000  Uiso   1.00
C872   C     0.81011   0.67731   0.74696   0.00000  Uiso   1.00
C873   C     0.81821   0.73335   0.74868   0.00000  Uiso   1.00
C874   C     0.86693   0.83702   0.65314   0.00000  Uiso   1.00
C875   C     0.95779   0.89240   0.52806   0.00000  Uiso   1.00
C876   C     0.88684   0.84549   0.59831   0.00000  Uiso   1.00
C877   C     0.71806   0.80208   0.92405   0.00000  Uiso   1.00
C878   C     0.70064   0.79415   0.97635   0.00000  Uiso   1.00
C879   C     0.80582   0.83493   0.98805   0.00000  Uiso   1.00
C880   C     0.74392   0.80889   0.50769   0.00000  Uiso   1.00
C881   C     0.99320   0.77146   0.70912   0.00000  Uiso   1.00
C882   C     0.66796   0.73009   0.88396   0.00000  Uiso   1.00
C883   C     0.82127   0.85003   0.93654   0.00000  Uiso   1.00
C884   C     0.85254   0.84754   0.51825   0.00000  Uiso   1.00
C885   C     0.91152   0.87941   0.99845   0.00000  Uiso   1.00
C886   C     0.92303   0.89925   0.94997   0.00000  Uiso   1.00
C887   C     0.87830   0.88559   0.91983   0.00000  Uiso   1.00
C888   C     0.84247   0.82928   0.56764   0.00000  Uiso   1.00
C889   C     0.94534   0.87583   0.57799   0.00000  Uiso   1.00
Cu890  Cu    0.77377   0.82772   0.74436   0.00000  Uiso   1.00
Cu891  Cu    0.89290   0.83895   0.75565   0.00000  Uiso   1.00
H892   H     0.98026   0.88867   0.60130   0.00000  Uiso   1.00
H893   H     0.89535   0.67896   0.76922   0.00000  Uiso   1.00
H894   H     0.69905   0.75907   0.68176   0.00000  Uiso   1.00
H895   H     0.97426   0.73971   0.73637   0.00000  Uiso   1.00
H896   H     0.96082   0.77634   0.68544   0.00000  Uiso   1.00
H897   H     0.98037   0.70819   0.91949   0.00000  Uiso   1.00
H898   H     0.71341   0.71972   0.86588   0.00000  Uiso   1.00
H899   H     0.96940   0.71716   0.85676   0.00000  Uiso   1.00
H900   H     0.76791   0.98702   0.73636   0.00000  Uiso   1.00
H901   H     0.67204   0.87789   0.78458   0.00000  Uiso   1.00
H902   H     0.96679   0.92562   0.93526   0.00000  Uiso   1.00
H903   H     0.66959   0.91667   0.51309   0.00000  Uiso   1.00
H904   H     0.79976   0.80299   0.58385   0.00000  Uiso   1.00
H905   H     0.72672   0.80077   0.54752   0.00000  Uiso   1.00
H906   H     0.98664   0.77506   0.99265   0.00000  Uiso   1.00
H907   H     0.88869   0.90452   0.88379   0.00000  Uiso   1.00
N908   N     0.98241   0.84741   0.76416   0.00000  Uiso   1.00
N909   N     0.68426   0.81926   0.73584   0.00000  Uiso   1.00
O910   O     0.79464   0.90474   0.74633   0.00000  Uiso   1.00
O911   O     0.89524   0.91422   0.75587   0.00000  Uiso   1.00
O912   O     0.75848   0.82627   0.81840   0.00000  Uiso   1.00
O913   O     0.85908   0.83575   0.82793   0.00000  Uiso   1.00
O914   O     0.77142   0.75245   0.74414   0.00000  Uiso   1.00
O915   O     0.87203   0.76193   0.75367   0.00000  Uiso   1.00
O916   O     0.80758   0.83092   0.67207   0.00000  Uiso   1.00
O917   O     0.90819   0.84040   0.68161   0.00000  Uiso   1.00
O918   O     0.67429   0.78492   0.89362   0.00000  Uiso   1.00
loop_
_geom_bond_atom_site_label_1
_geom_bond_atom_site_label_2
_geom_bond_distance
_geom_bond_site_symmetry_2
_ccdc_geom_bond_type
C1     O44     1.293   .     A
C1     O43     1.295   .     A
C1     C3      1.426   .     S
C2     C16     1.424   .     A
C2     C4      1.481   .     S
C2     C10     1.416   .     A
C3     C158    1.328   .     S
C3     H179    1.082   .     S
C4     O46     1.306   .     A
C4     O45     1.307   .     A
C5     C6      1.429   .     S
C5     C309    1.328   1_545 S
C5     H339    1.088   1_545 S
C6     O48     1.298   .     A
C6     O47     1.291   .     A
C7     O49     1.301   .     A
C7     C9      1.463   .     S
C7     O50     1.305   .     A
C8     C22     1.394   .     A
C8     C477    1.405   1_554 S
C8     H87     1.084   .     S
C9     C21     1.396   .     A
C9     C22     1.399   .     A
C10    O51     1.384   .     S
C10    C11     1.393   .     A
C11    C472    1.387   .     S
C11    H141    1.083   1_455 S
C12    C16     1.418   .     A
C12    C472    1.415   .     S
C12    C476    1.424   .     S
C13    H38     1.077   .     S
C13    C470    1.387   1_554 S
C13    C471    1.415   1_554 S
C14    H29     1.096   .     S
C14    H28     1.102   .     S
C14    H78     1.108   .     S
C14    N93     1.440   .     S
C15    H31     1.114   .     S
C15    O51     1.411   .     S
C15    H132    1.113   1_455 S
C15    H134    1.110   1_455 S
C16    C20     1.414   .     A
C17    C21     1.402   .     A
C17    C471    1.424   1_554 S
C17    C477    1.419   1_554 S
C18    C19     1.392   .     A
C18    C476    1.419   .     S
C18    C467    1.405   .     S
C19    C20     1.388   .     A
C19    H35     1.084   .     S
C20    H40     1.080   .     S
C21    H37     1.077   .     S
C22    H25     1.083   .     S
Cu23   Cu24    2.707   .     S
Cu23   O45     1.943   .     S
Cu23   O43     1.956   .     S
Cu23   O49     1.926   .     S
Cu23   O47     1.951   .     S
Cu23   N42     2.034   .     S
Cu24   O46     1.926   .     S
Cu24   N41     2.034   .     S
Cu24   O50     1.943   .     S
Cu24   O44     1.951   .     S
Cu24   O48     1.956   .     S
H26    C309    1.082   1_545 S
H27    C116    1.108   1_455 S
H30    C66     1.113   .     S
H32    C66     1.110   .     S
H33    C158    1.088   .     S
H34    N143    1.029   1_455 S
H36    C110    1.084   1_455 S
H39    C62     1.083   .     S
N41    H85     1.029   .     S
N41    N93     1.283   .     S
N42    N143    1.283   1_455 S
N42    C116    1.440   1_455 S
C52    O95     1.293   .     A
C52    O94     1.295   .     A
C52    C54     1.426   .     S
C53    C67     1.424   .     A
C53    C55     1.481   .     S
C53    C61     1.416   .     A
C54    C209    1.328   .     S
C54    H230    1.082   .     S
C55    O97     1.306   .     A
C55    O96     1.307   .     A
C56    C57     1.429   .     S
C56    C360    1.328   1_545 S
C56    H390    1.088   1_545 S
C57    O99     1.298   .     A
C57    O98     1.291   .     A
C58    O100    1.301   .     A
C58    C60     1.463   .     S
C58    O101    1.305   .     A
C59    C73     1.394   .     A
C59    C528    1.405   1_554 S
C59    H138    1.084   .     S
C60    C72     1.396   .     A
C60    C73     1.399   .     A
C61    O102    1.384   .     S
C61    C62     1.393   .     A
C62    C523    1.387   .     S
C63    C67     1.418   .     A
C63    C523    1.415   .     S
C63    C527    1.424   .     S
C64    H89     1.077   .     S
C64    C521    1.387   1_554 S
C64    C522    1.415   1_554 S
C65    H80     1.096   .     S
C65    H79     1.102   .     S
C65    H129    1.108   .     S
C65    N144    1.440   .     S
C66    H82     1.114   .     S
C66    O102    1.411   .     S
C67    C71     1.414   .     A
C68    C72     1.402   .     A
C68    C522    1.424   1_554 S
C68    C528    1.419   1_554 S
C69    C70     1.392   .     A
C69    C527    1.419   .     S
C69    C518    1.405   .     S
C70    C71     1.388   .     A
C70    H86     1.084   .     S
C71    H91     1.080   .     S
C72    H88     1.077   .     S
C73    H76     1.083   .     S
Cu74   Cu75    2.707   .     S
Cu74   O96     1.943   .     S
Cu74   O94     1.956   .     S
Cu74   O100    1.926   .     S
Cu74   O98     1.951   .     S
Cu74   N93     2.034   .     S
Cu75   O97     1.926   .     S
Cu75   N92     2.034   .     S
Cu75   O101    1.943   .     S
Cu75   O95     1.951   .     S
Cu75   O99     1.956   .     S
H77    C360    1.082   1_545 S
H81    C117    1.113   .     S
H83    C117    1.110   .     S
H84    C209    1.088   .     S
H90    C113    1.083   .     S
N92    H136    1.029   .     S
N92    N144    1.283   .     S
C103   O146    1.293   .     A
C103   O145    1.295   .     A
C103   C105    1.426   .     S
C104   C118    1.424   .     A
C104   C106    1.481   .     S
C104   C112    1.416   .     A
C105   C260    1.328   .     S
C105   H281    1.082   .     S
C106   O148    1.306   .     A
C106   O147    1.307   .     A
C107   C108    1.429   .     S
C107   C411    1.328   1_545 S
C107   H441    1.088   1_545 S
C108   O150    1.298   .     A
C108   O149    1.291   .     A
C109   O151    1.301   .     A
C109   C111    1.463   .     S
C109   O152    1.305   .     A
C110   C124    1.394   .     A
C110   C579    1.405   1_554 S
C110   H36     1.084   1_655 S
C111   C123    1.396   .     A
C111   C124    1.399   .     A
C112   O153    1.384   .     S
C112   C113    1.393   .     A
C113   C574    1.387   .     S
C114   C118    1.418   .     A
C114   C574    1.415   .     S
C114   C578    1.424   .     S
C115   H140    1.077   .     S
C115   C572    1.387   1_554 S
C115   C573    1.415   1_554 S
C116   H131    1.096   .     S
C116   H130    1.102   .     S
C116   H27     1.108   1_655 S
C116   N42     1.440   1_655 S
C117   H133    1.114   .     S
C117   O153    1.411   .     S
C118   C122    1.414   .     A
C119   C123    1.402   .     A
C119   C573    1.424   1_554 S
C119   C579    1.419   1_554 S
C120   C121    1.392   .     A
C120   C578    1.419   .     S
C120   C569    1.405   .     S
C121   C122    1.388   .     A
C121   H137    1.084   .     S
C122   H142    1.080   .     S
C123   H139    1.077   .     S
C124   H127    1.083   .     S
Cu125  Cu126   2.707   .     S
Cu125  O147    1.943   .     S
Cu125  O145    1.956   .     S
Cu125  O151    1.926   .     S
Cu125  O149    1.951   .     S
Cu125  N144    2.034   .     S
Cu126  O148    1.926   .     S
Cu126  N143    2.034   .     S
Cu126  O152    1.943   .     S
Cu126  O146    1.951   .     S
Cu126  O150    1.956   .     S
H128   C411    1.082   1_545 S
H132   C15     1.113   1_655 S
H134   C15     1.110   1_655 S
H135   C260    1.088   .     S
H141   C11     1.083   1_655 S
N143   H34     1.029   1_655 S
N143   N42     1.283   1_655 S
C154   O197    1.293   .     A
C154   O196    1.295   .     A
C154   C156    1.426   .     S
C155   C169    1.424   .     A
C155   C157    1.481   .     S
C155   C163    1.416   .     A
C156   C311    1.328   .     S
C156   H332    1.082   .     S
C157   O199    1.306   .     A
C157   O198    1.307   .     A
C158   C159    1.429   .     S
C159   O201    1.298   .     A
C159   O200    1.291   .     A
C160   O202    1.301   .     A
C160   C162    1.463   .     S
C160   O203    1.305   .     A
C161   C175    1.394   .     A
C161   C630    1.405   1_554 S
C161   H240    1.084   .     S
C162   C174    1.396   .     A
C162   C175    1.399   .     A
C163   O204    1.384   .     S
C163   C164    1.393   .     A
C164   C625    1.387   .     S
C164   H294    1.083   1_455 S
C165   C169    1.418   .     A
C165   C625    1.415   .     S
C165   C629    1.424   .     S
C166   H191    1.077   .     S
C166   C623    1.387   1_554 S
C166   C624    1.415   1_554 S
C167   H182    1.096   .     S
C167   H181    1.102   .     S
C167   H231    1.108   .     S
C167   N246    1.440   .     S
C168   H184    1.114   .     S
C168   O204    1.411   .     S
C168   H285    1.113   1_455 S
C168   H287    1.110   1_455 S
C169   C173    1.414   .     A
C170   C174    1.402   .     A
C170   C624    1.424   1_554 S
C170   C630    1.419   1_554 S
C171   C172    1.392   .     A
C171   C629    1.419   .     S
C171   C620    1.405   .     S
C172   C173    1.388   .     A
C172   H188    1.084   .     S
C173   H193    1.080   .     S
C174   H190    1.077   .     S
C175   H178    1.083   .     S
Cu176  Cu177   2.707   .     S
Cu176  O198    1.943   .     S
Cu176  O196    1.956   .     S
Cu176  O202    1.926   .     S
Cu176  O200    1.951   .     S
Cu176  N195    2.034   .     S
Cu177  O199    1.926   .     S
Cu177  N194    2.034   .     S
Cu177  O203    1.943   .     S
Cu177  O197    1.951   .     S
Cu177  O201    1.956   .     S
H180   C269    1.108   1_455 S
H183   C219    1.113   .     S
H185   C219    1.110   .     S
H186   C311    1.088   .     S
H187   N296    1.029   1_455 S
H189   C263    1.084   1_455 S
H192   C215    1.083   .     S
N194   H238    1.029   .     S
N194   N246    1.283   .     S
N195   N296    1.283   1_455 S
N195   C269    1.440   1_455 S
C205   O248    1.293   .     A
C205   O247    1.295   .     A
C205   C207    1.426   .     S
C206   C220    1.424   .     A
C206   C208    1.481   .     S
C206   C214    1.416   .     A
C207   C362    1.328   .     S
C207   H383    1.082   .     S
C208   O250    1.306   .     A
C208   O249    1.307   .     A
C209   C210    1.429   .     S
C210   O252    1.298   .     A
C210   O251    1.291   .     A
C211   O253    1.301   .     A
C211   C213    1.463   .     S
C211   O254    1.305   .     A
C212   C226    1.394   .     A
C212   C681    1.405   1_554 S
C212   H291    1.084   .     S
C213   C225    1.396   .     A
C213   C226    1.399   .     A
C214   O255    1.384   .     S
C214   C215    1.393   .     A
C215   C676    1.387   .     S
C216   C220    1.418   .     A
C216   C676    1.415   .     S
C216   C680    1.424   .     S
C217   H242    1.077   .     S
C217   C674    1.387   1_554 S
C217   C675    1.415   1_554 S
C218   H233    1.096   .     S
C218   H232    1.102   .     S
C218   H282    1.108   .     S
C218   N297    1.440   .     S
C219   H235    1.114   .     S
C219   O255    1.411   .     S
C220   C224    1.414   .     A
C221   C225    1.402   .     A
C221   C675    1.424   1_554 S
C221   C681    1.419   1_554 S
C222   C223    1.392   .     A
C222   C680    1.419   .     S
C222   C671    1.405   .     S
C223   C224    1.388   .     A
C223   H239    1.084   .     S
C224   H244    1.080   .     S
C225   H241    1.077   .     S
C226   H229    1.083   .     S
Cu227  Cu228   2.707   .     S
Cu227  O249    1.943   .     S
Cu227  O247    1.956   .     S
Cu227  O253    1.926   .     S
Cu227  O251    1.951   .     S
Cu227  N246    2.034   .     S
Cu228  O250    1.926   .     S
Cu228  N245    2.034   .     S
Cu228  O254    1.943   .     S
Cu228  O248    1.951   .     S
Cu228  O252    1.956   .     S
H234   C270    1.113   .     S
H236   C270    1.110   .     S
H237   C362    1.088   .     S
H243   C266    1.083   .     S
N245   H289    1.029   .     S
N245   N297    1.283   .     S
C256   O299    1.293   .     A
C256   O298    1.295   .     A
C256   C258    1.426   .     S
C257   C271    1.424   .     A
C257   C259    1.481   .     S
C257   C265    1.416   .     A
C258   C413    1.328   .     S
C258   H434    1.082   .     S
C259   O301    1.306   .     A
C259   O300    1.307   .     A
C260   C261    1.429   .     S
C261   O303    1.298   .     A
C261   O302    1.291   .     A
C262   O304    1.301   .     A
C262   C264    1.463   .     S
C262   O305    1.305   .     A
C263   C277    1.394   .     A
C263   C732    1.405   1_554 S
C263   H189    1.084   1_655 S
C264   C276    1.396   .     A
C264   C277    1.399   .     A
C265   O306    1.384   .     S
C265   C266    1.393   .     A
C266   C727    1.387   .     S
C267   C271    1.418   .     A
C267   C727    1.415   .     S
C267   C731    1.424   .     S
C268   H293    1.077   .     S
C268   C725    1.387   1_554 S
C268   C726    1.415   1_554 S
C269   H284    1.096   .     S
C269   H283    1.102   .     S
C269   H180    1.108   1_655 S
C269   N195    1.440   1_655 S
C270   H286    1.114   .     S
C270   O306    1.411   .     S
C271   C275    1.414   .     A
C272   C276    1.402   .     A
C272   C726    1.424   1_554 S
C272   C732    1.419   1_554 S
C273   C274    1.392   .     A
C273   C731    1.419   .     S
C273   C722    1.405   .     S
C274   C275    1.388   .     A
C274   H290    1.084   .     S
C275   H295    1.080   .     S
C276   H292    1.077   .     S
C277   H280    1.083   .     S
Cu278  Cu279   2.707   .     S
Cu278  O300    1.943   .     S
Cu278  O298    1.956   .     S
Cu278  O304    1.926   .     S
Cu278  O302    1.951   .     S
Cu278  N297    2.034   .     S
Cu279  O301    1.926   .     S
Cu279  N296    2.034   .     S
Cu279  O305    1.943   .     S
Cu279  O299    1.951   .     S
Cu279  O303    1.956   .     S
H285   C168    1.113   1_655 S
H287   C168    1.110   1_655 S
H288   C413    1.088   .     S
H294   C164    1.083   1_655 S
N296   H187    1.029   1_655 S
N296   N195    1.283   1_655 S
C307   O350    1.293   .     A
C307   O349    1.295   .     A
C307   C309    1.426   .     S
C308   C322    1.424   .     A
C308   C310    1.481   .     S
C308   C316    1.416   .     A
C309   C5      1.328   1_565 S
C309   H26     1.082   1_565 S
C310   O352    1.306   .     A
C310   O351    1.307   .     A
C311   C312    1.429   .     S
C312   O354    1.298   .     A
C312   O353    1.291   .     A
C313   O355    1.301   .     A
C313   C315    1.463   .     S
C313   O356    1.305   .     A
C314   C328    1.394   .     A
C314   C783    1.405   1_554 S
C314   H393    1.084   .     S
C315   C327    1.396   .     A
C315   C328    1.399   .     A
C316   O357    1.384   .     S
C316   C317    1.393   .     A
C317   C778    1.387   .     S
C317   H447    1.083   1_455 S
C318   C322    1.418   .     A
C318   C778    1.415   .     S
C318   C782    1.424   .     S
C319   H344    1.077   .     S
C319   C776    1.387   1_554 S
C319   C777    1.415   1_554 S
C320   H335    1.096   .     S
C320   H334    1.102   .     S
C320   H384    1.108   .     S
C320   N399    1.440   .     S
C321   H337    1.114   .     S
C321   O357    1.411   .     S
C321   H438    1.113   1_455 S
C321   H440    1.110   1_455 S
C322   C326    1.414   .     A
C323   C327    1.402   .     A
C323   C777    1.424   1_554 S
C323   C783    1.419   1_554 S
C324   C325    1.392   .     A
C324   C782    1.419   .     S
C324   C773    1.405   .     S
C325   C326    1.388   .     A
C325   H341    1.084   .     S
C326   H346    1.080   .     S
C327   H343    1.077   .     S
C328   H331    1.083   .     S
Cu329  Cu330   2.707   .     S
Cu329  O351    1.943   .     S
Cu329  O349    1.956   .     S
Cu329  O355    1.926   .     S
Cu329  O353    1.951   .     S
Cu329  N348    2.034   .     S
Cu330  O352    1.926   .     S
Cu330  N347    2.034   .     S
Cu330  O356    1.943   .     S
Cu330  O350    1.951   .     S
Cu330  O354    1.956   .     S
H333   C422    1.108   1_455 S
H336   C372    1.113   .     S
H338   C372    1.110   .     S
H339   C5      1.088   1_565 S
H340   N449    1.029   1_455 S
H342   C416    1.084   1_455 S
H345   C368    1.083   .     S
N347   H391    1.029   .     S
N347   N399    1.283   .     S
N348   N449    1.283   1_455 S
N348   C422    1.440   1_455 S
C358   O401    1.293   .     A
C358   O400    1.295   .     A
C358   C360    1.426   .     S
C359   C373    1.424   .     A
C359   C361    1.481   .     S
C359   C367    1.416   .     A
C360   C56     1.328   1_565 S
C360   H77     1.082   1_565 S
C361   O403    1.306   .     A
C361   O402    1.307   .     A
C362   C363    1.429   .     S
C363   O405    1.298   .     A
C363   O404    1.291   .     A
C364   O406    1.301   .     A
C364   C366    1.463   .     S
C364   O407    1.305   .     A
C365   C379    1.394   .     A
C365   C834    1.405   1_554 S
C365   H444    1.084   .     S
C366   C378    1.396   .     A
C366   C379    1.399   .     A
C367   O408    1.384   .     S
C367   C368    1.393   .     A
C368   C829    1.387   .     S
C369   C373    1.418   .     A
C369   C829    1.415   .     S
C369   C833    1.424   .     S
C370   H395    1.077   .     S
C370   C827    1.387   1_554 S
C370   C828    1.415   1_554 S
C371   H386    1.096   .     S
C371   H385    1.102   .     S
C371   H435    1.108   .     S
C371   N450    1.440   .     S
C372   H388    1.114   .     S
C372   O408    1.411   .     S
C373   C377    1.414   .     A
C374   C378    1.402   .     A
C374   C828    1.424   1_554 S
C374   C834    1.419   1_554 S
C375   C376    1.392   .     A
C375   C833    1.419   .     S
C375   C824    1.405   .     S
C376   C377    1.388   .     A
C376   H392    1.084   .     S
C377   H397    1.080   .     S
C378   H394    1.077   .     S
C379   H382    1.083   .     S
Cu380  Cu381   2.707   .     S
Cu380  O402    1.943   .     S
Cu380  O400    1.956   .     S
Cu380  O406    1.926   .     S
Cu380  O404    1.951   .     S
Cu380  N399    2.034   .     S
Cu381  O403    1.926   .     S
Cu381  N398    2.034   .     S
Cu381  O407    1.943   .     S
Cu381  O401    1.951   .     S
Cu381  O405    1.956   .     S
H387   C423    1.113   .     S
H389   C423    1.110   .     S
H390   C56     1.088   1_565 S
H396   C419    1.083   .     S
N398   H442    1.029   .     S
N398   N450    1.283   .     S
C409   O452    1.293   .     A
C409   O451    1.295   .     A
C409   C411    1.426   .     S
C410   C424    1.424   .     A
C410   C412    1.481   .     S
C410   C418    1.416   .     A
C411   C107    1.328   1_565 S
C411   H128    1.082   1_565 S
C412   O454    1.306   .     A
C412   O453    1.307   .     A
C413   C414    1.429   .     S
C414   O456    1.298   .     A
C414   O455    1.291   .     A
C415   O457    1.301   .     A
C415   C417    1.463   .     S
C415   O458    1.305   .     A
C416   C430    1.394   .     A
C416   C885    1.405   1_554 S
C416   H342    1.084   1_655 S
C417   C429    1.396   .     A
C417   C430    1.399   .     A
C418   O459    1.384   .     S
C418   C419    1.393   .     A
C419   C880    1.387   .     S
C420   C424    1.418   .     A
C420   C880    1.415   .     S
C420   C884    1.424   .     S
C421   H446    1.077   .     S
C421   C878    1.387   1_554 S
C421   C879    1.415   1_554 S
C422   H437    1.096   .     S
C422   H436    1.102   .     S
C422   H333    1.108   1_655 S
C422   N348    1.440   1_655 S
C423   H439    1.114   .     S
C423   O459    1.411   .     S
C424   C428    1.414   .     A
C425   C429    1.402   .     A
C425   C879    1.424   1_554 S
C425   C885    1.419   1_554 S
C426   C427    1.392   .     A
C426   C884    1.419   .     S
C426   C875    1.405   .     S
C427   C428    1.388   .     A
C427   H443    1.084   .     S
C428   H448    1.080   .     S
C429   H445    1.077   .     S
C430   H433    1.083   .     S
Cu431  Cu432   2.707   .     S
Cu431  O453    1.943   .     S
Cu431  O451    1.956   .     S
Cu431  O457    1.926   .     S
Cu431  O455    1.951   .     S
Cu431  N450    2.034   .     S
Cu432  O454    1.926   .     S
Cu432  N449    2.034   .     S
Cu432  O458    1.943   .     S
Cu432  O452    1.951   .     S
Cu432  O456    1.956   .     S
H438   C321    1.113   1_655 S
H440   C321    1.110   1_655 S
H441   C107    1.088   1_565 S
H447   C317    1.083   1_655 S
N449   H340    1.029   1_655 S
N449   N348    1.283   1_655 S
C460   O503    1.293   .     A
C460   O502    1.295   .     A
C460   C462    1.426   .     S
C461   C475    1.424   .     A
C461   C463    1.481   .     S
C461   C469    1.416   .     A
C462   C617    1.328   .     S
C462   H638    1.082   .     S
C463   O505    1.306   .     A
C463   O504    1.307   .     A
C464   C465    1.429   .     S
C464   C768    1.328   1_545 S
C464   H798    1.088   1_545 S
C465   O507    1.298   .     A
C465   O506    1.291   .     A
C466   O508    1.301   .     A
C466   C468    1.463   .     S
C466   O509    1.305   .     A
C467   C481    1.394   .     A
C467   H546    1.084   .     S
C468   C480    1.396   .     A
C468   C481    1.399   .     A
C469   O510    1.384   .     S
C469   C470    1.393   .     A
C470   C13     1.387   1_556 S
C470   H600    1.083   1_455 S
C471   C475    1.418   .     A
C471   C13     1.415   1_556 S
C471   C17     1.424   1_556 S
C472   H497    1.077   .     S
C473   H488    1.096   .     S
C473   H487    1.102   .     S
C473   H537    1.108   .     S
C473   N552    1.440   .     S
C474   H490    1.114   .     S
C474   O510    1.411   .     S
C474   H591    1.113   1_455 S
C474   H593    1.110   1_455 S
C475   C479    1.414   .     A
C476   C480    1.402   .     A
C477   C478    1.392   .     A
C477   C17     1.419   1_556 S
C477   C8      1.405   1_556 S
C478   C479    1.388   .     A
C478   H494    1.084   .     S
C479   H499    1.080   .     S
C480   H496    1.077   .     S
C481   H484    1.083   .     S
Cu482  Cu483   2.707   .     S
Cu482  O504    1.943   .     S
Cu482  O502    1.956   .     S
Cu482  O508    1.926   .     S
Cu482  O506    1.951   .     S
Cu482  N501    2.034   .     S
Cu483  O505    1.926   .     S
Cu483  N500    2.034   .     S
Cu483  O509    1.943   .     S
Cu483  O503    1.951   .     S
Cu483  O507    1.956   .     S
H485   C768    1.082   1_545 S
H486   C575    1.108   1_455 S
H489   C525    1.113   .     S
H491   C525    1.110   .     S
H492   C617    1.088   .     S
H493   N602    1.029   1_455 S
H495   C569    1.084   1_455 S
H498   C521    1.083   .     S
N500   H544    1.029   .     S
N500   N552    1.283   .     S
N501   N602    1.283   1_455 S
N501   C575    1.440   1_455 S
C511   O554    1.293   .     A
C511   O553    1.295   .     A
C511   C513    1.426   .     S
C512   C526    1.424   .     A
C512   C514    1.481   .     S
C512   C520    1.416   .     A
C513   C668    1.328   .     S
C513   H689    1.082   .     S
C514   O556    1.306   .     A
C514   O555    1.307   .     A
C515   C516    1.429   .     S
C515   C819    1.328   1_545 S
C515   H849    1.088   1_545 S
C516   O558    1.298   .     A
C516   O557    1.291   .     A
C517   O559    1.301   .     A
C517   C519    1.463   .     S
C517   O560    1.305   .     A
C518   C532    1.394   .     A
C518   H597    1.084   .     S
C519   C531    1.396   .     A
C519   C532    1.399   .     A
C520   O561    1.384   .     S
C520   C521    1.393   .     A
C521   C64     1.387   1_556 S
C522   C526    1.418   .     A
C522   C64     1.415   1_556 S
C522   C68     1.424   1_556 S
C523   H548    1.077   .     S
C524   H539    1.096   .     S
C524   H538    1.102   .     S
C524   H588    1.108   .     S
C524   N603    1.440   .     S
C525   H541    1.114   .     S
C525   O561    1.411   .     S
C526   C530    1.414   .     A
C527   C531    1.402   .     A
C528   C529    1.392   .     A
C528   C68     1.419   1_556 S
C528   C59     1.405   1_556 S
C529   C530    1.388   .     A
C529   H545    1.084   .     S
C530   H550    1.080   .     S
C531   H547    1.077   .     S
C532   H535    1.083   .     S
Cu533  Cu534   2.707   .     S
Cu533  O555    1.943   .     S
Cu533  O553    1.956   .     S
Cu533  O559    1.926   .     S
Cu533  O557    1.951   .     S
Cu533  N552    2.034   .     S
Cu534  O556    1.926   .     S
Cu534  N551    2.034   .     S
Cu534  O560    1.943   .     S
Cu534  O554    1.951   .     S
Cu534  O558    1.956   .     S
H536   C819    1.082   1_545 S
H540   C576    1.113   .     S
H542   C576    1.110   .     S
H543   C668    1.088   .     S
H549   C572    1.083   .     S
N551   H595    1.029   .     S
N551   N603    1.283   .     S
C562   O605    1.293   .     A
C562   O604    1.295   .     A
C562   C564    1.426   .     S
C563   C577    1.424   .     A
C563   C565    1.481   .     S
C563   C571    1.416   .     A
C564   C719    1.328   .     S
C564   H740    1.082   .     S
C565   O607    1.306   .     A
C565   O606    1.307   .     A
C566   C567    1.429   .     S
C566   C870    1.328   1_545 S
C566   H900    1.088   1_545 S
C567   O609    1.298   .     A
C567   O608    1.291   .     A
C568   O610    1.301   .     A
C568   C570    1.463   .     S
C568   O611    1.305   .     A
C569   C583    1.394   .     A
C569   H495    1.084   1_655 S
C570   C582    1.396   .     A
C570   C583    1.399   .     A
C571   O612    1.384   .     S
C571   C572    1.393   .     A
C572   C115    1.387   1_556 S
C573   C577    1.418   .     A
C573   C115    1.415   1_556 S
C573   C119    1.424   1_556 S
C574   H599    1.077   .     S
C575   H590    1.096   .     S
C575   H589    1.102   .     S
C575   H486    1.108   1_655 S
C575   N501    1.440   1_655 S
C576   H592    1.114   .     S
C576   O612    1.411   .     S
C577   C581    1.414   .     A
C578   C582    1.402   .     A
C579   C580    1.392   .     A
C579   C119    1.419   1_556 S
C579   C110    1.405   1_556 S
C580   C581    1.388   .     A
C580   H596    1.084   .     S
C581   H601    1.080   .     S
C582   H598    1.077   .     S
C583   H586    1.083   .     S
Cu584  Cu585   2.707   .     S
Cu584  O606    1.943   .     S
Cu584  O604    1.956   .     S
Cu584  O610    1.926   .     S
Cu584  O608    1.951   .     S
Cu584  N603    2.034   .     S
Cu585  O607    1.926   .     S
Cu585  N602    2.034   .     S
Cu585  O611    1.943   .     S
Cu585  O605    1.951   .     S
Cu585  O609    1.956   .     S
H587   C870    1.082   1_545 S
H591   C474    1.113   1_655 S
H593   C474    1.110   1_655 S
H594   C719    1.088   .     S
H600   C470    1.083   1_655 S
N602   H493    1.029   1_655 S
N602   N501    1.283   1_655 S
C613   O656    1.293   .     A
C613   O655    1.295   .     A
C613   C615    1.426   .     S
C614   C628    1.424   .     A
C614   C616    1.481   .     S
C614   C622    1.416   .     A
C615   C770    1.328   .     S
C615   H791    1.082   .     S
C616   O658    1.306   .     A
C616   O657    1.307   .     A
C617   C618    1.429   .     S
C618   O660    1.298   .     A
C618   O659    1.291   .     A
C619   O661    1.301   .     A
C619   C621    1.463   .     S
C619   O662    1.305   .     A
C620   C634    1.394   .     A
C620   H699    1.084   .     S
C621   C633    1.396   .     A
C621   C634    1.399   .     A
C622   O663    1.384   .     S
C622   C623    1.393   .     A
C623   C166    1.387   1_556 S
C623   H753    1.083   1_455 S
C624   C628    1.418   .     A
C624   C166    1.415   1_556 S
C624   C170    1.424   1_556 S
C625   H650    1.077   .     S
C626   H641    1.096   .     S
C626   H640    1.102   .     S
C626   H690    1.108   .     S
C626   N705    1.440   .     S
C627   H643    1.114   .     S
C627   O663    1.411   .     S
C627   H744    1.113   1_455 S
C627   H746    1.110   1_455 S
C628   C632    1.414   .     A
C629   C633    1.402   .     A
C630   C631    1.392   .     A
C630   C170    1.419   1_556 S
C630   C161    1.405   1_556 S
C631   C632    1.388   .     A
C631   H647    1.084   .     S
C632   H652    1.080   .     S
C633   H649    1.077   .     S
C634   H637    1.083   .     S
Cu635  Cu636   2.707   .     S
Cu635  O657    1.943   .     S
Cu635  O655    1.956   .     S
Cu635  O661    1.926   .     S
Cu635  O659    1.951   .     S
Cu635  N654    2.034   .     S
Cu636  O658    1.926   .     S
Cu636  N653    2.034   .     S
Cu636  O662    1.943   .     S
Cu636  O656    1.951   .     S
Cu636  O660    1.956   .     S
H639   C728    1.108   1_455 S
H642   C678    1.113   .     S
H644   C678    1.110   .     S
H645   C770    1.088   .     S
H646   N755    1.029   1_455 S
H648   C722    1.084   1_455 S
H651   C674    1.083   .     S
N653   H697    1.029   .     S
N653   N705    1.283   .     S
N654   N755    1.283   1_455 S
N654   C728    1.440   1_455 S
C664   O707    1.293   .     A
C664   O706    1.295   .     A
C664   C666    1.426   .     S
C665   C679    1.424   .     A
C665   C667    1.481   .     S
C665   C673    1.416   .     A
C666   C821    1.328   .     S
C666   H842    1.082   .     S
C667   O709    1.306   .     A
C667   O708    1.307   .     A
C668   C669    1.429   .     S
C669   O711    1.298   .     A
C669   O710    1.291   .     A
C670   O712    1.301   .     A
C670   C672    1.463   .     S
C670   O713    1.305   .     A
C671   C685    1.394   .     A
C671   H750    1.084   .     S
C672   C684    1.396   .     A
C672   C685    1.399   .     A
C673   O714    1.384   .     S
C673   C674    1.393   .     A
C674   C217    1.387   1_556 S
C675   C679    1.418   .     A
C675   C217    1.415   1_556 S
C675   C221    1.424   1_556 S
C676   H701    1.077   .     S
C677   H692    1.096   .     S
C677   H691    1.102   .     S
C677   H741    1.108   .     S
C677   N756    1.440   .     S
C678   H694    1.114   .     S
C678   O714    1.411   .     S
C679   C683    1.414   .     A
C680   C684    1.402   .     A
C681   C682    1.392   .     A
C681   C221    1.419   1_556 S
C681   C212    1.405   1_556 S
C682   C683    1.388   .     A
C682   H698    1.084   .     S
C683   H703    1.080   .     S
C684   H700    1.077   .     S
C685   H688    1.083   .     S
Cu686  Cu687   2.707   .     S
Cu686  O708    1.943   .     S
Cu686  O706    1.956   .     S
Cu686  O712    1.926   .     S
Cu686  O710    1.951   .     S
Cu686  N705    2.034   .     S
Cu687  O709    1.926   .     S
Cu687  N704    2.034   .     S
Cu687  O713    1.943   .     S
Cu687  O707    1.951   .     S
Cu687  O711    1.956   .     S
H693   C729    1.113   .     S
H695   C729    1.110   .     S
H696   C821    1.088   .     S
H702   C725    1.083   .     S
N704   H748    1.029   .     S
N704   N756    1.283   .     S
C715   O758    1.293   .     A
C715   O757    1.295   .     A
C715   C717    1.426   .     S
C716   C730    1.424   .     A
C716   C718    1.481   .     S
C716   C724    1.416   .     A
C717   C872    1.328   .     S
C717   H893    1.082   .     S
C718   O760    1.306   .     A
C718   O759    1.307   .     A
C719   C720    1.429   .     S
C720   O762    1.298   .     A
C720   O761    1.291   .     A
C721   O763    1.301   .     A
C721   C723    1.463   .     S
C721   O764    1.305   .     A
C722   C736    1.394   .     A
C722   H648    1.084   1_655 S
C723   C735    1.396   .     A
C723   C736    1.399   .     A
C724   O765    1.384   .     S
C724   C725    1.393   .     A
C725   C268    1.387   1_556 S
C726   C730    1.418   .     A
C726   C268    1.415   1_556 S
C726   C272    1.424   1_556 S
C727   H752    1.077   .     S
C728   H743    1.096   .     S
C728   H742    1.102   .     S
C728   H639    1.108   1_655 S
C728   N654    1.440   1_655 S
C729   H745    1.114   .     S
C729   O765    1.411   .     S
C730   C734    1.414   .     A
C731   C735    1.402   .     A
C732   C733    1.392   .     A
C732   C272    1.419   1_556 S
C732   C263    1.405   1_556 S
C733   C734    1.388   .     A
C733   H749    1.084   .     S
C734   H754    1.080   .     S
C735   H751    1.077   .     S
C736   H739    1.083   .     S
Cu737  Cu738   2.707   .     S
Cu737  O759    1.943   .     S
Cu737  O757    1.956   .     S
Cu737  O763    1.926   .     S
Cu737  O761    1.951   .     S
Cu737  N756    2.034   .     S
Cu738  O760    1.926   .     S
Cu738  N755    2.034   .     S
Cu738  O764    1.943   .     S
Cu738  O758    1.951   .     S
Cu738  O762    1.956   .     S
H744   C627    1.113   1_655 S
H746   C627    1.110   1_655 S
H747   C872    1.088   .     S
H753   C623    1.083   1_655 S
N755   H646    1.029   1_655 S
N755   N654    1.283   1_655 S
C766   O809    1.293   .     A
C766   O808    1.295   .     A
C766   C768    1.426   .     S
C767   C781    1.424   .     A
C767   C769    1.481   .     S
C767   C775    1.416   .     A
C768   C464    1.328   1_565 S
C768   H485    1.082   1_565 S
C769   O811    1.306   .     A
C769   O810    1.307   .     A
C770   C771    1.429   .     S
C771   O813    1.298   .     A
C771   O812    1.291   .     A
C772   O814    1.301   .     A
C772   C774    1.463   .     S
C772   O815    1.305   .     A
C773   C787    1.394   .     A
C773   H852    1.084   .     S
C774   C786    1.396   .     A
C774   C787    1.399   .     A
C775   O816    1.384   .     S
C775   C776    1.393   .     A
C776   C319    1.387   1_556 S
C776   H906    1.083   1_455 S
C777   C781    1.418   .     A
C777   C319    1.415   1_556 S
C777   C323    1.424   1_556 S
C778   H803    1.077   .     S
C779   H794    1.096   .     S
C779   H793    1.102   .     S
C779   H843    1.108   .     S
C779   N858    1.440   .     S
C780   H796    1.114   .     S
C780   O816    1.411   .     S
C780   H897    1.113   1_455 S
C780   H899    1.110   1_455 S
C781   C785    1.414   .     A
C782   C786    1.402   .     A
C783   C784    1.392   .     A
C783   C323    1.419   1_556 S
C783   C314    1.405   1_556 S
C784   C785    1.388   .     A
C784   H800    1.084   .     S
C785   H805    1.080   .     S
C786   H802    1.077   .     S
C787   H790    1.083   .     S
Cu788  Cu789   2.707   .     S
Cu788  O810    1.943   .     S
Cu788  O808    1.956   .     S
Cu788  O814    1.926   .     S
Cu788  O812    1.951   .     S
Cu788  N807    2.034   .     S
Cu789  O811    1.926   .     S
Cu789  N806    2.034   .     S
Cu789  O815    1.943   .     S
Cu789  O809    1.951   .     S
Cu789  O813    1.956   .     S
H792   C881    1.108   1_455 S
H795   C831    1.113   .     S
H797   C831    1.110   .     S
H798   C464    1.088   1_565 S
H799   N908    1.029   1_455 S
H801   C875    1.084   1_455 S
H804   C827    1.083   .     S
N806   H850    1.029   .     S
N806   N858    1.283   .     S
N807   N908    1.283   1_455 S
N807   C881    1.440   1_455 S
C817   O860    1.293   .     A
C817   O859    1.295   .     A
C817   C819    1.426   .     S
C818   C832    1.424   .     A
C818   C820    1.481   .     S
C818   C826    1.416   .     A
C819   C515    1.328   1_565 S
C819   H536    1.082   1_565 S
C820   O862    1.306   .     A
C820   O861    1.307   .     A
C821   C822    1.429   .     S
C822   O864    1.298   .     A
C822   O863    1.291   .     A
C823   O865    1.301   .     A
C823   C825    1.463   .     S
C823   O866    1.305   .     A
C824   C838    1.394   .     A
C824   H903    1.084   .     S
C825   C837    1.396   .     A
C825   C838    1.399   .     A
C826   O867    1.384   .     S
C826   C827    1.393   .     A
C827   C370    1.387   1_556 S
C828   C832    1.418   .     A
C828   C370    1.415   1_556 S
C828   C374    1.424   1_556 S
C829   H854    1.077   .     S
C830   H845    1.096   .     S
C830   H844    1.102   .     S
C830   H894    1.108   .     S
C830   N909    1.440   .     S
C831   H847    1.114   .     S
C831   O867    1.411   .     S
C832   C836    1.414   .     A
C833   C837    1.402   .     A
C834   C835    1.392   .     A
C834   C374    1.419   1_556 S
C834   C365    1.405   1_556 S
C835   C836    1.388   .     A
C835   H851    1.084   .     S
C836   H856    1.080   .     S
C837   H853    1.077   .     S
C838   H841    1.083   .     S
Cu839  Cu840   2.707   .     S
Cu839  O861    1.943   .     S
Cu839  O859    1.956   .     S
Cu839  O865    1.926   .     S
Cu839  O863    1.951   .     S
Cu839  N858    2.034   .     S
Cu840  O862    1.926   .     S
Cu840  N857    2.034   .     S
Cu840  O866    1.943   .     S
Cu840  O860    1.951   .     S
Cu840  O864    1.956   .     S
H846   C882    1.113   .     S
H848   C882    1.110   .     S
H849   C515    1.088   1_565 S
H855   C878    1.083   .     S
N857   H901    1.029   .     S
N857   N909    1.283   .     S
C868   O911    1.293   .     A
C868   O910    1.295   .     A
C868   C870    1.426   .     S
C869   C883    1.424   .     A
C869   C871    1.481   .     S
C869   C877    1.416   .     A
C870   C566    1.328   1_565 S
C870   H587    1.082   1_565 S
C871   O913    1.306   .     A
C871   O912    1.307   .     A
C872   C873    1.429   .     S
C873   O915    1.298   .     A
C873   O914    1.291   .     A
C874   O916    1.301   .     A
C874   C876    1.463   .     S
C874   O917    1.305   .     A
C875   C889    1.394   .     A
C875   H801    1.084   1_655 S
C876   C888    1.396   .     A
C876   C889    1.399   .     A
C877   O918    1.384   .     S
C877   C878    1.393   .     A
C878   C421    1.387   1_556 S
C879   C883    1.418   .     A
C879   C421    1.415   1_556 S
C879   C425    1.424   1_556 S
C880   H905    1.077   .     S
C881   H896    1.096   .     S
C881   H895    1.102   .     S
C881   H792    1.108   1_655 S
C881   N807    1.440   1_655 S
C882   H898    1.114   .     S
C882   O918    1.411   .     S
C883   C887    1.414   .     A
C884   C888    1.402   .     A
C885   C886    1.392   .     A
C885   C425    1.419   1_556 S
C885   C416    1.405   1_556 S
C886   C887    1.388   .     A
C886   H902    1.084   .     S
C887   H907    1.080   .     S
C888   H904    1.077   .     S
C889   H892    1.083   .     S
Cu890  Cu891   2.707   .     S
Cu890  O912    1.943   .     S
Cu890  O910    1.956   .     S
Cu890  O916    1.926   .     S
Cu890  O914    1.951   .     S
Cu890  N909    2.034   .     S
Cu891  O913    1.926   .     S
Cu891  N908    2.034   .     S
Cu891  O917    1.943   .     S
Cu891  O911    1.951   .     S
Cu891  O915    1.956   .     S
H897   C780    1.113   1_655 S
H899   C780    1.110   1_655 S
H900   C566    1.088   1_565 S
H906   C776    1.083   1_655 S
N908   H799    1.029   1_655 S
N908   N807    1.283   1_655 S
