data_str_m1_o5_o17_pcu_sym.57
_audit_creation_date              2020-01-03
_audit_creation_method            'Materials Studio'
_symmetry_space_group_name_H-M    'P1'
_symmetry_Int_Tables_number       1
_symmetry_cell_setting            triclinic
loop_
_symmetry_equiv_pos_as_xyz
  x,y,z
_cell_length_a                    31.7617
_cell_length_b                    31.7616
_cell_length_c                    34.5623
_cell_angle_alpha                 90.0002
_cell_angle_beta                  90.0002
_cell_angle_gamma                 89.9866
loop_
_atom_site_label
_atom_site_type_symbol
_atom_site_fract_x
_atom_site_fract_y
_atom_site_fract_z
_atom_site_U_iso_or_equiv
_atom_site_adp_type
_atom_site_occupancy
C1     C     0.25000  -0.00000   0.35606   0.00000  Uiso   1.00
C2     C     0.33001   0.41999   0.75000   0.00000  Uiso   1.00
C3     C     0.48945   0.32652   0.02029   0.00000  Uiso   1.00
C4     C     0.17355   0.01089   0.97971   0.00000  Uiso   1.00
C5     C     0.32645   0.48911   0.02029   0.00000  Uiso   1.00
C6     C     0.48945   0.32652   0.97971   0.00000  Uiso   1.00
C7     C     0.01055   0.17348   0.02029   0.00000  Uiso   1.00
C8     C     0.41999   0.16999   0.25000   0.00000  Uiso   1.00
C9     C     0.08001   0.33001   0.75000   0.00000  Uiso   1.00
C10    C     0.33001   0.41999   0.25000   0.00000  Uiso   1.00
C11    C     0.16999   0.08001   0.75000   0.00000  Uiso   1.00
C12    C     0.08001   0.33001   0.25000   0.00000  Uiso   1.00
C13    C     0.41999   0.16999   0.75000   0.00000  Uiso   1.00
C14    C     0.16999   0.41999   0.75000   0.00000  Uiso   1.00
C15    C     0.33001   0.08001   0.25000   0.00000  Uiso   1.00
C16    C     0.41999   0.33001   0.75000   0.00000  Uiso   1.00
C17    C     0.25000  -0.00000   0.64394   0.00000  Uiso   1.00
C18    C     0.08001   0.16999   0.25000   0.00000  Uiso   1.00
C19    C     0.33001   0.08001   0.75000   0.00000  Uiso   1.00
C20    C     0.16999   0.41999   0.25000   0.00000  Uiso   1.00
C21    C     0.08001   0.16999   0.75000   0.00000  Uiso   1.00
C22    C     0.41999   0.33001   0.25000   0.00000  Uiso   1.00
C23    C     0.13833   0.38833   0.25000   0.00000  Uiso   1.00
C24    C     0.36167   0.11167   0.75000   0.00000  Uiso   1.00
C25    C     0.11167   0.13834   0.25000   0.00000  Uiso   1.00
C26    C     0.38834   0.36166   0.75000   0.00000  Uiso   1.00
C27    C     0.36167   0.11167   0.25000   0.00000  Uiso   1.00
C28    C     0.00000   0.25000   0.35606   0.00000  Uiso   1.00
C29    C     0.13833   0.38833   0.75000   0.00000  Uiso   1.00
C30    C     0.38834   0.36166   0.25000   0.00000  Uiso   1.00
C31    C     0.11167   0.13834   0.75000   0.00000  Uiso   1.00
C32    C     0.13834   0.11167   0.75000   0.00000  Uiso   1.00
C33    C     0.36166   0.38833   0.25000   0.00000  Uiso   1.00
C34    C     0.11167   0.36167   0.75000   0.00000  Uiso   1.00
C35    C     0.38833   0.13833   0.25000   0.00000  Uiso   1.00
C36    C     0.36166   0.38833   0.75000   0.00000  Uiso   1.00
C37    C     0.13834   0.11167   0.25000   0.00000  Uiso   1.00
C38    C     0.38833   0.13833   0.75000   0.00000  Uiso   1.00
C39    C     0.00000   0.25000   0.64394   0.00000  Uiso   1.00
C40    C     0.11167   0.36167   0.25000   0.00000  Uiso   1.00
C41    C     0.46210   0.25374   0.41874   0.00000  Uiso   1.00
C42    C     0.03790   0.24626   0.58127   0.00000  Uiso   1.00
C43    C     0.24623   0.03790   0.41874   0.00000  Uiso   1.00
C44    C     0.25377   0.46210   0.58127   0.00000  Uiso   1.00
C45    C     0.03790   0.24625   0.41874   0.00000  Uiso   1.00
C46    C     0.46210   0.25375   0.58126   0.00000  Uiso   1.00
C47    C     0.25377   0.46210   0.41874   0.00000  Uiso   1.00
C48    C     0.24623   0.03790   0.58127   0.00000  Uiso   1.00
C49    C     0.21227   0.00518   0.91873   0.00000  Uiso   1.00
C50    C     0.00000   0.25000   0.85606   0.00000  Uiso   1.00
C51    C     0.28773   0.49482   0.08127   0.00000  Uiso   1.00
C52    C     0.49498   0.28776   0.91873   0.00000  Uiso   1.00
C53    C     0.00502   0.21224   0.08127   0.00000  Uiso   1.00
C54    C     0.28773   0.49483   0.91873   0.00000  Uiso   1.00
C55    C     0.21227   0.00517   0.08127   0.00000  Uiso   1.00
C56    C     0.00502   0.21224   0.91873   0.00000  Uiso   1.00
C57    C     0.49498   0.28776   0.08127   0.00000  Uiso   1.00
C58    C     0.00000   0.25000   0.39851   0.00000  Uiso   1.00
C59    C     0.00000   0.25000   0.60149   0.00000  Uiso   1.00
C60    C     0.25000   0.00000   0.39851   0.00000  Uiso   1.00
C61    C     0.00000   0.25000   0.14394   0.00000  Uiso   1.00
C62    C     0.25000  -0.00000   0.60149   0.00000  Uiso   1.00
C63    C     0.25000   0.00000   0.89851   0.00000  Uiso   1.00
C64    C     0.25000  -0.00000   0.10149   0.00000  Uiso   1.00
C65    C     0.00000   0.25000   0.89851   0.00000  Uiso   1.00
C66    C    -0.00000   0.25000   0.10149   0.00000  Uiso   1.00
C67    C     0.03854   0.24611   0.45927   0.00000  Uiso   1.00
C68    C     0.46146   0.25389   0.54073   0.00000  Uiso   1.00
C69    C     0.25392   0.46146   0.45927   0.00000  Uiso   1.00
C70    C     0.24608   0.03854   0.54073   0.00000  Uiso   1.00
C71    C     0.46146   0.25389   0.45927   0.00000  Uiso   1.00
C72    C     0.25000   0.00000   0.85606   0.00000  Uiso   1.00
C73    C     0.03854   0.24611   0.54073   0.00000  Uiso   1.00
C74    C     0.24608   0.03854   0.45927   0.00000  Uiso   1.00
C75    C     0.25392   0.46146   0.54073   0.00000  Uiso   1.00
C76    C     0.28836   0.49462   0.95927   0.00000  Uiso   1.00
C77    C     0.21164   0.00538   0.04074   0.00000  Uiso   1.00
C78    C     0.00522   0.21161   0.95927   0.00000  Uiso   1.00
C79    C     0.49478   0.28839   0.04074   0.00000  Uiso   1.00
C80    C     0.21164   0.00538   0.95927   0.00000  Uiso   1.00
C81    C     0.28836   0.49462   0.04074   0.00000  Uiso   1.00
C82    C     0.49478   0.28839   0.95927   0.00000  Uiso   1.00
C83    C     0.25000  -0.00000   0.14394   0.00000  Uiso   1.00
C84    C     0.00522   0.21161   0.04074   0.00000  Uiso   1.00
C85    C     0.00000   0.25000   0.47965   0.00000  Uiso   1.00
C86    C     0.00000   0.25000   0.52035   0.00000  Uiso   1.00
C87    C     0.25000  -0.00000   0.47965   0.00000  Uiso   1.00
C88    C     0.25000   0.00000   0.52035   0.00000  Uiso   1.00
C89    C     0.25000  -0.00000   0.97965   0.00000  Uiso   1.00
C90    C     0.25000  -0.00000   0.02035   0.00000  Uiso   1.00
C91    C     0.00000   0.25000   0.97965   0.00000  Uiso   1.00
C92    C    -0.00000   0.25000   0.02035   0.00000  Uiso   1.00
C93    C     0.07683   0.24212   0.47971   0.00000  Uiso   1.00
C94    C     0.16999   0.08001   0.25000   0.00000  Uiso   1.00
C95    C     0.42317   0.25788   0.52029   0.00000  Uiso   1.00
C96    C     0.25792   0.42317   0.47971   0.00000  Uiso   1.00
C97    C     0.24208   0.07683   0.52029   0.00000  Uiso   1.00
C98    C     0.42317   0.25788   0.47971   0.00000  Uiso   1.00
C99    C     0.07683   0.24212   0.52029   0.00000  Uiso   1.00
C100   C     0.24208   0.07683   0.47971   0.00000  Uiso   1.00
C101   C     0.25792   0.42317   0.52029   0.00000  Uiso   1.00
C102   C     0.32645   0.48911   0.97971   0.00000  Uiso   1.00
C103   C     0.17355   0.01089   0.02029   0.00000  Uiso   1.00
C104   C     0.01055   0.17348   0.97971   0.00000  Uiso   1.00
Cl105  Cl    0.12546   0.23699   0.45496   0.00000  Uiso   1.00
Cl106  Cl    0.12517   0.01799   0.04504   0.00000  Uiso   1.00
Cl107  Cl    0.01742   0.12506   0.95496   0.00000  Uiso   1.00
Cl108  Cl    0.48258   0.37494   0.04504   0.00000  Uiso   1.00
Cl109  Cl    0.12517   0.01799   0.95496   0.00000  Uiso   1.00
Cl110  Cl    0.37483   0.48201   0.04504   0.00000  Uiso   1.00
Cl111  Cl    0.48259   0.37494   0.95496   0.00000  Uiso   1.00
Cl112  Cl    0.01741   0.12506   0.04504   0.00000  Uiso   1.00
Cl113  Cl    0.37454   0.26301   0.54504   0.00000  Uiso   1.00
Cl114  Cl    0.26308   0.37454   0.45496   0.00000  Uiso   1.00
Cl115  Cl    0.23692   0.12546   0.54504   0.00000  Uiso   1.00
Cl116  Cl    0.37454   0.26301   0.45496   0.00000  Uiso   1.00
Cl117  Cl    0.12546   0.23699   0.54504   0.00000  Uiso   1.00
Cl118  Cl    0.23692   0.12546   0.45496   0.00000  Uiso   1.00
Cl119  Cl    0.26308   0.37454   0.54504   0.00000  Uiso   1.00
Cl120  Cl    0.37483   0.48201   0.95496   0.00000  Uiso   1.00
H121   H     0.43318   0.25669   0.40246   0.00000  Uiso   1.00
H122   H     0.31651   0.49076   0.09756   0.00000  Uiso   1.00
H123   H     0.49103   0.31656   0.90244   0.00000  Uiso   1.00
H124   H     0.00897   0.18344   0.09756   0.00000  Uiso   1.00
H125   H     0.31651   0.49076   0.90244   0.00000  Uiso   1.00
H126   H     0.18349   0.00924   0.09756   0.00000  Uiso   1.00
H127   H     0.00897   0.18345   0.90244   0.00000  Uiso   1.00
H128   H     0.49103   0.31655   0.09756   0.00000  Uiso   1.00
H129   H     0.06682   0.24331   0.59755   0.00000  Uiso   1.00
H130   H     0.24327   0.06682   0.40246   0.00000  Uiso   1.00
H131   H     0.25673   0.43318   0.59755   0.00000  Uiso   1.00
H132   H     0.06682   0.24331   0.40246   0.00000  Uiso   1.00
H133   H     0.43318   0.25669   0.59755   0.00000  Uiso   1.00
H134   H     0.25673   0.43318   0.40245   0.00000  Uiso   1.00
H135   H     0.24327   0.06682   0.59755   0.00000  Uiso   1.00
H136   H     0.18349   0.00924   0.90244   0.00000  Uiso   1.00
O137   O     0.25000   0.00000   0.25000   0.00000  Uiso   1.00
O138   O     0.25000   0.46538   0.66251   0.00000  Uiso   1.00
O139   O     0.46539   0.25000   0.33749   0.00000  Uiso   1.00
O140   O     0.03462   0.25000   0.66251   0.00000  Uiso   1.00
O141   O     0.00000   0.21539   0.83749   0.00000  Uiso   1.00
O142   O     0.00000   0.28461   0.16251   0.00000  Uiso   1.00
O143   O     0.28462  -0.00000   0.83749   0.00000  Uiso   1.00
O144   O     0.21539   0.00000   0.16251   0.00000  Uiso   1.00
O145   O     0.00000   0.28462   0.83749   0.00000  Uiso   1.00
O146   O     0.00000   0.21539   0.16251   0.00000  Uiso   1.00
O147   O     0.21539  -0.00000   0.83749   0.00000  Uiso   1.00
O148   O     0.25000  -0.00000   0.75000   0.00000  Uiso   1.00
O149   O     0.28462   0.00000   0.16251   0.00000  Uiso   1.00
O150   O     0.20127   0.08332   0.27298   0.00000  Uiso   1.00
O151   O     0.29874   0.41668   0.72702   0.00000  Uiso   1.00
O152   O     0.41668   0.20127   0.27298   0.00000  Uiso   1.00
O153   O     0.08332   0.29873   0.72702   0.00000  Uiso   1.00
O154   O     0.29874   0.41668   0.27298   0.00000  Uiso   1.00
O155   O     0.20127   0.08332   0.72702   0.00000  Uiso   1.00
O156   O     0.08332   0.29873   0.27298   0.00000  Uiso   1.00
O157   O     0.41668   0.20127   0.72702   0.00000  Uiso   1.00
O158   O     0.20127   0.41668   0.72702   0.00000  Uiso   1.00
O159   O     0.00000   0.25000   0.25000   0.00000  Uiso   1.00
O160   O     0.29874   0.08332   0.27298   0.00000  Uiso   1.00
O161   O     0.41668   0.29874   0.72702   0.00000  Uiso   1.00
O162   O     0.08332   0.20126   0.27298   0.00000  Uiso   1.00
O163   O     0.29874   0.08332   0.72702   0.00000  Uiso   1.00
O164   O     0.20127   0.41668   0.27298   0.00000  Uiso   1.00
O165   O     0.08332   0.20126   0.72702   0.00000  Uiso   1.00
O166   O     0.41668   0.29874   0.27298   0.00000  Uiso   1.00
O167   O     0.45127   0.33332   0.77298   0.00000  Uiso   1.00
O168   O     0.04874   0.16668   0.22702   0.00000  Uiso   1.00
O169   O     0.16668   0.45126   0.77298   0.00000  Uiso   1.00
O170   O     0.00000   0.25000   0.75000   0.00000  Uiso   1.00
O171   O     0.33332   0.04874   0.22702   0.00000  Uiso   1.00
O172   O     0.04874   0.16668   0.77298   0.00000  Uiso   1.00
O173   O     0.45127   0.33332   0.22702   0.00000  Uiso   1.00
O174   O     0.33332   0.04874   0.77298   0.00000  Uiso   1.00
O175   O     0.16668   0.45126   0.22702   0.00000  Uiso   1.00
O176   O     0.45127   0.16668   0.22702   0.00000  Uiso   1.00
O177   O     0.04874   0.33332   0.77298   0.00000  Uiso   1.00
O178   O     0.16668   0.04874   0.22702   0.00000  Uiso   1.00
O179   O     0.33332   0.45126   0.77298   0.00000  Uiso   1.00
O180   O     0.04874   0.33332   0.22702   0.00000  Uiso   1.00
O181   O     0.25000   0.46538   0.33749   0.00000  Uiso   1.00
O182   O     0.45127   0.16668   0.77298   0.00000  Uiso   1.00
O183   O     0.33332   0.45126   0.22702   0.00000  Uiso   1.00
O184   O     0.16668   0.04874   0.77298   0.00000  Uiso   1.00
O185   O     0.25000   0.03462   0.66251   0.00000  Uiso   1.00
O186   O     0.03462   0.25000   0.33749   0.00000  Uiso   1.00
O187   O     0.46539   0.25000   0.66251   0.00000  Uiso   1.00
O188   O     0.25000   0.03462   0.33749   0.00000  Uiso   1.00
Zn189  Zn    0.20053  -0.00000   0.21730   0.00000  Uiso   1.00
Zn190  Zn    0.04948   0.25000   0.28270   0.00000  Uiso   1.00
Zn191  Zn    0.25000   0.45052   0.71730   0.00000  Uiso   1.00
Zn192  Zn    0.25000   0.04948   0.28270   0.00000  Uiso   1.00
Zn193  Zn    0.04948   0.25000   0.71730   0.00000  Uiso   1.00
Zn194  Zn    0.45053   0.25000   0.28270   0.00000  Uiso   1.00
Zn195  Zn    0.25000   0.04948   0.71730   0.00000  Uiso   1.00
Zn196  Zn    0.25000   0.45052   0.28270   0.00000  Uiso   1.00
Zn197  Zn    0.29948  -0.00000   0.78270   0.00000  Uiso   1.00
Zn198  Zn    0.00000   0.20053   0.21730   0.00000  Uiso   1.00
Zn199  Zn    0.00000   0.29948   0.78270   0.00000  Uiso   1.00
Zn200  Zn    0.29948  -0.00000   0.21730   0.00000  Uiso   1.00
Zn201  Zn    0.20053  -0.00000   0.78270   0.00000  Uiso   1.00
Zn202  Zn    0.00000   0.29948   0.21730   0.00000  Uiso   1.00
Zn203  Zn    0.00000   0.20053   0.78270   0.00000  Uiso   1.00
Zn204  Zn    0.45053   0.25000   0.71730   0.00000  Uiso   1.00
C205   C     0.75000  -0.00000   0.35606   0.00000  Uiso   1.00
C206   C     0.83001   0.41999   0.75000   0.00000  Uiso   1.00
C207   C     0.98945   0.32652   0.02029   0.00000  Uiso   1.00
C208   C     0.67355   0.01089   0.97971   0.00000  Uiso   1.00
C209   C     0.82645   0.48911   0.02029   0.00000  Uiso   1.00
C210   C     0.98945   0.32652   0.97971   0.00000  Uiso   1.00
C211   C     0.51055   0.17348   0.02029   0.00000  Uiso   1.00
C212   C     0.91999   0.16999   0.25000   0.00000  Uiso   1.00
C213   C     0.58001   0.33001   0.75000   0.00000  Uiso   1.00
C214   C     0.83001   0.41999   0.25000   0.00000  Uiso   1.00
C215   C     0.66999   0.08001   0.75000   0.00000  Uiso   1.00
C216   C     0.58001   0.33001   0.25000   0.00000  Uiso   1.00
C217   C     0.91999   0.16999   0.75000   0.00000  Uiso   1.00
C218   C     0.66999   0.41999   0.75000   0.00000  Uiso   1.00
C219   C     0.83001   0.08001   0.25000   0.00000  Uiso   1.00
C220   C     0.91999   0.33001   0.75000   0.00000  Uiso   1.00
C221   C     0.75000  -0.00000   0.64394   0.00000  Uiso   1.00
C222   C     0.58001   0.16999   0.25000   0.00000  Uiso   1.00
C223   C     0.83001   0.08001   0.75000   0.00000  Uiso   1.00
C224   C     0.66999   0.41999   0.25000   0.00000  Uiso   1.00
C225   C     0.58001   0.16999   0.75000   0.00000  Uiso   1.00
C226   C     0.91999   0.33001   0.25000   0.00000  Uiso   1.00
C227   C     0.63833   0.38833   0.25000   0.00000  Uiso   1.00
C228   C     0.86167   0.11167   0.75000   0.00000  Uiso   1.00
C229   C     0.61167   0.13834   0.25000   0.00000  Uiso   1.00
C230   C     0.88834   0.36166   0.75000   0.00000  Uiso   1.00
C231   C     0.86167   0.11167   0.25000   0.00000  Uiso   1.00
C232   C     0.50000   0.25000   0.35606   0.00000  Uiso   1.00
C233   C     0.63833   0.38833   0.75000   0.00000  Uiso   1.00
C234   C     0.88834   0.36166   0.25000   0.00000  Uiso   1.00
C235   C     0.61167   0.13834   0.75000   0.00000  Uiso   1.00
C236   C     0.63834   0.11167   0.75000   0.00000  Uiso   1.00
C237   C     0.86166   0.38833   0.25000   0.00000  Uiso   1.00
C238   C     0.61167   0.36167   0.75000   0.00000  Uiso   1.00
C239   C     0.88833   0.13833   0.25000   0.00000  Uiso   1.00
C240   C     0.86166   0.38833   0.75000   0.00000  Uiso   1.00
C241   C     0.63834   0.11167   0.25000   0.00000  Uiso   1.00
C242   C     0.88833   0.13833   0.75000   0.00000  Uiso   1.00
C243   C     0.50000   0.25000   0.64394   0.00000  Uiso   1.00
C244   C     0.61167   0.36167   0.25000   0.00000  Uiso   1.00
C245   C     0.96210   0.25374   0.41874   0.00000  Uiso   1.00
C246   C     0.53790   0.24626   0.58127   0.00000  Uiso   1.00
C247   C     0.74623   0.03790   0.41874   0.00000  Uiso   1.00
C248   C     0.75377   0.46210   0.58127   0.00000  Uiso   1.00
C249   C     0.53790   0.24625   0.41874   0.00000  Uiso   1.00
C250   C     0.96210   0.25375   0.58126   0.00000  Uiso   1.00
C251   C     0.75377   0.46210   0.41874   0.00000  Uiso   1.00
C252   C     0.74623   0.03790   0.58127   0.00000  Uiso   1.00
C253   C     0.71227   0.00518   0.91873   0.00000  Uiso   1.00
C254   C     0.50000   0.25000   0.85606   0.00000  Uiso   1.00
C255   C     0.78773   0.49482   0.08127   0.00000  Uiso   1.00
C256   C     0.99498   0.28776   0.91873   0.00000  Uiso   1.00
C257   C     0.50502   0.21224   0.08127   0.00000  Uiso   1.00
C258   C     0.78773   0.49483   0.91873   0.00000  Uiso   1.00
C259   C     0.71227   0.00517   0.08127   0.00000  Uiso   1.00
C260   C     0.50502   0.21224   0.91873   0.00000  Uiso   1.00
C261   C     0.99498   0.28776   0.08127   0.00000  Uiso   1.00
C262   C     0.50000   0.25000   0.39851   0.00000  Uiso   1.00
C263   C     0.50000   0.25000   0.60149   0.00000  Uiso   1.00
C264   C     0.75000   0.00000   0.39851   0.00000  Uiso   1.00
C265   C     0.50000   0.25000   0.14394   0.00000  Uiso   1.00
C266   C     0.75000  -0.00000   0.60149   0.00000  Uiso   1.00
C267   C     0.75000   0.00000   0.89851   0.00000  Uiso   1.00
C268   C     0.75000  -0.00000   0.10149   0.00000  Uiso   1.00
C269   C     0.50000   0.25000   0.89851   0.00000  Uiso   1.00
C270   C     0.50000   0.25000   0.10149   0.00000  Uiso   1.00
C271   C     0.53854   0.24611   0.45927   0.00000  Uiso   1.00
C272   C     0.96146   0.25389   0.54073   0.00000  Uiso   1.00
C273   C     0.75392   0.46146   0.45927   0.00000  Uiso   1.00
C274   C     0.74608   0.03854   0.54073   0.00000  Uiso   1.00
C275   C     0.96146   0.25389   0.45927   0.00000  Uiso   1.00
C276   C     0.75000   0.00000   0.85606   0.00000  Uiso   1.00
C277   C     0.53854   0.24611   0.54073   0.00000  Uiso   1.00
C278   C     0.74608   0.03854   0.45927   0.00000  Uiso   1.00
C279   C     0.75392   0.46146   0.54073   0.00000  Uiso   1.00
C280   C     0.78836   0.49462   0.95927   0.00000  Uiso   1.00
C281   C     0.71164   0.00538   0.04074   0.00000  Uiso   1.00
C282   C     0.50522   0.21161   0.95927   0.00000  Uiso   1.00
C283   C     0.99478   0.28839   0.04074   0.00000  Uiso   1.00
C284   C     0.71164   0.00538   0.95927   0.00000  Uiso   1.00
C285   C     0.78836   0.49462   0.04074   0.00000  Uiso   1.00
C286   C     0.99478   0.28839   0.95927   0.00000  Uiso   1.00
C287   C     0.75000  -0.00000   0.14394   0.00000  Uiso   1.00
C288   C     0.50522   0.21161   0.04074   0.00000  Uiso   1.00
C289   C     0.50000   0.25000   0.47965   0.00000  Uiso   1.00
C290   C     0.50000   0.25000   0.52035   0.00000  Uiso   1.00
C291   C     0.75000  -0.00000   0.47965   0.00000  Uiso   1.00
C292   C     0.75000   0.00000   0.52035   0.00000  Uiso   1.00
C293   C     0.75000  -0.00000   0.97965   0.00000  Uiso   1.00
C294   C     0.75000  -0.00000   0.02035   0.00000  Uiso   1.00
C295   C     0.50000   0.25000   0.97965   0.00000  Uiso   1.00
C296   C     0.50000   0.25000   0.02035   0.00000  Uiso   1.00
C297   C     0.57683   0.24212   0.47971   0.00000  Uiso   1.00
C298   C     0.66999   0.08001   0.25000   0.00000  Uiso   1.00
C299   C     0.92317   0.25788   0.52029   0.00000  Uiso   1.00
C300   C     0.75792   0.42317   0.47971   0.00000  Uiso   1.00
C301   C     0.74208   0.07683   0.52029   0.00000  Uiso   1.00
C302   C     0.92317   0.25788   0.47971   0.00000  Uiso   1.00
C303   C     0.57683   0.24212   0.52029   0.00000  Uiso   1.00
C304   C     0.74208   0.07683   0.47971   0.00000  Uiso   1.00
C305   C     0.75792   0.42317   0.52029   0.00000  Uiso   1.00
C306   C     0.82645   0.48911   0.97971   0.00000  Uiso   1.00
C307   C     0.67355   0.01089   0.02029   0.00000  Uiso   1.00
C308   C     0.51055   0.17348   0.97971   0.00000  Uiso   1.00
Cl309  Cl    0.62546   0.23699   0.45496   0.00000  Uiso   1.00
Cl310  Cl    0.62517   0.01799   0.04504   0.00000  Uiso   1.00
Cl311  Cl    0.51742   0.12506   0.95496   0.00000  Uiso   1.00
Cl312  Cl    0.98258   0.37494   0.04504   0.00000  Uiso   1.00
Cl313  Cl    0.62517   0.01799   0.95496   0.00000  Uiso   1.00
Cl314  Cl    0.87483   0.48201   0.04504   0.00000  Uiso   1.00
Cl315  Cl    0.98259   0.37494   0.95496   0.00000  Uiso   1.00
Cl316  Cl    0.51741   0.12506   0.04504   0.00000  Uiso   1.00
Cl317  Cl    0.87454   0.26301   0.54504   0.00000  Uiso   1.00
Cl318  Cl    0.76308   0.37454   0.45496   0.00000  Uiso   1.00
Cl319  Cl    0.73692   0.12546   0.54504   0.00000  Uiso   1.00
Cl320  Cl    0.87454   0.26301   0.45496   0.00000  Uiso   1.00
Cl321  Cl    0.62546   0.23699   0.54504   0.00000  Uiso   1.00
Cl322  Cl    0.73692   0.12546   0.45496   0.00000  Uiso   1.00
Cl323  Cl    0.76308   0.37454   0.54504   0.00000  Uiso   1.00
Cl324  Cl    0.87483   0.48201   0.95496   0.00000  Uiso   1.00
H325   H     0.93318   0.25669   0.40246   0.00000  Uiso   1.00
H326   H     0.81651   0.49076   0.09756   0.00000  Uiso   1.00
H327   H     0.99103   0.31656   0.90244   0.00000  Uiso   1.00
H328   H     0.50897   0.18344   0.09756   0.00000  Uiso   1.00
H329   H     0.81651   0.49076   0.90244   0.00000  Uiso   1.00
H330   H     0.68349   0.00924   0.09756   0.00000  Uiso   1.00
H331   H     0.50897   0.18345   0.90244   0.00000  Uiso   1.00
H332   H     0.99103   0.31655   0.09756   0.00000  Uiso   1.00
H333   H     0.56682   0.24331   0.59755   0.00000  Uiso   1.00
H334   H     0.74327   0.06682   0.40246   0.00000  Uiso   1.00
H335   H     0.75673   0.43318   0.59755   0.00000  Uiso   1.00
H336   H     0.56682   0.24331   0.40246   0.00000  Uiso   1.00
H337   H     0.93318   0.25669   0.59755   0.00000  Uiso   1.00
H338   H     0.75673   0.43318   0.40245   0.00000  Uiso   1.00
H339   H     0.74327   0.06682   0.59755   0.00000  Uiso   1.00
H340   H     0.68349   0.00924   0.90244   0.00000  Uiso   1.00
O341   O     0.75000   0.00000   0.25000   0.00000  Uiso   1.00
O342   O     0.75000   0.46538   0.66251   0.00000  Uiso   1.00
O343   O     0.96539   0.25000   0.33749   0.00000  Uiso   1.00
O344   O     0.53462   0.25000   0.66251   0.00000  Uiso   1.00
O345   O     0.50000   0.21539   0.83749   0.00000  Uiso   1.00
O346   O     0.50000   0.28461   0.16251   0.00000  Uiso   1.00
O347   O     0.78462  -0.00000   0.83749   0.00000  Uiso   1.00
O348   O     0.71539   0.00000   0.16251   0.00000  Uiso   1.00
O349   O     0.50000   0.28462   0.83749   0.00000  Uiso   1.00
O350   O     0.50000   0.21539   0.16251   0.00000  Uiso   1.00
O351   O     0.71539  -0.00000   0.83749   0.00000  Uiso   1.00
O352   O     0.75000  -0.00000   0.75000   0.00000  Uiso   1.00
O353   O     0.78462   0.00000   0.16251   0.00000  Uiso   1.00
O354   O     0.70127   0.08332   0.27298   0.00000  Uiso   1.00
O355   O     0.79874   0.41668   0.72702   0.00000  Uiso   1.00
O356   O     0.91668   0.20127   0.27298   0.00000  Uiso   1.00
O357   O     0.58332   0.29873   0.72702   0.00000  Uiso   1.00
O358   O     0.79874   0.41668   0.27298   0.00000  Uiso   1.00
O359   O     0.70127   0.08332   0.72702   0.00000  Uiso   1.00
O360   O     0.58332   0.29873   0.27298   0.00000  Uiso   1.00
O361   O     0.91668   0.20127   0.72702   0.00000  Uiso   1.00
O362   O     0.70127   0.41668   0.72702   0.00000  Uiso   1.00
O363   O     0.50000   0.25000   0.25000   0.00000  Uiso   1.00
O364   O     0.79874   0.08332   0.27298   0.00000  Uiso   1.00
O365   O     0.91668   0.29874   0.72702   0.00000  Uiso   1.00
O366   O     0.58332   0.20126   0.27298   0.00000  Uiso   1.00
O367   O     0.79874   0.08332   0.72702   0.00000  Uiso   1.00
O368   O     0.70127   0.41668   0.27298   0.00000  Uiso   1.00
O369   O     0.58332   0.20126   0.72702   0.00000  Uiso   1.00
O370   O     0.91668   0.29874   0.27298   0.00000  Uiso   1.00
O371   O     0.95127   0.33332   0.77298   0.00000  Uiso   1.00
O372   O     0.54874   0.16668   0.22702   0.00000  Uiso   1.00
O373   O     0.66668   0.45126   0.77298   0.00000  Uiso   1.00
O374   O     0.50000   0.25000   0.75000   0.00000  Uiso   1.00
O375   O     0.83332   0.04874   0.22702   0.00000  Uiso   1.00
O376   O     0.54874   0.16668   0.77298   0.00000  Uiso   1.00
O377   O     0.95127   0.33332   0.22702   0.00000  Uiso   1.00
O378   O     0.83332   0.04874   0.77298   0.00000  Uiso   1.00
O379   O     0.66668   0.45126   0.22702   0.00000  Uiso   1.00
O380   O     0.95127   0.16668   0.22702   0.00000  Uiso   1.00
O381   O     0.54874   0.33332   0.77298   0.00000  Uiso   1.00
O382   O     0.66668   0.04874   0.22702   0.00000  Uiso   1.00
O383   O     0.83332   0.45126   0.77298   0.00000  Uiso   1.00
O384   O     0.54874   0.33332   0.22702   0.00000  Uiso   1.00
O385   O     0.75000   0.46538   0.33749   0.00000  Uiso   1.00
O386   O     0.95127   0.16668   0.77298   0.00000  Uiso   1.00
O387   O     0.83332   0.45126   0.22702   0.00000  Uiso   1.00
O388   O     0.66668   0.04874   0.77298   0.00000  Uiso   1.00
O389   O     0.75000   0.03462   0.66251   0.00000  Uiso   1.00
O390   O     0.53462   0.25000   0.33749   0.00000  Uiso   1.00
O391   O     0.96539   0.25000   0.66251   0.00000  Uiso   1.00
O392   O     0.75000   0.03462   0.33749   0.00000  Uiso   1.00
Zn393  Zn    0.70053  -0.00000   0.21730   0.00000  Uiso   1.00
Zn394  Zn    0.54948   0.25000   0.28270   0.00000  Uiso   1.00
Zn395  Zn    0.75000   0.45052   0.71730   0.00000  Uiso   1.00
Zn396  Zn    0.75000   0.04948   0.28270   0.00000  Uiso   1.00
Zn397  Zn    0.54948   0.25000   0.71730   0.00000  Uiso   1.00
Zn398  Zn    0.95053   0.25000   0.28270   0.00000  Uiso   1.00
Zn399  Zn    0.75000   0.04948   0.71730   0.00000  Uiso   1.00
Zn400  Zn    0.75000   0.45052   0.28270   0.00000  Uiso   1.00
Zn401  Zn    0.79948  -0.00000   0.78270   0.00000  Uiso   1.00
Zn402  Zn    0.50000   0.20053   0.21730   0.00000  Uiso   1.00
Zn403  Zn    0.50000   0.29948   0.78270   0.00000  Uiso   1.00
Zn404  Zn    0.79948  -0.00000   0.21730   0.00000  Uiso   1.00
Zn405  Zn    0.70053  -0.00000   0.78270   0.00000  Uiso   1.00
Zn406  Zn    0.50000   0.29948   0.21730   0.00000  Uiso   1.00
Zn407  Zn    0.50000   0.20053   0.78270   0.00000  Uiso   1.00
Zn408  Zn    0.95053   0.25000   0.71730   0.00000  Uiso   1.00
C409   C     0.25000   0.50000   0.35606   0.00000  Uiso   1.00
C410   C     0.33001   0.91999   0.75000   0.00000  Uiso   1.00
C411   C     0.48945   0.82652   0.02029   0.00000  Uiso   1.00
C412   C     0.17355   0.51089   0.97971   0.00000  Uiso   1.00
C413   C     0.32645   0.98911   0.02029   0.00000  Uiso   1.00
C414   C     0.48945   0.82652   0.97971   0.00000  Uiso   1.00
C415   C     0.01055   0.67348   0.02029   0.00000  Uiso   1.00
C416   C     0.41999   0.66999   0.25000   0.00000  Uiso   1.00
C417   C     0.08001   0.83001   0.75000   0.00000  Uiso   1.00
C418   C     0.33001   0.91999   0.25000   0.00000  Uiso   1.00
C419   C     0.16999   0.58001   0.75000   0.00000  Uiso   1.00
C420   C     0.08001   0.83001   0.25000   0.00000  Uiso   1.00
C421   C     0.41999   0.66999   0.75000   0.00000  Uiso   1.00
C422   C     0.16999   0.91999   0.75000   0.00000  Uiso   1.00
C423   C     0.33001   0.58001   0.25000   0.00000  Uiso   1.00
C424   C     0.41999   0.83001   0.75000   0.00000  Uiso   1.00
C425   C     0.25000   0.50000   0.64394   0.00000  Uiso   1.00
C426   C     0.08001   0.66999   0.25000   0.00000  Uiso   1.00
C427   C     0.33001   0.58001   0.75000   0.00000  Uiso   1.00
C428   C     0.16999   0.91999   0.25000   0.00000  Uiso   1.00
C429   C     0.08001   0.66999   0.75000   0.00000  Uiso   1.00
C430   C     0.41999   0.83001   0.25000   0.00000  Uiso   1.00
C431   C     0.13833   0.88833   0.25000   0.00000  Uiso   1.00
C432   C     0.36167   0.61167   0.75000   0.00000  Uiso   1.00
C433   C     0.11167   0.63834   0.25000   0.00000  Uiso   1.00
C434   C     0.38834   0.86166   0.75000   0.00000  Uiso   1.00
C435   C     0.36167   0.61167   0.25000   0.00000  Uiso   1.00
C436   C     0.00000   0.75000   0.35606   0.00000  Uiso   1.00
C437   C     0.13833   0.88833   0.75000   0.00000  Uiso   1.00
C438   C     0.38834   0.86166   0.25000   0.00000  Uiso   1.00
C439   C     0.11167   0.63834   0.75000   0.00000  Uiso   1.00
C440   C     0.13834   0.61167   0.75000   0.00000  Uiso   1.00
C441   C     0.36166   0.88833   0.25000   0.00000  Uiso   1.00
C442   C     0.11167   0.86167   0.75000   0.00000  Uiso   1.00
C443   C     0.38833   0.63833   0.25000   0.00000  Uiso   1.00
C444   C     0.36166   0.88833   0.75000   0.00000  Uiso   1.00
C445   C     0.13834   0.61167   0.25000   0.00000  Uiso   1.00
C446   C     0.38833   0.63833   0.75000   0.00000  Uiso   1.00
C447   C     0.00000   0.75000   0.64394   0.00000  Uiso   1.00
C448   C     0.11167   0.86167   0.25000   0.00000  Uiso   1.00
C449   C     0.46210   0.75374   0.41874   0.00000  Uiso   1.00
C450   C     0.03790   0.74626   0.58127   0.00000  Uiso   1.00
C451   C     0.24623   0.53790   0.41874   0.00000  Uiso   1.00
C452   C     0.25377   0.96210   0.58127   0.00000  Uiso   1.00
C453   C     0.03790   0.74625   0.41874   0.00000  Uiso   1.00
C454   C     0.46210   0.75375   0.58126   0.00000  Uiso   1.00
C455   C     0.25377   0.96210   0.41874   0.00000  Uiso   1.00
C456   C     0.24623   0.53790   0.58127   0.00000  Uiso   1.00
C457   C     0.21227   0.50518   0.91873   0.00000  Uiso   1.00
C458   C     0.00000   0.75000   0.85606   0.00000  Uiso   1.00
C459   C     0.28773   0.99482   0.08127   0.00000  Uiso   1.00
C460   C     0.49498   0.78776   0.91873   0.00000  Uiso   1.00
C461   C     0.00502   0.71224   0.08127   0.00000  Uiso   1.00
C462   C     0.28773   0.99483   0.91873   0.00000  Uiso   1.00
C463   C     0.21227   0.50517   0.08127   0.00000  Uiso   1.00
C464   C     0.00502   0.71224   0.91873   0.00000  Uiso   1.00
C465   C     0.49498   0.78776   0.08127   0.00000  Uiso   1.00
C466   C     0.00000   0.75000   0.39851   0.00000  Uiso   1.00
C467   C     0.00000   0.75000   0.60149   0.00000  Uiso   1.00
C468   C     0.25000   0.50000   0.39851   0.00000  Uiso   1.00
C469   C     0.00000   0.75000   0.14394   0.00000  Uiso   1.00
C470   C     0.25000   0.50000   0.60149   0.00000  Uiso   1.00
C471   C     0.25000   0.50000   0.89851   0.00000  Uiso   1.00
C472   C     0.25000   0.50000   0.10149   0.00000  Uiso   1.00
C473   C     0.00000   0.75000   0.89851   0.00000  Uiso   1.00
C474   C    -0.00000   0.75000   0.10149   0.00000  Uiso   1.00
C475   C     0.03854   0.74611   0.45927   0.00000  Uiso   1.00
C476   C     0.46146   0.75389   0.54073   0.00000  Uiso   1.00
C477   C     0.25392   0.96146   0.45927   0.00000  Uiso   1.00
C478   C     0.24608   0.53854   0.54073   0.00000  Uiso   1.00
C479   C     0.46146   0.75389   0.45927   0.00000  Uiso   1.00
C480   C     0.25000   0.50000   0.85606   0.00000  Uiso   1.00
C481   C     0.03854   0.74611   0.54073   0.00000  Uiso   1.00
C482   C     0.24608   0.53854   0.45927   0.00000  Uiso   1.00
C483   C     0.25392   0.96146   0.54073   0.00000  Uiso   1.00
C484   C     0.28836   0.99462   0.95927   0.00000  Uiso   1.00
C485   C     0.21164   0.50538   0.04074   0.00000  Uiso   1.00
C486   C     0.00522   0.71161   0.95927   0.00000  Uiso   1.00
C487   C     0.49478   0.78839   0.04074   0.00000  Uiso   1.00
C488   C     0.21164   0.50538   0.95927   0.00000  Uiso   1.00
C489   C     0.28836   0.99462   0.04074   0.00000  Uiso   1.00
C490   C     0.49478   0.78839   0.95927   0.00000  Uiso   1.00
C491   C     0.25000   0.50000   0.14394   0.00000  Uiso   1.00
C492   C     0.00522   0.71161   0.04074   0.00000  Uiso   1.00
C493   C     0.00000   0.75000   0.47965   0.00000  Uiso   1.00
C494   C     0.00000   0.75000   0.52035   0.00000  Uiso   1.00
C495   C     0.25000   0.50000   0.47965   0.00000  Uiso   1.00
C496   C     0.25000   0.50000   0.52035   0.00000  Uiso   1.00
C497   C     0.25000   0.50000   0.97965   0.00000  Uiso   1.00
C498   C     0.25000   0.50000   0.02035   0.00000  Uiso   1.00
C499   C     0.00000   0.75000   0.97965   0.00000  Uiso   1.00
C500   C    -0.00000   0.75000   0.02035   0.00000  Uiso   1.00
C501   C     0.07683   0.74212   0.47971   0.00000  Uiso   1.00
C502   C     0.16999   0.58001   0.25000   0.00000  Uiso   1.00
C503   C     0.42317   0.75788   0.52029   0.00000  Uiso   1.00
C504   C     0.25792   0.92317   0.47971   0.00000  Uiso   1.00
C505   C     0.24208   0.57683   0.52029   0.00000  Uiso   1.00
C506   C     0.42317   0.75788   0.47971   0.00000  Uiso   1.00
C507   C     0.07683   0.74212   0.52029   0.00000  Uiso   1.00
C508   C     0.24208   0.57683   0.47971   0.00000  Uiso   1.00
C509   C     0.25792   0.92317   0.52029   0.00000  Uiso   1.00
C510   C     0.32645   0.98911   0.97971   0.00000  Uiso   1.00
C511   C     0.17355   0.51089   0.02029   0.00000  Uiso   1.00
C512   C     0.01055   0.67348   0.97971   0.00000  Uiso   1.00
Cl513  Cl    0.12546   0.73699   0.45496   0.00000  Uiso   1.00
Cl514  Cl    0.12517   0.51799   0.04504   0.00000  Uiso   1.00
Cl515  Cl    0.01742   0.62506   0.95496   0.00000  Uiso   1.00
Cl516  Cl    0.48258   0.87494   0.04504   0.00000  Uiso   1.00
Cl517  Cl    0.12517   0.51799   0.95496   0.00000  Uiso   1.00
Cl518  Cl    0.37483   0.98201   0.04504   0.00000  Uiso   1.00
Cl519  Cl    0.48259   0.87494   0.95496   0.00000  Uiso   1.00
Cl520  Cl    0.01741   0.62506   0.04504   0.00000  Uiso   1.00
Cl521  Cl    0.37454   0.76301   0.54504   0.00000  Uiso   1.00
Cl522  Cl    0.26308   0.87454   0.45496   0.00000  Uiso   1.00
Cl523  Cl    0.23692   0.62546   0.54504   0.00000  Uiso   1.00
Cl524  Cl    0.37454   0.76301   0.45496   0.00000  Uiso   1.00
Cl525  Cl    0.12546   0.73699   0.54504   0.00000  Uiso   1.00
Cl526  Cl    0.23692   0.62546   0.45496   0.00000  Uiso   1.00
Cl527  Cl    0.26308   0.87454   0.54504   0.00000  Uiso   1.00
Cl528  Cl    0.37483   0.98201   0.95496   0.00000  Uiso   1.00
H529   H     0.43318   0.75669   0.40246   0.00000  Uiso   1.00
H530   H     0.31651   0.99076   0.09756   0.00000  Uiso   1.00
H531   H     0.49103   0.81656   0.90244   0.00000  Uiso   1.00
H532   H     0.00897   0.68344   0.09756   0.00000  Uiso   1.00
H533   H     0.31651   0.99076   0.90244   0.00000  Uiso   1.00
H534   H     0.18349   0.50924   0.09756   0.00000  Uiso   1.00
H535   H     0.00897   0.68345   0.90244   0.00000  Uiso   1.00
H536   H     0.49103   0.81655   0.09756   0.00000  Uiso   1.00
H537   H     0.06682   0.74331   0.59755   0.00000  Uiso   1.00
H538   H     0.24327   0.56682   0.40246   0.00000  Uiso   1.00
H539   H     0.25673   0.93318   0.59755   0.00000  Uiso   1.00
H540   H     0.06682   0.74331   0.40246   0.00000  Uiso   1.00
H541   H     0.43318   0.75669   0.59755   0.00000  Uiso   1.00
H542   H     0.25673   0.93318   0.40245   0.00000  Uiso   1.00
H543   H     0.24327   0.56682   0.59755   0.00000  Uiso   1.00
H544   H     0.18349   0.50924   0.90244   0.00000  Uiso   1.00
O545   O     0.25000   0.50000   0.25000   0.00000  Uiso   1.00
O546   O     0.25000   0.96538   0.66251   0.00000  Uiso   1.00
O547   O     0.46539   0.75000   0.33749   0.00000  Uiso   1.00
O548   O     0.03462   0.75000   0.66251   0.00000  Uiso   1.00
O549   O     0.00000   0.71539   0.83749   0.00000  Uiso   1.00
O550   O     0.00000   0.78461   0.16251   0.00000  Uiso   1.00
O551   O     0.28462   0.50000   0.83749   0.00000  Uiso   1.00
O552   O     0.21539   0.50000   0.16251   0.00000  Uiso   1.00
O553   O     0.00000   0.78462   0.83749   0.00000  Uiso   1.00
O554   O     0.00000   0.71539   0.16251   0.00000  Uiso   1.00
O555   O     0.21539   0.50000   0.83749   0.00000  Uiso   1.00
O556   O     0.25000   0.50000   0.75000   0.00000  Uiso   1.00
O557   O     0.28462   0.50000   0.16251   0.00000  Uiso   1.00
O558   O     0.20127   0.58332   0.27298   0.00000  Uiso   1.00
O559   O     0.29874   0.91668   0.72702   0.00000  Uiso   1.00
O560   O     0.41668   0.70127   0.27298   0.00000  Uiso   1.00
O561   O     0.08332   0.79873   0.72702   0.00000  Uiso   1.00
O562   O     0.29874   0.91668   0.27298   0.00000  Uiso   1.00
O563   O     0.20127   0.58332   0.72702   0.00000  Uiso   1.00
O564   O     0.08332   0.79873   0.27298   0.00000  Uiso   1.00
O565   O     0.41668   0.70127   0.72702   0.00000  Uiso   1.00
O566   O     0.20127   0.91668   0.72702   0.00000  Uiso   1.00
O567   O     0.00000   0.75000   0.25000   0.00000  Uiso   1.00
O568   O     0.29874   0.58332   0.27298   0.00000  Uiso   1.00
O569   O     0.41668   0.79874   0.72702   0.00000  Uiso   1.00
O570   O     0.08332   0.70126   0.27298   0.00000  Uiso   1.00
O571   O     0.29874   0.58332   0.72702   0.00000  Uiso   1.00
O572   O     0.20127   0.91668   0.27298   0.00000  Uiso   1.00
O573   O     0.08332   0.70126   0.72702   0.00000  Uiso   1.00
O574   O     0.41668   0.79874   0.27298   0.00000  Uiso   1.00
O575   O     0.45127   0.83332   0.77298   0.00000  Uiso   1.00
O576   O     0.04874   0.66668   0.22702   0.00000  Uiso   1.00
O577   O     0.16668   0.95126   0.77298   0.00000  Uiso   1.00
O578   O     0.00000   0.75000   0.75000   0.00000  Uiso   1.00
O579   O     0.33332   0.54874   0.22702   0.00000  Uiso   1.00
O580   O     0.04874   0.66668   0.77298   0.00000  Uiso   1.00
O581   O     0.45127   0.83332   0.22702   0.00000  Uiso   1.00
O582   O     0.33332   0.54874   0.77298   0.00000  Uiso   1.00
O583   O     0.16668   0.95126   0.22702   0.00000  Uiso   1.00
O584   O     0.45127   0.66668   0.22702   0.00000  Uiso   1.00
O585   O     0.04874   0.83332   0.77298   0.00000  Uiso   1.00
O586   O     0.16668   0.54874   0.22702   0.00000  Uiso   1.00
O587   O     0.33332   0.95126   0.77298   0.00000  Uiso   1.00
O588   O     0.04874   0.83332   0.22702   0.00000  Uiso   1.00
O589   O     0.25000   0.96538   0.33749   0.00000  Uiso   1.00
O590   O     0.45127   0.66668   0.77298   0.00000  Uiso   1.00
O591   O     0.33332   0.95126   0.22702   0.00000  Uiso   1.00
O592   O     0.16668   0.54874   0.77298   0.00000  Uiso   1.00
O593   O     0.25000   0.53462   0.66251   0.00000  Uiso   1.00
O594   O     0.03462   0.75000   0.33749   0.00000  Uiso   1.00
O595   O     0.46539   0.75000   0.66251   0.00000  Uiso   1.00
O596   O     0.25000   0.53462   0.33749   0.00000  Uiso   1.00
Zn597  Zn    0.20053   0.50000   0.21730   0.00000  Uiso   1.00
Zn598  Zn    0.04948   0.75000   0.28270   0.00000  Uiso   1.00
Zn599  Zn    0.25000   0.95052   0.71730   0.00000  Uiso   1.00
Zn600  Zn    0.25000   0.54948   0.28270   0.00000  Uiso   1.00
Zn601  Zn    0.04948   0.75000   0.71730   0.00000  Uiso   1.00
Zn602  Zn    0.45053   0.75000   0.28270   0.00000  Uiso   1.00
Zn603  Zn    0.25000   0.54948   0.71730   0.00000  Uiso   1.00
Zn604  Zn    0.25000   0.95052   0.28270   0.00000  Uiso   1.00
Zn605  Zn    0.29948   0.50000   0.78270   0.00000  Uiso   1.00
Zn606  Zn    0.00000   0.70053   0.21730   0.00000  Uiso   1.00
Zn607  Zn    0.00000   0.79948   0.78270   0.00000  Uiso   1.00
Zn608  Zn    0.29948   0.50000   0.21730   0.00000  Uiso   1.00
Zn609  Zn    0.20053   0.50000   0.78270   0.00000  Uiso   1.00
Zn610  Zn    0.00000   0.79948   0.21730   0.00000  Uiso   1.00
Zn611  Zn    0.00000   0.70053   0.78270   0.00000  Uiso   1.00
Zn612  Zn    0.45053   0.75000   0.71730   0.00000  Uiso   1.00
C613   C     0.75000   0.50000   0.35606   0.00000  Uiso   1.00
C614   C     0.83001   0.91999   0.75000   0.00000  Uiso   1.00
C615   C     0.98945   0.82652   0.02029   0.00000  Uiso   1.00
C616   C     0.67355   0.51089   0.97971   0.00000  Uiso   1.00
C617   C     0.82645   0.98911   0.02029   0.00000  Uiso   1.00
C618   C     0.98945   0.82652   0.97971   0.00000  Uiso   1.00
C619   C     0.51055   0.67348   0.02029   0.00000  Uiso   1.00
C620   C     0.91999   0.66999   0.25000   0.00000  Uiso   1.00
C621   C     0.58001   0.83001   0.75000   0.00000  Uiso   1.00
C622   C     0.83001   0.91999   0.25000   0.00000  Uiso   1.00
C623   C     0.66999   0.58001   0.75000   0.00000  Uiso   1.00
C624   C     0.58001   0.83001   0.25000   0.00000  Uiso   1.00
C625   C     0.91999   0.66999   0.75000   0.00000  Uiso   1.00
C626   C     0.66999   0.91999   0.75000   0.00000  Uiso   1.00
C627   C     0.83001   0.58001   0.25000   0.00000  Uiso   1.00
C628   C     0.91999   0.83001   0.75000   0.00000  Uiso   1.00
C629   C     0.75000   0.50000   0.64394   0.00000  Uiso   1.00
C630   C     0.58001   0.66999   0.25000   0.00000  Uiso   1.00
C631   C     0.83001   0.58001   0.75000   0.00000  Uiso   1.00
C632   C     0.66999   0.91999   0.25000   0.00000  Uiso   1.00
C633   C     0.58001   0.66999   0.75000   0.00000  Uiso   1.00
C634   C     0.91999   0.83001   0.25000   0.00000  Uiso   1.00
C635   C     0.63833   0.88833   0.25000   0.00000  Uiso   1.00
C636   C     0.86167   0.61167   0.75000   0.00000  Uiso   1.00
C637   C     0.61167   0.63834   0.25000   0.00000  Uiso   1.00
C638   C     0.88834   0.86166   0.75000   0.00000  Uiso   1.00
C639   C     0.86167   0.61167   0.25000   0.00000  Uiso   1.00
C640   C     0.50000   0.75000   0.35606   0.00000  Uiso   1.00
C641   C     0.63833   0.88833   0.75000   0.00000  Uiso   1.00
C642   C     0.88834   0.86166   0.25000   0.00000  Uiso   1.00
C643   C     0.61167   0.63834   0.75000   0.00000  Uiso   1.00
C644   C     0.63834   0.61167   0.75000   0.00000  Uiso   1.00
C645   C     0.86166   0.88833   0.25000   0.00000  Uiso   1.00
C646   C     0.61167   0.86167   0.75000   0.00000  Uiso   1.00
C647   C     0.88833   0.63833   0.25000   0.00000  Uiso   1.00
C648   C     0.86166   0.88833   0.75000   0.00000  Uiso   1.00
C649   C     0.63834   0.61167   0.25000   0.00000  Uiso   1.00
C650   C     0.88833   0.63833   0.75000   0.00000  Uiso   1.00
C651   C     0.50000   0.75000   0.64394   0.00000  Uiso   1.00
C652   C     0.61167   0.86167   0.25000   0.00000  Uiso   1.00
C653   C     0.96210   0.75374   0.41874   0.00000  Uiso   1.00
C654   C     0.53790   0.74626   0.58127   0.00000  Uiso   1.00
C655   C     0.74623   0.53790   0.41874   0.00000  Uiso   1.00
C656   C     0.75377   0.96210   0.58127   0.00000  Uiso   1.00
C657   C     0.53790   0.74625   0.41874   0.00000  Uiso   1.00
C658   C     0.96210   0.75375   0.58126   0.00000  Uiso   1.00
C659   C     0.75377   0.96210   0.41874   0.00000  Uiso   1.00
C660   C     0.74623   0.53790   0.58127   0.00000  Uiso   1.00
C661   C     0.71227   0.50518   0.91873   0.00000  Uiso   1.00
C662   C     0.50000   0.75000   0.85606   0.00000  Uiso   1.00
C663   C     0.78773   0.99482   0.08127   0.00000  Uiso   1.00
C664   C     0.99498   0.78776   0.91873   0.00000  Uiso   1.00
C665   C     0.50502   0.71224   0.08127   0.00000  Uiso   1.00
C666   C     0.78773   0.99483   0.91873   0.00000  Uiso   1.00
C667   C     0.71227   0.50517   0.08127   0.00000  Uiso   1.00
C668   C     0.50502   0.71224   0.91873   0.00000  Uiso   1.00
C669   C     0.99498   0.78776   0.08127   0.00000  Uiso   1.00
C670   C     0.50000   0.75000   0.39851   0.00000  Uiso   1.00
C671   C     0.50000   0.75000   0.60149   0.00000  Uiso   1.00
C672   C     0.75000   0.50000   0.39851   0.00000  Uiso   1.00
C673   C     0.50000   0.75000   0.14394   0.00000  Uiso   1.00
C674   C     0.75000   0.50000   0.60149   0.00000  Uiso   1.00
C675   C     0.75000   0.50000   0.89851   0.00000  Uiso   1.00
C676   C     0.75000   0.50000   0.10149   0.00000  Uiso   1.00
C677   C     0.50000   0.75000   0.89851   0.00000  Uiso   1.00
C678   C     0.50000   0.75000   0.10149   0.00000  Uiso   1.00
C679   C     0.53854   0.74611   0.45927   0.00000  Uiso   1.00
C680   C     0.96146   0.75389   0.54073   0.00000  Uiso   1.00
C681   C     0.75392   0.96146   0.45927   0.00000  Uiso   1.00
C682   C     0.74608   0.53854   0.54073   0.00000  Uiso   1.00
C683   C     0.96146   0.75389   0.45927   0.00000  Uiso   1.00
C684   C     0.75000   0.50000   0.85606   0.00000  Uiso   1.00
C685   C     0.53854   0.74611   0.54073   0.00000  Uiso   1.00
C686   C     0.74608   0.53854   0.45927   0.00000  Uiso   1.00
C687   C     0.75392   0.96146   0.54073   0.00000  Uiso   1.00
C688   C     0.78836   0.99462   0.95927   0.00000  Uiso   1.00
C689   C     0.71164   0.50538   0.04074   0.00000  Uiso   1.00
C690   C     0.50522   0.71161   0.95927   0.00000  Uiso   1.00
C691   C     0.99478   0.78839   0.04074   0.00000  Uiso   1.00
C692   C     0.71164   0.50538   0.95927   0.00000  Uiso   1.00
C693   C     0.78836   0.99462   0.04074   0.00000  Uiso   1.00
C694   C     0.99478   0.78839   0.95927   0.00000  Uiso   1.00
C695   C     0.75000   0.50000   0.14394   0.00000  Uiso   1.00
C696   C     0.50522   0.71161   0.04074   0.00000  Uiso   1.00
C697   C     0.50000   0.75000   0.47965   0.00000  Uiso   1.00
C698   C     0.50000   0.75000   0.52035   0.00000  Uiso   1.00
C699   C     0.75000   0.50000   0.47965   0.00000  Uiso   1.00
C700   C     0.75000   0.50000   0.52035   0.00000  Uiso   1.00
C701   C     0.75000   0.50000   0.97965   0.00000  Uiso   1.00
C702   C     0.75000   0.50000   0.02035   0.00000  Uiso   1.00
C703   C     0.50000   0.75000   0.97965   0.00000  Uiso   1.00
C704   C     0.50000   0.75000   0.02035   0.00000  Uiso   1.00
C705   C     0.57683   0.74212   0.47971   0.00000  Uiso   1.00
C706   C     0.66999   0.58001   0.25000   0.00000  Uiso   1.00
C707   C     0.92317   0.75788   0.52029   0.00000  Uiso   1.00
C708   C     0.75792   0.92317   0.47971   0.00000  Uiso   1.00
C709   C     0.74208   0.57683   0.52029   0.00000  Uiso   1.00
C710   C     0.92317   0.75788   0.47971   0.00000  Uiso   1.00
C711   C     0.57683   0.74212   0.52029   0.00000  Uiso   1.00
C712   C     0.74208   0.57683   0.47971   0.00000  Uiso   1.00
C713   C     0.75792   0.92317   0.52029   0.00000  Uiso   1.00
C714   C     0.82645   0.98911   0.97971   0.00000  Uiso   1.00
C715   C     0.67355   0.51089   0.02029   0.00000  Uiso   1.00
C716   C     0.51055   0.67348   0.97971   0.00000  Uiso   1.00
Cl717  Cl    0.62546   0.73699   0.45496   0.00000  Uiso   1.00
Cl718  Cl    0.62517   0.51799   0.04504   0.00000  Uiso   1.00
Cl719  Cl    0.51742   0.62506   0.95496   0.00000  Uiso   1.00
Cl720  Cl    0.98258   0.87494   0.04504   0.00000  Uiso   1.00
Cl721  Cl    0.62517   0.51799   0.95496   0.00000  Uiso   1.00
Cl722  Cl    0.87483   0.98201   0.04504   0.00000  Uiso   1.00
Cl723  Cl    0.98259   0.87494   0.95496   0.00000  Uiso   1.00
Cl724  Cl    0.51741   0.62506   0.04504   0.00000  Uiso   1.00
Cl725  Cl    0.87454   0.76301   0.54504   0.00000  Uiso   1.00
Cl726  Cl    0.76308   0.87454   0.45496   0.00000  Uiso   1.00
Cl727  Cl    0.73692   0.62546   0.54504   0.00000  Uiso   1.00
Cl728  Cl    0.87454   0.76301   0.45496   0.00000  Uiso   1.00
Cl729  Cl    0.62546   0.73699   0.54504   0.00000  Uiso   1.00
Cl730  Cl    0.73692   0.62546   0.45496   0.00000  Uiso   1.00
Cl731  Cl    0.76308   0.87454   0.54504   0.00000  Uiso   1.00
Cl732  Cl    0.87483   0.98201   0.95496   0.00000  Uiso   1.00
H733   H     0.93318   0.75669   0.40246   0.00000  Uiso   1.00
H734   H     0.81651   0.99076   0.09756   0.00000  Uiso   1.00
H735   H     0.99103   0.81656   0.90244   0.00000  Uiso   1.00
H736   H     0.50897   0.68344   0.09756   0.00000  Uiso   1.00
H737   H     0.81651   0.99076   0.90244   0.00000  Uiso   1.00
H738   H     0.68349   0.50924   0.09756   0.00000  Uiso   1.00
H739   H     0.50897   0.68345   0.90244   0.00000  Uiso   1.00
H740   H     0.99103   0.81655   0.09756   0.00000  Uiso   1.00
H741   H     0.56682   0.74331   0.59755   0.00000  Uiso   1.00
H742   H     0.74327   0.56682   0.40246   0.00000  Uiso   1.00
H743   H     0.75673   0.93318   0.59755   0.00000  Uiso   1.00
H744   H     0.56682   0.74331   0.40246   0.00000  Uiso   1.00
H745   H     0.93318   0.75669   0.59755   0.00000  Uiso   1.00
H746   H     0.75673   0.93318   0.40245   0.00000  Uiso   1.00
H747   H     0.74327   0.56682   0.59755   0.00000  Uiso   1.00
H748   H     0.68349   0.50924   0.90244   0.00000  Uiso   1.00
O749   O     0.75000   0.50000   0.25000   0.00000  Uiso   1.00
O750   O     0.75000   0.96538   0.66251   0.00000  Uiso   1.00
O751   O     0.96539   0.75000   0.33749   0.00000  Uiso   1.00
O752   O     0.53462   0.75000   0.66251   0.00000  Uiso   1.00
O753   O     0.50000   0.71539   0.83749   0.00000  Uiso   1.00
O754   O     0.50000   0.78461   0.16251   0.00000  Uiso   1.00
O755   O     0.78462   0.50000   0.83749   0.00000  Uiso   1.00
O756   O     0.71539   0.50000   0.16251   0.00000  Uiso   1.00
O757   O     0.50000   0.78462   0.83749   0.00000  Uiso   1.00
O758   O     0.50000   0.71539   0.16251   0.00000  Uiso   1.00
O759   O     0.71539   0.50000   0.83749   0.00000  Uiso   1.00
O760   O     0.75000   0.50000   0.75000   0.00000  Uiso   1.00
O761   O     0.78462   0.50000   0.16251   0.00000  Uiso   1.00
O762   O     0.70127   0.58332   0.27298   0.00000  Uiso   1.00
O763   O     0.79874   0.91668   0.72702   0.00000  Uiso   1.00
O764   O     0.91668   0.70127   0.27298   0.00000  Uiso   1.00
O765   O     0.58332   0.79873   0.72702   0.00000  Uiso   1.00
O766   O     0.79874   0.91668   0.27298   0.00000  Uiso   1.00
O767   O     0.70127   0.58332   0.72702   0.00000  Uiso   1.00
O768   O     0.58332   0.79873   0.27298   0.00000  Uiso   1.00
O769   O     0.91668   0.70127   0.72702   0.00000  Uiso   1.00
O770   O     0.70127   0.91668   0.72702   0.00000  Uiso   1.00
O771   O     0.50000   0.75000   0.25000   0.00000  Uiso   1.00
O772   O     0.79874   0.58332   0.27298   0.00000  Uiso   1.00
O773   O     0.91668   0.79874   0.72702   0.00000  Uiso   1.00
O774   O     0.58332   0.70126   0.27298   0.00000  Uiso   1.00
O775   O     0.79874   0.58332   0.72702   0.00000  Uiso   1.00
O776   O     0.70127   0.91668   0.27298   0.00000  Uiso   1.00
O777   O     0.58332   0.70126   0.72702   0.00000  Uiso   1.00
O778   O     0.91668   0.79874   0.27298   0.00000  Uiso   1.00
O779   O     0.95127   0.83332   0.77298   0.00000  Uiso   1.00
O780   O     0.54874   0.66668   0.22702   0.00000  Uiso   1.00
O781   O     0.66668   0.95126   0.77298   0.00000  Uiso   1.00
O782   O     0.50000   0.75000   0.75000   0.00000  Uiso   1.00
O783   O     0.83332   0.54874   0.22702   0.00000  Uiso   1.00
O784   O     0.54874   0.66668   0.77298   0.00000  Uiso   1.00
O785   O     0.95127   0.83332   0.22702   0.00000  Uiso   1.00
O786   O     0.83332   0.54874   0.77298   0.00000  Uiso   1.00
O787   O     0.66668   0.95126   0.22702   0.00000  Uiso   1.00
O788   O     0.95127   0.66668   0.22702   0.00000  Uiso   1.00
O789   O     0.54874   0.83332   0.77298   0.00000  Uiso   1.00
O790   O     0.66668   0.54874   0.22702   0.00000  Uiso   1.00
O791   O     0.83332   0.95126   0.77298   0.00000  Uiso   1.00
O792   O     0.54874   0.83332   0.22702   0.00000  Uiso   1.00
O793   O     0.75000   0.96538   0.33749   0.00000  Uiso   1.00
O794   O     0.95127   0.66668   0.77298   0.00000  Uiso   1.00
O795   O     0.83332   0.95126   0.22702   0.00000  Uiso   1.00
O796   O     0.66668   0.54874   0.77298   0.00000  Uiso   1.00
O797   O     0.75000   0.53462   0.66251   0.00000  Uiso   1.00
O798   O     0.53462   0.75000   0.33749   0.00000  Uiso   1.00
O799   O     0.96539   0.75000   0.66251   0.00000  Uiso   1.00
O800   O     0.75000   0.53462   0.33749   0.00000  Uiso   1.00
Zn801  Zn    0.70053   0.50000   0.21730   0.00000  Uiso   1.00
Zn802  Zn    0.54948   0.75000   0.28270   0.00000  Uiso   1.00
Zn803  Zn    0.75000   0.95052   0.71730   0.00000  Uiso   1.00
Zn804  Zn    0.75000   0.54948   0.28270   0.00000  Uiso   1.00
Zn805  Zn    0.54948   0.75000   0.71730   0.00000  Uiso   1.00
Zn806  Zn    0.95053   0.75000   0.28270   0.00000  Uiso   1.00
Zn807  Zn    0.75000   0.54948   0.71730   0.00000  Uiso   1.00
Zn808  Zn    0.75000   0.95052   0.28270   0.00000  Uiso   1.00
Zn809  Zn    0.79948   0.50000   0.78270   0.00000  Uiso   1.00
Zn810  Zn    0.50000   0.70053   0.21730   0.00000  Uiso   1.00
Zn811  Zn    0.50000   0.79948   0.78270   0.00000  Uiso   1.00
Zn812  Zn    0.79948   0.50000   0.21730   0.00000  Uiso   1.00
Zn813  Zn    0.70053   0.50000   0.78270   0.00000  Uiso   1.00
Zn814  Zn    0.50000   0.79948   0.21730   0.00000  Uiso   1.00
Zn815  Zn    0.50000   0.70053   0.78270   0.00000  Uiso   1.00
Zn816  Zn    0.95053   0.75000   0.71730   0.00000  Uiso   1.00
loop_
_geom_bond_atom_site_label_1
_geom_bond_atom_site_label_2
_geom_bond_distance
_geom_bond_site_symmetry_2
_ccdc_geom_bond_type
C1     O589    1.273   1_545 A
C1     C60     1.467   .     S
C1     O188    1.273   .     S
C2     O179    1.276   .     A
C2     C36     1.422   .     S
C2     O151    1.276   .     A
C3     C79     1.412   .     A
C3     Cl108   1.773   .     S
C3     C6      1.403   1_554 S
C4     Cl109   1.773   .     S
C4     C80     1.412   .     A
C4     C103    1.403   1_556 S
C5     Cl110   1.773   .     S
C5     C81     1.412   .     A
C5     C102    1.403   1_554 S
C6     Cl111   1.773   .     S
C6     C82     1.412   .     A
C6     C3      1.403   1_556 S
C7     Cl112   1.773   .     S
C7     C84     1.412   .     A
C7     C104    1.403   1_554 S
C8     O152    1.276   .     A
C8     O176    1.276   .     A
C8     C35     1.422   .     S
C9     O153    1.276   .     A
C9     C34     1.422   .     S
C9     O177    1.276   .     A
C10    O154    1.276   .     A
C10    C33     1.422   .     S
C10    O183    1.276   .     A
C11    O155    1.276   .     A
C11    C32     1.422   .     S
C11    O184    1.276   .     A
C12    O156    1.276   .     A
C12    C40     1.422   .     S
C12    O180    1.276   .     A
C13    C38     1.422   .     S
C13    O157    1.276   .     A
C13    O182    1.276   .     A
C14    O158    1.276   .     A
C14    O169    1.276   .     A
C14    C29     1.422   .     S
C15    C27     1.422   .     S
C15    O171    1.276   .     A
C15    O160    1.276   .     A
C16    O167    1.276   .     A
C16    C26     1.422   .     S
C16    O161    1.276   .     A
C17    O546    1.273   1_545 A
C17    C62     1.467   .     S
C17    O185    1.273   .     S
C18    C25     1.422   .     S
C18    O168    1.276   .     A
C18    O162    1.276   .     A
C19    O163    1.276   .     A
C19    C24     1.422   .     S
C19    O174    1.276   .     A
C20    O175    1.276   .     A
C20    O164    1.276   .     A
C20    C23     1.422   .     S
C21    O165    1.276   .     A
C21    C31     1.422   .     S
C21    O172    1.276   .     A
C22    O173    1.276   .     A
C22    C30     1.422   .     S
C22    O166    1.276   .     A
C23    C40     1.198   .     T
C24    C38     1.198   .     T
C25    C37     1.198   .     T
C26    C36     1.198   .     T
C27    C35     1.198   .     T
C28    O343    1.273   1_455 A
C28    C58     1.467   .     S
C28    O186    1.273   .     S
C29    C34     1.198   .     T
C30    C33     1.198   .     T
C31    C32     1.198   .     T
C37    C94     1.422   .     S
C39    C59     1.467   .     S
C39    O391    1.273   1_455 A
C39    O140    1.273   .     S
C41    H121    1.081   .     S
C41    C71     1.401   .     A
C41    C262    1.397   .     S
C42    C73     1.401   .     A
C42    H129    1.081   .     S
C42    C59     1.397   .     S
C43    C60     1.397   .     A
C43    H130    1.081   .     S
C43    C74     1.401   .     A
C44    H131    1.081   .     S
C44    C75     1.401   .     A
C44    C470    1.397   .     A
C45    C67     1.401   .     A
C45    C58     1.397   .     A
C45    H132    1.081   .     S
C46    C263    1.397   .     A
C46    C68     1.401   .     A
C46    H133    1.081   .     S
C47    C69     1.401   .     A
C47    H134    1.081   .     S
C47    C468    1.397   .     S
C48    H135    1.081   .     S
C48    C70     1.401   .     A
C48    C62     1.397   .     S
C49    C63     1.397   .     A
C49    H136    1.081   .     S
C49    C80     1.401   .     A
C50    C65     1.467   .     S
C50    O141    1.273   .     S
C50    O145    1.273   .     S
C51    C472    1.397   .     A
C51    C81     1.401   .     A
C51    H122    1.081   .     S
C52    H123    1.081   .     S
C52    C82     1.401   .     A
C52    C269    1.397   .     S
C53    C84     1.401   .     A
C53    H124    1.081   .     S
C53    C66     1.397   .     S
C54    H125    1.081   .     S
C54    C76     1.401   .     A
C54    C471    1.397   .     S
C55    C77     1.401   .     A
C55    H126    1.081   .     S
C55    C64     1.397   .     S
C56    C78     1.401   .     A
C56    H127    1.081   .     S
C56    C65     1.397   .     A
C57    C79     1.401   .     A
C57    C270    1.397   .     A
C57    H128    1.081   .     S
C58    C245    1.397   1_455 S
C59    C250    1.397   1_455 A
C60    C455    1.397   1_545 S
C61    C66     1.467   .     S
C61    O146    1.273   .     A
C61    O142    1.273   .     S
C62    C452    1.397   1_545 A
C63    C72     1.467   .     S
C63    C462    1.397   1_545 S
C64    C459    1.397   1_545 A
C64    C83     1.467   .     S
C65    C256    1.397   1_455 S
C66    C261    1.397   1_455 A
C67    C93     1.412   .     A
C67    C85     1.418   .     S
C68    C95     1.412   .     A
C68    C290    1.418   .     S
C69    C495    1.418   .     A
C69    C96     1.412   .     A
C70    C88     1.418   .     A
C70    C97     1.412   .     A
C71    C289    1.418   .     A
C71    C98     1.412   .     A
C72    O143    1.273   .     S
C72    O147    1.273   .     S
C73    C99     1.412   .     A
C73    C86     1.418   .     A
C74    C100    1.412   .     A
C74    C87     1.418   .     S
C75    C101    1.412   .     A
C75    C496    1.418   .     S
C76    C497    1.418   .     A
C76    C102    1.412   .     A
C77    C103    1.412   .     A
C77    C90     1.418   .     S
C78    C104    1.412   .     A
C78    C91     1.418   .     A
C79    C296    1.418   .     A
C80    C89     1.418   .     S
C81    C498    1.418   .     A
C82    C295    1.418   .     S
C83    O144    1.273   .     S
C83    O149    1.273   .     S
C84    C92     1.418   .     S
C85    C275    1.418   1_455 A
C85    C86     1.406   .     S
C86    C272    1.418   1_455 S
C87    C477    1.418   1_545 A
C87    C88     1.406   .     S
C88    C483    1.418   1_545 S
C89    C484    1.418   1_545 A
C89    C90     1.406   1_556 S
C90    C489    1.418   1_545 A
C90    C89     1.406   1_554 S
C91    C286    1.418   1_455 S
C91    C92     1.406   1_556 S
C92    C283    1.418   1_455 A
C92    C91     1.406   1_554 S
C93    C99     1.403   .     A
C93    Cl105   1.773   .     S
C94    O178    1.276   .     A
C94    O150    1.276   .     A
C95    C98     1.403   .     A
C95    Cl113   1.773   .     S
C96    C101    1.403   .     A
C96    Cl114   1.773   .     S
C97    C100    1.403   .     A
C97    Cl115   1.773   .     S
C98    Cl116   1.773   .     S
C99    Cl117   1.773   .     S
C100   Cl118   1.773   .     S
C101   Cl119   1.773   .     S
C102   Cl120   1.773   .     S
C102   C5      1.403   1_556 S
C103   Cl106   1.773   .     S
C103   C4      1.403   1_554 S
C104   Cl107   1.773   .     S
C104   C7      1.403   1_556 S
O137   Zn192   1.936   .     S
O137   Zn189   1.936   .     S
O137   Zn604   1.936   1_545 S
O137   Zn200   1.936   .     S
O138   Zn191   1.952   .     S
O138   C425    1.273   .     A
O139   C232    1.273   .     A
O139   Zn194   1.952   .     S
O140   Zn193   1.952   .     S
O141   Zn203   1.952   .     S
O142   Zn202   1.952   .     S
O143   Zn197   1.952   .     S
O144   Zn189   1.952   .     S
O145   Zn199   1.952   .     S
O146   Zn198   1.952   .     S
O147   Zn201   1.952   .     S
O148   Zn197   1.936   .     S
O148   Zn599   1.936   1_545 S
O148   Zn201   1.936   .     S
O148   Zn195   1.936   .     S
O149   Zn200   1.952   .     S
O150   Zn192   1.914   .     S
O151   Zn191   1.914   .     S
O152   Zn194   1.914   .     S
O153   Zn193   1.914   .     S
O154   Zn196   1.914   .     S
O155   Zn195   1.914   .     S
O156   Zn190   1.914   .     S
O157   Zn204   1.914   .     S
O158   Zn191   1.914   .     S
O159   Zn398   1.936   1_455 S
O159   Zn198   1.936   .     S
O159   Zn202   1.936   .     S
O159   Zn190   1.936   .     S
O160   Zn192   1.914   .     S
O161   Zn204   1.914   .     S
O162   Zn190   1.914   .     S
O163   Zn195   1.914   .     S
O164   Zn196   1.914   .     S
O165   Zn193   1.914   .     S
O166   Zn194   1.914   .     S
O167   Zn403   1.914   .     S
O168   Zn198   1.914   .     S
O169   Zn609   1.914   .     S
O170   Zn408   1.936   1_455 S
O170   Zn199   1.936   .     S
O170   Zn203   1.936   .     S
O170   Zn193   1.936   .     S
O171   Zn200   1.914   .     S
O172   Zn203   1.914   .     S
O173   Zn406   1.914   .     S
O174   Zn197   1.914   .     S
O175   Zn597   1.914   .     S
O176   Zn402   1.914   .     S
O177   Zn199   1.914   .     S
O178   Zn189   1.914   .     S
O179   Zn605   1.914   .     S
O180   Zn202   1.914   .     S
O181   Zn196   1.952   .     S
O181   C409    1.273   .     A
O182   Zn407   1.914   .     S
O183   Zn608   1.914   .     S
O184   Zn201   1.914   .     S
O185   Zn195   1.952   .     S
O186   Zn190   1.952   .     S
O187   Zn204   1.952   .     S
O187   C243    1.273   .     A
O188   Zn192   1.952   .     S
Zn189  O583    1.914   1_545 S
Zn191  O556    1.936   .     S
Zn194  O363    1.936   .     S
Zn196  O545    1.936   .     S
Zn197  O587    1.914   1_545 S
Zn198  O380    1.914   1_455 S
Zn199  O371    1.914   1_455 S
Zn200  O591    1.914   1_545 S
Zn201  O577    1.914   1_545 S
Zn202  O377    1.914   1_455 S
Zn203  O386    1.914   1_455 S
Zn204  O374    1.936   .     S
C205   O793    1.273   1_545 A
C205   C264    1.467   .     S
C205   O392    1.273   .     S
C206   O383    1.276   .     A
C206   C240    1.422   .     S
C206   O355    1.276   .     A
C207   C283    1.412   .     A
C207   Cl312   1.773   .     S
C207   C210    1.403   1_554 S
C208   Cl313   1.773   .     S
C208   C284    1.412   .     A
C208   C307    1.403   1_556 S
C209   Cl314   1.773   .     S
C209   C285    1.412   .     A
C209   C306    1.403   1_554 S
C210   Cl315   1.773   .     S
C210   C286    1.412   .     A
C210   C207    1.403   1_556 S
C211   Cl316   1.773   .     S
C211   C288    1.412   .     A
C211   C308    1.403   1_554 S
C212   O356    1.276   .     A
C212   O380    1.276   .     A
C212   C239    1.422   .     S
C213   O357    1.276   .     A
C213   C238    1.422   .     S
C213   O381    1.276   .     A
C214   O358    1.276   .     A
C214   C237    1.422   .     S
C214   O387    1.276   .     A
C215   O359    1.276   .     A
C215   C236    1.422   .     S
C215   O388    1.276   .     A
C216   O360    1.276   .     A
C216   C244    1.422   .     S
C216   O384    1.276   .     A
C217   C242    1.422   .     S
C217   O361    1.276   .     A
C217   O386    1.276   .     A
C218   O362    1.276   .     A
C218   O373    1.276   .     A
C218   C233    1.422   .     S
C219   C231    1.422   .     S
C219   O375    1.276   .     A
C219   O364    1.276   .     A
C220   O371    1.276   .     A
C220   C230    1.422   .     S
C220   O365    1.276   .     A
C221   O750    1.273   1_545 A
C221   C266    1.467   .     S
C221   O389    1.273   .     S
C222   C229    1.422   .     S
C222   O372    1.276   .     A
C222   O366    1.276   .     A
C223   O367    1.276   .     A
C223   C228    1.422   .     S
C223   O378    1.276   .     A
C224   O379    1.276   .     A
C224   O368    1.276   .     A
C224   C227    1.422   .     S
C225   O369    1.276   .     A
C225   C235    1.422   .     S
C225   O376    1.276   .     A
C226   O377    1.276   .     A
C226   C234    1.422   .     S
C226   O370    1.276   .     A
C227   C244    1.198   .     T
C228   C242    1.198   .     T
C229   C241    1.198   .     T
C230   C240    1.198   .     T
C231   C239    1.198   .     T
C232   C262    1.467   .     S
C232   O390    1.273   .     S
C233   C238    1.198   .     T
C234   C237    1.198   .     T
C235   C236    1.198   .     T
C241   C298    1.422   .     S
C243   C263    1.467   .     S
C243   O344    1.273   .     S
C245   H325    1.081   .     S
C245   C275    1.401   .     A
C245   C58     1.397   1_655 S
C246   C277    1.401   .     A
C246   H333    1.081   .     S
C246   C263    1.397   .     S
C247   C264    1.397   .     A
C247   H334    1.081   .     S
C247   C278    1.401   .     A
C248   H335    1.081   .     S
C248   C279    1.401   .     A
C248   C674    1.397   .     A
C249   C271    1.401   .     A
C249   C262    1.397   .     A
C249   H336    1.081   .     S
C250   C59     1.397   1_655 A
C250   C272    1.401   .     A
C250   H337    1.081   .     S
C251   C273    1.401   .     A
C251   H338    1.081   .     S
C251   C672    1.397   .     S
C252   H339    1.081   .     S
C252   C274    1.401   .     A
C252   C266    1.397   .     S
C253   C267    1.397   .     A
C253   H340    1.081   .     S
C253   C284    1.401   .     A
C254   C269    1.467   .     S
C254   O345    1.273   .     S
C254   O349    1.273   .     S
C255   C676    1.397   .     A
C255   C285    1.401   .     A
C255   H326    1.081   .     S
C256   H327    1.081   .     S
C256   C286    1.401   .     A
C256   C65     1.397   1_655 S
C257   C288    1.401   .     A
C257   H328    1.081   .     S
C257   C270    1.397   .     S
C258   H329    1.081   .     S
C258   C280    1.401   .     A
C258   C675    1.397   .     S
C259   C281    1.401   .     A
C259   H330    1.081   .     S
C259   C268    1.397   .     S
C260   C282    1.401   .     A
C260   H331    1.081   .     S
C260   C269    1.397   .     A
C261   C283    1.401   .     A
C261   C66     1.397   1_655 A
C261   H332    1.081   .     S
C264   C659    1.397   1_545 S
C265   C270    1.467   .     S
C265   O350    1.273   .     A
C265   O346    1.273   .     S
C266   C656    1.397   1_545 A
C267   C276    1.467   .     S
C267   C666    1.397   1_545 S
C268   C663    1.397   1_545 A
C268   C287    1.467   .     S
C271   C297    1.412   .     A
C271   C289    1.418   .     S
C272   C299    1.412   .     A
C272   C86     1.418   1_655 S
C273   C699    1.418   .     A
C273   C300    1.412   .     A
C274   C292    1.418   .     A
C274   C301    1.412   .     A
C275   C85     1.418   1_655 A
C275   C302    1.412   .     A
C276   O347    1.273   .     S
C276   O351    1.273   .     S
C277   C303    1.412   .     A
C277   C290    1.418   .     A
C278   C304    1.412   .     A
C278   C291    1.418   .     S
C279   C305    1.412   .     A
C279   C700    1.418   .     S
C280   C701    1.418   .     A
C280   C306    1.412   .     A
C281   C307    1.412   .     A
C281   C294    1.418   .     S
C282   C308    1.412   .     A
C282   C295    1.418   .     A
C283   C92     1.418   1_655 A
C284   C293    1.418   .     S
C285   C702    1.418   .     A
C286   C91     1.418   1_655 S
C287   O348    1.273   .     S
C287   O353    1.273   .     S
C288   C296    1.418   .     S
C289   C290    1.406   .     S
C291   C681    1.418   1_545 A
C291   C292    1.406   .     S
C292   C687    1.418   1_545 S
C293   C688    1.418   1_545 A
C293   C294    1.406   1_556 S
C294   C693    1.418   1_545 A
C294   C293    1.406   1_554 S
C295   C296    1.406   1_556 S
C296   C295    1.406   1_554 S
C297   C303    1.403   .     A
C297   Cl309   1.773   .     S
C298   O382    1.276   .     A
C298   O354    1.276   .     A
C299   C302    1.403   .     A
C299   Cl317   1.773   .     S
C300   C305    1.403   .     A
C300   Cl318   1.773   .     S
C301   C304    1.403   .     A
C301   Cl319   1.773   .     S
C302   Cl320   1.773   .     S
C303   Cl321   1.773   .     S
C304   Cl322   1.773   .     S
C305   Cl323   1.773   .     S
C306   Cl324   1.773   .     S
C306   C209    1.403   1_556 S
C307   Cl310   1.773   .     S
C307   C208    1.403   1_554 S
C308   Cl311   1.773   .     S
C308   C211    1.403   1_556 S
O341   Zn396   1.936   .     S
O341   Zn393   1.936   .     S
O341   Zn808   1.936   1_545 S
O341   Zn404   1.936   .     S
O342   Zn395   1.952   .     S
O342   C629    1.273   .     A
O343   C28     1.273   1_655 A
O343   Zn398   1.952   .     S
O344   Zn397   1.952   .     S
O345   Zn407   1.952   .     S
O346   Zn406   1.952   .     S
O347   Zn401   1.952   .     S
O348   Zn393   1.952   .     S
O349   Zn403   1.952   .     S
O350   Zn402   1.952   .     S
O351   Zn405   1.952   .     S
O352   Zn401   1.936   .     S
O352   Zn803   1.936   1_545 S
O352   Zn405   1.936   .     S
O352   Zn399   1.936   .     S
O353   Zn404   1.952   .     S
O354   Zn396   1.914   .     S
O355   Zn395   1.914   .     S
O356   Zn398   1.914   .     S
O357   Zn397   1.914   .     S
O358   Zn400   1.914   .     S
O359   Zn399   1.914   .     S
O360   Zn394   1.914   .     S
O361   Zn408   1.914   .     S
O362   Zn395   1.914   .     S
O363   Zn402   1.936   .     S
O363   Zn406   1.936   .     S
O363   Zn394   1.936   .     S
O364   Zn396   1.914   .     S
O365   Zn408   1.914   .     S
O366   Zn394   1.914   .     S
O367   Zn399   1.914   .     S
O368   Zn400   1.914   .     S
O369   Zn397   1.914   .     S
O370   Zn398   1.914   .     S
O371   Zn199   1.914   1_655 S
O372   Zn402   1.914   .     S
O373   Zn813   1.914   .     S
O374   Zn403   1.936   .     S
O374   Zn407   1.936   .     S
O374   Zn397   1.936   .     S
O375   Zn404   1.914   .     S
O376   Zn407   1.914   .     S
O377   Zn202   1.914   1_655 S
O378   Zn401   1.914   .     S
O379   Zn801   1.914   .     S
O380   Zn198   1.914   1_655 S
O381   Zn403   1.914   .     S
O382   Zn393   1.914   .     S
O383   Zn809   1.914   .     S
O384   Zn406   1.914   .     S
O385   Zn400   1.952   .     S
O385   C613    1.273   .     A
O386   Zn203   1.914   1_655 S
O387   Zn812   1.914   .     S
O388   Zn405   1.914   .     S
O389   Zn399   1.952   .     S
O390   Zn394   1.952   .     S
O391   Zn408   1.952   .     S
O391   C39     1.273   1_655 A
O392   Zn396   1.952   .     S
Zn393  O787    1.914   1_545 S
Zn395  O760    1.936   .     S
Zn398  O159    1.936   1_655 S
Zn400  O749    1.936   .     S
Zn401  O791    1.914   1_545 S
Zn404  O795    1.914   1_545 S
Zn405  O781    1.914   1_545 S
Zn408  O170    1.936   1_655 S
C409   C468    1.467   .     S
C409   O596    1.273   .     S
C410   O587    1.276   .     A
C410   C444    1.422   .     S
C410   O559    1.276   .     A
C411   C487    1.412   .     A
C411   Cl516   1.773   .     S
C411   C414    1.403   1_554 S
C412   Cl517   1.773   .     S
C412   C488    1.412   .     A
C412   C511    1.403   1_556 S
C413   Cl518   1.773   .     S
C413   C489    1.412   .     A
C413   C510    1.403   1_554 S
C414   Cl519   1.773   .     S
C414   C490    1.412   .     A
C414   C411    1.403   1_556 S
C415   Cl520   1.773   .     S
C415   C492    1.412   .     A
C415   C512    1.403   1_554 S
C416   O560    1.276   .     A
C416   O584    1.276   .     A
C416   C443    1.422   .     S
C417   O561    1.276   .     A
C417   C442    1.422   .     S
C417   O585    1.276   .     A
C418   O562    1.276   .     A
C418   C441    1.422   .     S
C418   O591    1.276   .     A
C419   O563    1.276   .     A
C419   C440    1.422   .     S
C419   O592    1.276   .     A
C420   O564    1.276   .     A
C420   C448    1.422   .     S
C420   O588    1.276   .     A
C421   C446    1.422   .     S
C421   O565    1.276   .     A
C421   O590    1.276   .     A
C422   O566    1.276   .     A
C422   O577    1.276   .     A
C422   C437    1.422   .     S
C423   C435    1.422   .     S
C423   O579    1.276   .     A
C423   O568    1.276   .     A
C424   O575    1.276   .     A
C424   C434    1.422   .     S
C424   O569    1.276   .     A
C425   C470    1.467   .     S
C425   O593    1.273   .     S
C426   C433    1.422   .     S
C426   O576    1.276   .     A
C426   O570    1.276   .     A
C427   O571    1.276   .     A
C427   C432    1.422   .     S
C427   O582    1.276   .     A
C428   O583    1.276   .     A
C428   O572    1.276   .     A
C428   C431    1.422   .     S
C429   O573    1.276   .     A
C429   C439    1.422   .     S
C429   O580    1.276   .     A
C430   O581    1.276   .     A
C430   C438    1.422   .     S
C430   O574    1.276   .     A
C431   C448    1.198   .     T
C432   C446    1.198   .     T
C433   C445    1.198   .     T
C434   C444    1.198   .     T
C435   C443    1.198   .     T
C436   O751    1.273   1_455 A
C436   C466    1.467   .     S
C436   O594    1.273   .     S
C437   C442    1.198   .     T
C438   C441    1.198   .     T
C439   C440    1.198   .     T
C445   C502    1.422   .     S
C447   C467    1.467   .     S
C447   O799    1.273   1_455 A
C447   O548    1.273   .     S
C449   H529    1.081   .     S
C449   C479    1.401   .     A
C449   C670    1.397   .     S
C450   C481    1.401   .     A
C450   H537    1.081   .     S
C450   C467    1.397   .     S
C451   C468    1.397   .     A
C451   H538    1.081   .     S
C451   C482    1.401   .     A
C452   H539    1.081   .     S
C452   C483    1.401   .     A
C452   C62     1.397   1_565 A
C453   C475    1.401   .     A
C453   C466    1.397   .     A
C453   H540    1.081   .     S
C454   C671    1.397   .     A
C454   C476    1.401   .     A
C454   H541    1.081   .     S
C455   C477    1.401   .     A
C455   H542    1.081   .     S
C455   C60     1.397   1_565 S
C456   H543    1.081   .     S
C456   C478    1.401   .     A
C456   C470    1.397   .     S
C457   C471    1.397   .     A
C457   H544    1.081   .     S
C457   C488    1.401   .     A
C458   C473    1.467   .     S
C458   O549    1.273   .     S
C458   O553    1.273   .     S
C459   C64     1.397   1_565 A
C459   C489    1.401   .     A
C459   H530    1.081   .     S
C460   H531    1.081   .     S
C460   C490    1.401   .     A
C460   C677    1.397   .     S
C461   C492    1.401   .     A
C461   H532    1.081   .     S
C461   C474    1.397   .     S
C462   H533    1.081   .     S
C462   C484    1.401   .     A
C462   C63     1.397   1_565 S
C463   C485    1.401   .     A
C463   H534    1.081   .     S
C463   C472    1.397   .     S
C464   C486    1.401   .     A
C464   H535    1.081   .     S
C464   C473    1.397   .     A
C465   C487    1.401   .     A
C465   C678    1.397   .     A
C465   H536    1.081   .     S
C466   C653    1.397   1_455 S
C467   C658    1.397   1_455 A
C469   C474    1.467   .     S
C469   O554    1.273   .     A
C469   O550    1.273   .     S
C471   C480    1.467   .     S
C472   C491    1.467   .     S
C473   C664    1.397   1_455 S
C474   C669    1.397   1_455 A
C475   C501    1.412   .     A
C475   C493    1.418   .     S
C476   C503    1.412   .     A
C476   C698    1.418   .     S
C477   C87     1.418   1_565 A
C477   C504    1.412   .     A
C478   C496    1.418   .     A
C478   C505    1.412   .     A
C479   C697    1.418   .     A
C479   C506    1.412   .     A
C480   O551    1.273   .     S
C480   O555    1.273   .     S
C481   C507    1.412   .     A
C481   C494    1.418   .     A
C482   C508    1.412   .     A
C482   C495    1.418   .     S
C483   C509    1.412   .     A
C483   C88     1.418   1_565 S
C484   C89     1.418   1_565 A
C484   C510    1.412   .     A
C485   C511    1.412   .     A
C485   C498    1.418   .     S
C486   C512    1.412   .     A
C486   C499    1.418   .     A
C487   C704    1.418   .     A
C488   C497    1.418   .     S
C489   C90     1.418   1_565 A
C490   C703    1.418   .     S
C491   O552    1.273   .     S
C491   O557    1.273   .     S
C492   C500    1.418   .     S
C493   C683    1.418   1_455 A
C493   C494    1.406   .     S
C494   C680    1.418   1_455 S
C495   C496    1.406   .     S
C497   C498    1.406   1_556 S
C498   C497    1.406   1_554 S
C499   C694    1.418   1_455 S
C499   C500    1.406   1_556 S
C500   C691    1.418   1_455 A
C500   C499    1.406   1_554 S
C501   C507    1.403   .     A
C501   Cl513   1.773   .     S
C502   O586    1.276   .     A
C502   O558    1.276   .     A
C503   C506    1.403   .     A
C503   Cl521   1.773   .     S
C504   C509    1.403   .     A
C504   Cl522   1.773   .     S
C505   C508    1.403   .     A
C505   Cl523   1.773   .     S
C506   Cl524   1.773   .     S
C507   Cl525   1.773   .     S
C508   Cl526   1.773   .     S
C509   Cl527   1.773   .     S
C510   Cl528   1.773   .     S
C510   C413    1.403   1_556 S
C511   Cl514   1.773   .     S
C511   C412    1.403   1_554 S
C512   Cl515   1.773   .     S
C512   C415    1.403   1_556 S
O545   Zn600   1.936   .     S
O545   Zn597   1.936   .     S
O545   Zn608   1.936   .     S
O546   Zn599   1.952   .     S
O546   C17     1.273   1_565 A
O547   C640    1.273   .     A
O547   Zn602   1.952   .     S
O548   Zn601   1.952   .     S
O549   Zn611   1.952   .     S
O550   Zn610   1.952   .     S
O551   Zn605   1.952   .     S
O552   Zn597   1.952   .     S
O553   Zn607   1.952   .     S
O554   Zn606   1.952   .     S
O555   Zn609   1.952   .     S
O556   Zn605   1.936   .     S
O556   Zn609   1.936   .     S
O556   Zn603   1.936   .     S
O557   Zn608   1.952   .     S
O558   Zn600   1.914   .     S
O559   Zn599   1.914   .     S
O560   Zn602   1.914   .     S
O561   Zn601   1.914   .     S
O562   Zn604   1.914   .     S
O563   Zn603   1.914   .     S
O564   Zn598   1.914   .     S
O565   Zn612   1.914   .     S
O566   Zn599   1.914   .     S
O567   Zn806   1.936   1_455 S
O567   Zn606   1.936   .     S
O567   Zn610   1.936   .     S
O567   Zn598   1.936   .     S
O568   Zn600   1.914   .     S
O569   Zn612   1.914   .     S
O570   Zn598   1.914   .     S
O571   Zn603   1.914   .     S
O572   Zn604   1.914   .     S
O573   Zn601   1.914   .     S
O574   Zn602   1.914   .     S
O575   Zn811   1.914   .     S
O576   Zn606   1.914   .     S
O577   Zn201   1.914   1_565 S
O578   Zn816   1.936   1_455 S
O578   Zn607   1.936   .     S
O578   Zn611   1.936   .     S
O578   Zn601   1.936   .     S
O579   Zn608   1.914   .     S
O580   Zn611   1.914   .     S
O581   Zn814   1.914   .     S
O582   Zn605   1.914   .     S
O583   Zn189   1.914   1_565 S
O584   Zn810   1.914   .     S
O585   Zn607   1.914   .     S
O586   Zn597   1.914   .     S
O587   Zn197   1.914   1_565 S
O588   Zn610   1.914   .     S
O589   Zn604   1.952   .     S
O589   C1      1.273   1_565 A
O590   Zn815   1.914   .     S
O591   Zn200   1.914   1_565 S
O592   Zn609   1.914   .     S
O593   Zn603   1.952   .     S
O594   Zn598   1.952   .     S
O595   Zn612   1.952   .     S
O595   C651    1.273   .     A
O596   Zn600   1.952   .     S
Zn599  O148    1.936   1_565 S
Zn602  O771    1.936   .     S
Zn604  O137    1.936   1_565 S
Zn606  O788    1.914   1_455 S
Zn607  O779    1.914   1_455 S
Zn610  O785    1.914   1_455 S
Zn611  O794    1.914   1_455 S
Zn612  O782    1.936   .     S
C613   C672    1.467   .     S
C613   O800    1.273   .     S
C614   O791    1.276   .     A
C614   C648    1.422   .     S
C614   O763    1.276   .     A
C615   C691    1.412   .     A
C615   Cl720   1.773   .     S
C615   C618    1.403   1_554 S
C616   Cl721   1.773   .     S
C616   C692    1.412   .     A
C616   C715    1.403   1_556 S
C617   Cl722   1.773   .     S
C617   C693    1.412   .     A
C617   C714    1.403   1_554 S
C618   Cl723   1.773   .     S
C618   C694    1.412   .     A
C618   C615    1.403   1_556 S
C619   Cl724   1.773   .     S
C619   C696    1.412   .     A
C619   C716    1.403   1_554 S
C620   O764    1.276   .     A
C620   O788    1.276   .     A
C620   C647    1.422   .     S
C621   O765    1.276   .     A
C621   C646    1.422   .     S
C621   O789    1.276   .     A
C622   O766    1.276   .     A
C622   C645    1.422   .     S
C622   O795    1.276   .     A
C623   O767    1.276   .     A
C623   C644    1.422   .     S
C623   O796    1.276   .     A
C624   O768    1.276   .     A
C624   C652    1.422   .     S
C624   O792    1.276   .     A
C625   C650    1.422   .     S
C625   O769    1.276   .     A
C625   O794    1.276   .     A
C626   O770    1.276   .     A
C626   O781    1.276   .     A
C626   C641    1.422   .     S
C627   C639    1.422   .     S
C627   O783    1.276   .     A
C627   O772    1.276   .     A
C628   O779    1.276   .     A
C628   C638    1.422   .     S
C628   O773    1.276   .     A
C629   C674    1.467   .     S
C629   O797    1.273   .     S
C630   C637    1.422   .     S
C630   O780    1.276   .     A
C630   O774    1.276   .     A
C631   O775    1.276   .     A
C631   C636    1.422   .     S
C631   O786    1.276   .     A
C632   O787    1.276   .     A
C632   O776    1.276   .     A
C632   C635    1.422   .     S
C633   O777    1.276   .     A
C633   C643    1.422   .     S
C633   O784    1.276   .     A
C634   O785    1.276   .     A
C634   C642    1.422   .     S
C634   O778    1.276   .     A
C635   C652    1.198   .     T
C636   C650    1.198   .     T
C637   C649    1.198   .     T
C638   C648    1.198   .     T
C639   C647    1.198   .     T
C640   C670    1.467   .     S
C640   O798    1.273   .     S
C641   C646    1.198   .     T
C642   C645    1.198   .     T
C643   C644    1.198   .     T
C649   C706    1.422   .     S
C651   C671    1.467   .     S
C651   O752    1.273   .     S
C653   H733    1.081   .     S
C653   C683    1.401   .     A
C653   C466    1.397   1_655 S
C654   C685    1.401   .     A
C654   H741    1.081   .     S
C654   C671    1.397   .     S
C655   C672    1.397   .     A
C655   H742    1.081   .     S
C655   C686    1.401   .     A
C656   H743    1.081   .     S
C656   C687    1.401   .     A
C656   C266    1.397   1_565 A
C657   C679    1.401   .     A
C657   C670    1.397   .     A
C657   H744    1.081   .     S
C658   C467    1.397   1_655 A
C658   C680    1.401   .     A
C658   H745    1.081   .     S
C659   C681    1.401   .     A
C659   H746    1.081   .     S
C659   C264    1.397   1_565 S
C660   H747    1.081   .     S
C660   C682    1.401   .     A
C660   C674    1.397   .     S
C661   C675    1.397   .     A
C661   H748    1.081   .     S
C661   C692    1.401   .     A
C662   C677    1.467   .     S
C662   O753    1.273   .     S
C662   O757    1.273   .     S
C663   C268    1.397   1_565 A
C663   C693    1.401   .     A
C663   H734    1.081   .     S
C664   H735    1.081   .     S
C664   C694    1.401   .     A
C664   C473    1.397   1_655 S
C665   C696    1.401   .     A
C665   H736    1.081   .     S
C665   C678    1.397   .     S
C666   H737    1.081   .     S
C666   C688    1.401   .     A
C666   C267    1.397   1_565 S
C667   C689    1.401   .     A
C667   H738    1.081   .     S
C667   C676    1.397   .     S
C668   C690    1.401   .     A
C668   H739    1.081   .     S
C668   C677    1.397   .     A
C669   C691    1.401   .     A
C669   C474    1.397   1_655 A
C669   H740    1.081   .     S
C673   C678    1.467   .     S
C673   O758    1.273   .     A
C673   O754    1.273   .     S
C675   C684    1.467   .     S
C676   C695    1.467   .     S
C679   C705    1.412   .     A
C679   C697    1.418   .     S
C680   C707    1.412   .     A
C680   C494    1.418   1_655 S
C681   C291    1.418   1_565 A
C681   C708    1.412   .     A
C682   C700    1.418   .     A
C682   C709    1.412   .     A
C683   C493    1.418   1_655 A
C683   C710    1.412   .     A
C684   O755    1.273   .     S
C684   O759    1.273   .     S
C685   C711    1.412   .     A
C685   C698    1.418   .     A
C686   C712    1.412   .     A
C686   C699    1.418   .     S
C687   C713    1.412   .     A
C687   C292    1.418   1_565 S
C688   C293    1.418   1_565 A
C688   C714    1.412   .     A
C689   C715    1.412   .     A
C689   C702    1.418   .     S
C690   C716    1.412   .     A
C690   C703    1.418   .     A
C691   C500    1.418   1_655 A
C692   C701    1.418   .     S
C693   C294    1.418   1_565 A
C694   C499    1.418   1_655 S
C695   O756    1.273   .     S
C695   O761    1.273   .     S
C696   C704    1.418   .     S
C697   C698    1.406   .     S
C699   C700    1.406   .     S
C701   C702    1.406   1_556 S
C702   C701    1.406   1_554 S
C703   C704    1.406   1_556 S
C704   C703    1.406   1_554 S
C705   C711    1.403   .     A
C705   Cl717   1.773   .     S
C706   O790    1.276   .     A
C706   O762    1.276   .     A
C707   C710    1.403   .     A
C707   Cl725   1.773   .     S
C708   C713    1.403   .     A
C708   Cl726   1.773   .     S
C709   C712    1.403   .     A
C709   Cl727   1.773   .     S
C710   Cl728   1.773   .     S
C711   Cl729   1.773   .     S
C712   Cl730   1.773   .     S
C713   Cl731   1.773   .     S
C714   Cl732   1.773   .     S
C714   C617    1.403   1_556 S
C715   Cl718   1.773   .     S
C715   C616    1.403   1_554 S
C716   Cl719   1.773   .     S
C716   C619    1.403   1_556 S
O749   Zn804   1.936   .     S
O749   Zn801   1.936   .     S
O749   Zn812   1.936   .     S
O750   Zn803   1.952   .     S
O750   C221    1.273   1_565 A
O751   C436    1.273   1_655 A
O751   Zn806   1.952   .     S
O752   Zn805   1.952   .     S
O753   Zn815   1.952   .     S
O754   Zn814   1.952   .     S
O755   Zn809   1.952   .     S
O756   Zn801   1.952   .     S
O757   Zn811   1.952   .     S
O758   Zn810   1.952   .     S
O759   Zn813   1.952   .     S
O760   Zn809   1.936   .     S
O760   Zn813   1.936   .     S
O760   Zn807   1.936   .     S
O761   Zn812   1.952   .     S
O762   Zn804   1.914   .     S
O763   Zn803   1.914   .     S
O764   Zn806   1.914   .     S
O765   Zn805   1.914   .     S
O766   Zn808   1.914   .     S
O767   Zn807   1.914   .     S
O768   Zn802   1.914   .     S
O769   Zn816   1.914   .     S
O770   Zn803   1.914   .     S
O771   Zn810   1.936   .     S
O771   Zn814   1.936   .     S
O771   Zn802   1.936   .     S
O772   Zn804   1.914   .     S
O773   Zn816   1.914   .     S
O774   Zn802   1.914   .     S
O775   Zn807   1.914   .     S
O776   Zn808   1.914   .     S
O777   Zn805   1.914   .     S
O778   Zn806   1.914   .     S
O779   Zn607   1.914   1_655 S
O780   Zn810   1.914   .     S
O781   Zn405   1.914   1_565 S
O782   Zn811   1.936   .     S
O782   Zn815   1.936   .     S
O782   Zn805   1.936   .     S
O783   Zn812   1.914   .     S
O784   Zn815   1.914   .     S
O785   Zn610   1.914   1_655 S
O786   Zn809   1.914   .     S
O787   Zn393   1.914   1_565 S
O788   Zn606   1.914   1_655 S
O789   Zn811   1.914   .     S
O790   Zn801   1.914   .     S
O791   Zn401   1.914   1_565 S
O792   Zn814   1.914   .     S
O793   Zn808   1.952   .     S
O793   C205    1.273   1_565 A
O794   Zn611   1.914   1_655 S
O795   Zn404   1.914   1_565 S
O796   Zn813   1.914   .     S
O797   Zn807   1.952   .     S
O798   Zn802   1.952   .     S
O799   Zn816   1.952   .     S
O799   C447    1.273   1_655 A
O800   Zn804   1.952   .     S
Zn803  O352    1.936   1_565 S
Zn806  O567    1.936   1_655 S
Zn808  O341    1.936   1_565 S
Zn816  O578    1.936   1_655 S
