data_str_m3_o1_o17_pcu_sym.2
_audit_creation_date              2020-01-03
_audit_creation_method            'Materials Studio'
_symmetry_space_group_name_H-M    'P1'
_symmetry_Int_Tables_number       1
_symmetry_cell_setting            triclinic
loop_
_symmetry_equiv_pos_as_xyz
  x,y,z
_cell_length_a                    32.1404
_cell_length_b                    29.8572
_cell_length_c                    29.8154
_cell_angle_alpha                 90.0464
_cell_angle_beta                  92.1445
_cell_angle_gamma                 89.9547
loop_
_atom_site_label
_atom_site_type_symbol
_atom_site_fract_x
_atom_site_fract_y
_atom_site_fract_z
_atom_site_U_iso_or_equiv
_atom_site_adp_type
_atom_site_occupancy
C1     C     0.08674   0.16666   0.24995   0.00000  Uiso   1.00
C2     C     0.04252   0.16662   0.24990   0.00000  Uiso   1.00
C3     C     0.19159   0.02397   0.28000   0.00000  Uiso   1.00
C4     C     0.13921   0.30946   0.22262   0.00000  Uiso   1.00
C5     C     0.14172   0.02399   0.22000   0.00000  Uiso   1.00
C6     C     0.19409   0.30943   0.27746   0.00000  Uiso   1.00
C7     C     0.16614   0.16661   0.16375   0.00000  Uiso   1.00
C8     C     0.16716   0.16671   0.33625   0.00000  Uiso   1.00
C9     C     0.20651   0.16402   0.40821   0.00000  Uiso   1.00
C10    C     0.12673   0.16866   0.09180   0.00000  Uiso   1.00
C11    C     0.16849   0.16692   0.38395   0.00000  Uiso   1.00
C12    C     0.24660   0.16665   0.25000   0.00000  Uiso   1.00
C13    C     0.16478   0.16629   0.11605   0.00000  Uiso   1.00
C14    C     0.13091   0.17225   0.40448   0.00000  Uiso   1.00
C15    C     0.20237   0.16104   0.09552   0.00000  Uiso   1.00
C16    C     0.12962   0.17469   0.45090   0.00000  Uiso   1.00
C17    C     0.20362   0.15827   0.04911   0.00000  Uiso   1.00
C18    C     0.16711   0.16732   0.47656   0.00000  Uiso   1.00
C19    C     0.16612   0.16548   0.02345   0.00000  Uiso   1.00
C20    C     0.20560   0.16166   0.45526   0.00000  Uiso   1.00
C21    C     0.12762   0.17101   0.04476   0.00000  Uiso   1.00
C22    C     0.09184   0.18320   0.47224   0.00000  Uiso   1.00
C23    C     0.09144   0.18095   0.01888   0.00000  Uiso   1.00
C24    C     0.24138   0.14961   0.02780   0.00000  Uiso   1.00
C25    C     0.24610   0.16465   0.38361   0.00000  Uiso   1.00
C26    C     0.08713   0.16742   0.11638   0.00000  Uiso   1.00
C27    C     0.05281   0.19672   0.44716   0.00000  Uiso   1.00
C28    C     0.28040   0.13612   0.05292   0.00000  Uiso   1.00
C29    C     0.21458   0.04815   0.31648   0.00000  Uiso   1.00
C30    C     0.10546   0.28557   0.19728   0.00000  Uiso   1.00
C31    C     0.11881   0.04813   0.18337   0.00000  Uiso   1.00
C32    C     0.22774   0.28548   0.30304   0.00000  Uiso   1.00
C33    C     0.24176   0.15165   0.48115   0.00000  Uiso   1.00
C34    C     0.02130   0.12576   0.24901   0.00000  Uiso   1.00
C35    C     0.31204   0.20741   0.25059   0.00000  Uiso   1.00
C36    C     0.31203   0.12575   0.24914   0.00000  Uiso   1.00
C37    C     0.02129   0.20742   0.25078   0.00000  Uiso   1.00
C38    C     0.29081   0.16659   0.24993   0.00000  Uiso   1.00
H39    H     0.10288   0.17406   0.38333   0.00000  Uiso   1.00
H40    H     0.08504   0.18406   0.14854   0.00000  Uiso   1.00
H41    H     0.05345   0.21011   0.41346   0.00000  Uiso   1.00
H42    H     0.27976   0.12303   0.08675   0.00000  Uiso   1.00
H43    H     0.23081   0.07882   0.31015   0.00000  Uiso   1.00
H44    H     0.11055   0.25338   0.18243   0.00000  Uiso   1.00
H45    H     0.10341   0.07947   0.18926   0.00000  Uiso   1.00
H46    H     0.22281   0.25305   0.31744   0.00000  Uiso   1.00
H47    H     0.23043   0.15948   0.11665   0.00000  Uiso   1.00
H48    H     0.06280   0.18914   0.03491   0.00000  Uiso   1.00
H49    H     0.27038   0.14336   0.46513   0.00000  Uiso   1.00
H50    H     0.03743   0.09390   0.24827   0.00000  Uiso   1.00
H51    H     0.29595   0.23927   0.25097   0.00000  Uiso   1.00
H52    H     0.29590   0.09389   0.24856   0.00000  Uiso   1.00
H53    H     0.03739   0.23927   0.25168   0.00000  Uiso   1.00
H54    H     0.24804   0.14760   0.35165   0.00000  Uiso   1.00
N55    N     0.16667   0.28573   0.25000   0.00000  Uiso   1.00
N56    N     0.16667   0.04760   0.25000   0.00000  Uiso   1.00
O57    O     0.10559   0.20487   0.25000   0.00000  Uiso   1.00
O58    O     0.05738   0.14548   0.10229   0.00000  Uiso   1.00
O59    O     0.01907   0.19401   0.46446   0.00000  Uiso   1.00
O60    O     0.31412   0.13850   0.03553   0.00000  Uiso   1.00
O61    O     0.21513   0.03385   0.35487   0.00000  Uiso   1.00
O62    O     0.07061   0.30176   0.19335   0.00000  Uiso   1.00
O63    O     0.11749   0.03314   0.14523   0.00000  Uiso   1.00
O64    O     0.26244   0.30187   0.30764   0.00000  Uiso   1.00
O65    O     0.22774   0.12846   0.25001   0.00000  Uiso   1.00
O66    O     0.22774   0.20487   0.25001   0.00000  Uiso   1.00
O67    O     0.10559   0.12846   0.25000   0.00000  Uiso   1.00
O68    O     0.16666   0.20489   0.18393   0.00000  Uiso   1.00
O69    O     0.16667   0.12844   0.31608   0.00000  Uiso   1.00
O70    O     0.16667   0.20489   0.31608   0.00000  Uiso   1.00
O71    O     0.16666   0.12844   0.18393   0.00000  Uiso   1.00
O72    O     0.27600   0.18650   0.39745   0.00000  Uiso   1.00
Zn73   Zn    0.16667   0.21771   0.25000   0.00000  Uiso   1.00
Zn74   Zn    0.16667   0.11563   0.25000   0.00000  Uiso   1.00
C75    C     0.42007   0.16666   0.24995   0.00000  Uiso   1.00
C76    C     0.37586   0.16662   0.24990   0.00000  Uiso   1.00
C77    C     0.52493   0.02397   0.28000   0.00000  Uiso   1.00
C78    C     0.47254   0.30946   0.22262   0.00000  Uiso   1.00
C79    C     0.47505   0.02399   0.22000   0.00000  Uiso   1.00
C80    C     0.52742   0.30943   0.27746   0.00000  Uiso   1.00
C81    C     0.49948   0.16661   0.16375   0.00000  Uiso   1.00
C82    C     0.50049   0.16671   0.33625   0.00000  Uiso   1.00
C83    C     0.53984   0.16402   0.40821   0.00000  Uiso   1.00
C84    C     0.46006   0.16866   0.09180   0.00000  Uiso   1.00
C85    C     0.50183   0.16692   0.38395   0.00000  Uiso   1.00
C86    C     0.57993   0.16665   0.25000   0.00000  Uiso   1.00
C87    C     0.49811   0.16629   0.11605   0.00000  Uiso   1.00
C88    C     0.46424   0.17225   0.40448   0.00000  Uiso   1.00
C89    C     0.53571   0.16104   0.09552   0.00000  Uiso   1.00
C90    C     0.46296   0.17469   0.45090   0.00000  Uiso   1.00
C91    C     0.53695   0.15827   0.04911   0.00000  Uiso   1.00
C92    C     0.50044   0.16732   0.47656   0.00000  Uiso   1.00
C93    C     0.49945   0.16548   0.02345   0.00000  Uiso   1.00
C94    C     0.53893   0.16166   0.45526   0.00000  Uiso   1.00
C95    C     0.46095   0.17101   0.04476   0.00000  Uiso   1.00
C96    C     0.42517   0.18320   0.47224   0.00000  Uiso   1.00
C97    C     0.42477   0.18095   0.01888   0.00000  Uiso   1.00
C98    C     0.57471   0.14961   0.02780   0.00000  Uiso   1.00
C99    C     0.57943   0.16465   0.38361   0.00000  Uiso   1.00
C100   C     0.42046   0.16742   0.11638   0.00000  Uiso   1.00
C101   C     0.38614   0.19672   0.44716   0.00000  Uiso   1.00
C102   C     0.61373   0.13612   0.05292   0.00000  Uiso   1.00
C103   C     0.54791   0.04815   0.31648   0.00000  Uiso   1.00
C104   C     0.43880   0.28557   0.19728   0.00000  Uiso   1.00
C105   C     0.45214   0.04813   0.18337   0.00000  Uiso   1.00
C106   C     0.56107   0.28548   0.30304   0.00000  Uiso   1.00
C107   C     0.57509   0.15165   0.48115   0.00000  Uiso   1.00
C108   C     0.35464   0.12576   0.24901   0.00000  Uiso   1.00
C109   C     0.64537   0.20741   0.25059   0.00000  Uiso   1.00
C110   C     0.64536   0.12575   0.24914   0.00000  Uiso   1.00
C111   C     0.35462   0.20742   0.25078   0.00000  Uiso   1.00
C112   C     0.62414   0.16659   0.24993   0.00000  Uiso   1.00
H113   H     0.43621   0.17406   0.38333   0.00000  Uiso   1.00
H114   H     0.41837   0.18406   0.14854   0.00000  Uiso   1.00
H115   H     0.38678   0.21011   0.41346   0.00000  Uiso   1.00
H116   H     0.61310   0.12303   0.08675   0.00000  Uiso   1.00
H117   H     0.56414   0.07882   0.31015   0.00000  Uiso   1.00
H118   H     0.44388   0.25338   0.18243   0.00000  Uiso   1.00
H119   H     0.43674   0.07947   0.18926   0.00000  Uiso   1.00
H120   H     0.55615   0.25305   0.31744   0.00000  Uiso   1.00
H121   H     0.56376   0.15948   0.11665   0.00000  Uiso   1.00
H122   H     0.39613   0.18914   0.03491   0.00000  Uiso   1.00
H123   H     0.60371   0.14336   0.46513   0.00000  Uiso   1.00
H124   H     0.37076   0.09390   0.24827   0.00000  Uiso   1.00
H125   H     0.62928   0.23927   0.25097   0.00000  Uiso   1.00
H126   H     0.62923   0.09389   0.24856   0.00000  Uiso   1.00
H127   H     0.37072   0.23927   0.25168   0.00000  Uiso   1.00
H128   H     0.58137   0.14760   0.35165   0.00000  Uiso   1.00
N129   N     0.50000   0.28573   0.25000   0.00000  Uiso   1.00
N130   N     0.50000   0.04760   0.25000   0.00000  Uiso   1.00
O131   O     0.43892   0.20487   0.25000   0.00000  Uiso   1.00
O132   O     0.39071   0.14548   0.10229   0.00000  Uiso   1.00
O133   O     0.35240   0.19401   0.46446   0.00000  Uiso   1.00
O134   O     0.64746   0.13850   0.03553   0.00000  Uiso   1.00
O135   O     0.54846   0.03385   0.35487   0.00000  Uiso   1.00
O136   O     0.40394   0.30176   0.19335   0.00000  Uiso   1.00
O137   O     0.45083   0.03314   0.14523   0.00000  Uiso   1.00
O138   O     0.59577   0.30187   0.30764   0.00000  Uiso   1.00
O139   O     0.56108   0.12846   0.25001   0.00000  Uiso   1.00
O140   O     0.56108   0.20487   0.25001   0.00000  Uiso   1.00
O141   O     0.43892   0.12846   0.25000   0.00000  Uiso   1.00
O142   O     0.49999   0.20489   0.18393   0.00000  Uiso   1.00
O143   O     0.50001   0.12844   0.31608   0.00000  Uiso   1.00
O144   O     0.50001   0.20489   0.31608   0.00000  Uiso   1.00
O145   O     0.49999   0.12844   0.18393   0.00000  Uiso   1.00
O146   O     0.60933   0.18650   0.39745   0.00000  Uiso   1.00
Zn147  Zn    0.50000   0.21771   0.25000   0.00000  Uiso   1.00
Zn148  Zn    0.50000   0.11563   0.25000   0.00000  Uiso   1.00
C149   C     0.75341   0.16666   0.24995   0.00000  Uiso   1.00
C150   C     0.70919   0.16662   0.24990   0.00000  Uiso   1.00
C151   C     0.85826   0.02397   0.28000   0.00000  Uiso   1.00
C152   C     0.80587   0.30946   0.22262   0.00000  Uiso   1.00
C153   C     0.80838   0.02399   0.22000   0.00000  Uiso   1.00
C154   C     0.86076   0.30943   0.27746   0.00000  Uiso   1.00
C155   C     0.83281   0.16661   0.16375   0.00000  Uiso   1.00
C156   C     0.83383   0.16671   0.33625   0.00000  Uiso   1.00
C157   C     0.87317   0.16402   0.40821   0.00000  Uiso   1.00
C158   C     0.79339   0.16866   0.09180   0.00000  Uiso   1.00
C159   C     0.83516   0.16692   0.38395   0.00000  Uiso   1.00
C160   C     0.91326   0.16665   0.25000   0.00000  Uiso   1.00
C161   C     0.83145   0.16629   0.11605   0.00000  Uiso   1.00
C162   C     0.79758   0.17225   0.40448   0.00000  Uiso   1.00
C163   C     0.86904   0.16104   0.09552   0.00000  Uiso   1.00
C164   C     0.79629   0.17469   0.45090   0.00000  Uiso   1.00
C165   C     0.87029   0.15827   0.04911   0.00000  Uiso   1.00
C166   C     0.83378   0.16732   0.47656   0.00000  Uiso   1.00
C167   C     0.83278   0.16548   0.02345   0.00000  Uiso   1.00
C168   C     0.87227   0.16166   0.45526   0.00000  Uiso   1.00
C169   C     0.79428   0.17101   0.04476   0.00000  Uiso   1.00
C170   C     0.75851   0.18320   0.47224   0.00000  Uiso   1.00
C171   C     0.75810   0.18095   0.01888   0.00000  Uiso   1.00
C172   C     0.90805   0.14961   0.02780   0.00000  Uiso   1.00
C173   C     0.91277   0.16465   0.38361   0.00000  Uiso   1.00
C174   C     0.75379   0.16742   0.11638   0.00000  Uiso   1.00
C175   C     0.71948   0.19672   0.44716   0.00000  Uiso   1.00
C176   C     0.94707   0.13612   0.05292   0.00000  Uiso   1.00
C177   C     0.88124   0.04815   0.31648   0.00000  Uiso   1.00
C178   C     0.77213   0.28557   0.19728   0.00000  Uiso   1.00
C179   C     0.78547   0.04813   0.18337   0.00000  Uiso   1.00
C180   C     0.89441   0.28548   0.30304   0.00000  Uiso   1.00
C181   C     0.90842   0.15165   0.48115   0.00000  Uiso   1.00
C182   C     0.68797   0.12576   0.24901   0.00000  Uiso   1.00
C183   C     0.97871   0.20741   0.25059   0.00000  Uiso   1.00
C184   C     0.97870   0.12575   0.24914   0.00000  Uiso   1.00
C185   C     0.68796   0.20742   0.25078   0.00000  Uiso   1.00
C186   C     0.95748   0.16659   0.24993   0.00000  Uiso   1.00
H187   H     0.76955   0.17406   0.38333   0.00000  Uiso   1.00
H188   H     0.75170   0.18406   0.14854   0.00000  Uiso   1.00
H189   H     0.72011   0.21011   0.41346   0.00000  Uiso   1.00
H190   H     0.94643   0.12303   0.08675   0.00000  Uiso   1.00
H191   H     0.89748   0.07882   0.31015   0.00000  Uiso   1.00
H192   H     0.77722   0.25338   0.18243   0.00000  Uiso   1.00
H193   H     0.77007   0.07947   0.18926   0.00000  Uiso   1.00
H194   H     0.88948   0.25305   0.31744   0.00000  Uiso   1.00
H195   H     0.89710   0.15948   0.11665   0.00000  Uiso   1.00
H196   H     0.72947   0.18914   0.03491   0.00000  Uiso   1.00
H197   H     0.93705   0.14336   0.46513   0.00000  Uiso   1.00
H198   H     0.70410   0.09390   0.24827   0.00000  Uiso   1.00
H199   H     0.96262   0.23927   0.25097   0.00000  Uiso   1.00
H200   H     0.96257   0.09389   0.24856   0.00000  Uiso   1.00
H201   H     0.70405   0.23927   0.25168   0.00000  Uiso   1.00
H202   H     0.91471   0.14760   0.35165   0.00000  Uiso   1.00
N203   N     0.83333   0.28573   0.25000   0.00000  Uiso   1.00
N204   N     0.83333   0.04760   0.25000   0.00000  Uiso   1.00
O205   O     0.77226   0.20487   0.25000   0.00000  Uiso   1.00
O206   O     0.72404   0.14548   0.10229   0.00000  Uiso   1.00
O207   O     0.68573   0.19401   0.46446   0.00000  Uiso   1.00
O208   O     0.98079   0.13850   0.03553   0.00000  Uiso   1.00
O209   O     0.88179   0.03385   0.35487   0.00000  Uiso   1.00
O210   O     0.73728   0.30176   0.19335   0.00000  Uiso   1.00
O211   O     0.78416   0.03314   0.14523   0.00000  Uiso   1.00
O212   O     0.92911   0.30187   0.30764   0.00000  Uiso   1.00
O213   O     0.89441   0.12846   0.25001   0.00000  Uiso   1.00
O214   O     0.89441   0.20487   0.25001   0.00000  Uiso   1.00
O215   O     0.77226   0.12846   0.25000   0.00000  Uiso   1.00
O216   O     0.83333   0.20489   0.18393   0.00000  Uiso   1.00
O217   O     0.83334   0.12844   0.31608   0.00000  Uiso   1.00
O218   O     0.83334   0.20489   0.31608   0.00000  Uiso   1.00
O219   O     0.83333   0.12844   0.18393   0.00000  Uiso   1.00
O220   O     0.94267   0.18650   0.39745   0.00000  Uiso   1.00
Zn221  Zn    0.83333   0.21771   0.25000   0.00000  Uiso   1.00
Zn222  Zn    0.83333   0.11563   0.25000   0.00000  Uiso   1.00
C223   C     0.08674   0.50000   0.24995   0.00000  Uiso   1.00
C224   C     0.04252   0.49995   0.24990   0.00000  Uiso   1.00
C225   C     0.19159   0.35730   0.28000   0.00000  Uiso   1.00
C226   C     0.13921   0.64280   0.22262   0.00000  Uiso   1.00
C227   C     0.14172   0.35732   0.22000   0.00000  Uiso   1.00
C228   C     0.19409   0.64276   0.27746   0.00000  Uiso   1.00
C229   C     0.16614   0.49994   0.16375   0.00000  Uiso   1.00
C230   C     0.16716   0.50004   0.33625   0.00000  Uiso   1.00
C231   C     0.20651   0.49735   0.40821   0.00000  Uiso   1.00
C232   C     0.12673   0.50200   0.09180   0.00000  Uiso   1.00
C233   C     0.16849   0.50026   0.38395   0.00000  Uiso   1.00
C234   C     0.24660   0.49998   0.25000   0.00000  Uiso   1.00
C235   C     0.16478   0.49962   0.11605   0.00000  Uiso   1.00
C236   C     0.13091   0.50558   0.40448   0.00000  Uiso   1.00
C237   C     0.20237   0.49438   0.09552   0.00000  Uiso   1.00
C238   C     0.12962   0.50802   0.45090   0.00000  Uiso   1.00
C239   C     0.20362   0.49160   0.04911   0.00000  Uiso   1.00
C240   C     0.16711   0.50066   0.47656   0.00000  Uiso   1.00
C241   C     0.16612   0.49881   0.02345   0.00000  Uiso   1.00
C242   C     0.20560   0.49500   0.45526   0.00000  Uiso   1.00
C243   C     0.12762   0.50435   0.04476   0.00000  Uiso   1.00
C244   C     0.09184   0.51653   0.47224   0.00000  Uiso   1.00
C245   C     0.09144   0.51429   0.01888   0.00000  Uiso   1.00
C246   C     0.24138   0.48294   0.02780   0.00000  Uiso   1.00
C247   C     0.24610   0.49798   0.38361   0.00000  Uiso   1.00
C248   C     0.08713   0.50076   0.11638   0.00000  Uiso   1.00
C249   C     0.05281   0.53006   0.44716   0.00000  Uiso   1.00
C250   C     0.28040   0.46945   0.05292   0.00000  Uiso   1.00
C251   C     0.21458   0.38148   0.31648   0.00000  Uiso   1.00
C252   C     0.10546   0.61890   0.19728   0.00000  Uiso   1.00
C253   C     0.11881   0.38147   0.18337   0.00000  Uiso   1.00
C254   C     0.22774   0.61881   0.30304   0.00000  Uiso   1.00
C255   C     0.24176   0.48499   0.48115   0.00000  Uiso   1.00
C256   C     0.02130   0.45909   0.24901   0.00000  Uiso   1.00
C257   C     0.31204   0.54075   0.25059   0.00000  Uiso   1.00
C258   C     0.31203   0.45908   0.24914   0.00000  Uiso   1.00
C259   C     0.02129   0.54076   0.25078   0.00000  Uiso   1.00
C260   C     0.29081   0.49993   0.24993   0.00000  Uiso   1.00
H261   H     0.10288   0.50739   0.38333   0.00000  Uiso   1.00
H262   H     0.08504   0.51739   0.14854   0.00000  Uiso   1.00
H263   H     0.05345   0.54345   0.41346   0.00000  Uiso   1.00
H264   H     0.27976   0.45637   0.08675   0.00000  Uiso   1.00
H265   H     0.23081   0.41215   0.31015   0.00000  Uiso   1.00
H266   H     0.11055   0.58671   0.18243   0.00000  Uiso   1.00
H267   H     0.10341   0.41280   0.18926   0.00000  Uiso   1.00
H268   H     0.22281   0.58638   0.31744   0.00000  Uiso   1.00
H269   H     0.23043   0.49282   0.11665   0.00000  Uiso   1.00
H270   H     0.06280   0.52248   0.03491   0.00000  Uiso   1.00
H271   H     0.27038   0.47669   0.46513   0.00000  Uiso   1.00
H272   H     0.03743   0.42723   0.24827   0.00000  Uiso   1.00
H273   H     0.29595   0.57260   0.25097   0.00000  Uiso   1.00
H274   H     0.29590   0.42722   0.24856   0.00000  Uiso   1.00
H275   H     0.03739   0.57260   0.25168   0.00000  Uiso   1.00
H276   H     0.24804   0.48093   0.35165   0.00000  Uiso   1.00
N277   N     0.16667   0.61907   0.25000   0.00000  Uiso   1.00
N278   N     0.16667   0.38093   0.25000   0.00000  Uiso   1.00
O279   O     0.10559   0.53821   0.25000   0.00000  Uiso   1.00
O280   O     0.05738   0.47882   0.10229   0.00000  Uiso   1.00
O281   O     0.01907   0.52735   0.46446   0.00000  Uiso   1.00
O282   O     0.31412   0.47183   0.03553   0.00000  Uiso   1.00
O283   O     0.21513   0.36719   0.35487   0.00000  Uiso   1.00
O284   O     0.07061   0.63509   0.19335   0.00000  Uiso   1.00
O285   O     0.11749   0.36647   0.14523   0.00000  Uiso   1.00
O286   O     0.26244   0.63520   0.30764   0.00000  Uiso   1.00
O287   O     0.22774   0.46179   0.25001   0.00000  Uiso   1.00
O288   O     0.22774   0.53821   0.25001   0.00000  Uiso   1.00
O289   O     0.10559   0.46179   0.25000   0.00000  Uiso   1.00
O290   O     0.16666   0.53823   0.18393   0.00000  Uiso   1.00
O291   O     0.16667   0.46177   0.31608   0.00000  Uiso   1.00
O292   O     0.16667   0.53823   0.31608   0.00000  Uiso   1.00
O293   O     0.16666   0.46177   0.18393   0.00000  Uiso   1.00
O294   O     0.27600   0.51983   0.39745   0.00000  Uiso   1.00
Zn295  Zn    0.16667   0.55104   0.25000   0.00000  Uiso   1.00
Zn296  Zn    0.16667   0.44896   0.25000   0.00000  Uiso   1.00
C297   C     0.42007   0.50000   0.24995   0.00000  Uiso   1.00
C298   C     0.37586   0.49995   0.24990   0.00000  Uiso   1.00
C299   C     0.52493   0.35730   0.28000   0.00000  Uiso   1.00
C300   C     0.47254   0.64280   0.22262   0.00000  Uiso   1.00
C301   C     0.47505   0.35732   0.22000   0.00000  Uiso   1.00
C302   C     0.52742   0.64276   0.27746   0.00000  Uiso   1.00
C303   C     0.49948   0.49994   0.16375   0.00000  Uiso   1.00
C304   C     0.50049   0.50004   0.33625   0.00000  Uiso   1.00
C305   C     0.53984   0.49735   0.40821   0.00000  Uiso   1.00
C306   C     0.46006   0.50200   0.09180   0.00000  Uiso   1.00
C307   C     0.50183   0.50026   0.38395   0.00000  Uiso   1.00
C308   C     0.57993   0.49998   0.25000   0.00000  Uiso   1.00
C309   C     0.49811   0.49962   0.11605   0.00000  Uiso   1.00
C310   C     0.46424   0.50558   0.40448   0.00000  Uiso   1.00
C311   C     0.53571   0.49438   0.09552   0.00000  Uiso   1.00
C312   C     0.46296   0.50802   0.45090   0.00000  Uiso   1.00
C313   C     0.53695   0.49160   0.04911   0.00000  Uiso   1.00
C314   C     0.50044   0.50066   0.47656   0.00000  Uiso   1.00
C315   C     0.49945   0.49881   0.02345   0.00000  Uiso   1.00
C316   C     0.53893   0.49500   0.45526   0.00000  Uiso   1.00
C317   C     0.46095   0.50435   0.04476   0.00000  Uiso   1.00
C318   C     0.42517   0.51653   0.47224   0.00000  Uiso   1.00
C319   C     0.42477   0.51429   0.01888   0.00000  Uiso   1.00
C320   C     0.57471   0.48294   0.02780   0.00000  Uiso   1.00
C321   C     0.57943   0.49798   0.38361   0.00000  Uiso   1.00
C322   C     0.42046   0.50076   0.11638   0.00000  Uiso   1.00
C323   C     0.38614   0.53006   0.44716   0.00000  Uiso   1.00
C324   C     0.61373   0.46945   0.05292   0.00000  Uiso   1.00
C325   C     0.54791   0.38148   0.31648   0.00000  Uiso   1.00
C326   C     0.43880   0.61890   0.19728   0.00000  Uiso   1.00
C327   C     0.45214   0.38147   0.18337   0.00000  Uiso   1.00
C328   C     0.56107   0.61881   0.30304   0.00000  Uiso   1.00
C329   C     0.57509   0.48499   0.48115   0.00000  Uiso   1.00
C330   C     0.35464   0.45909   0.24901   0.00000  Uiso   1.00
C331   C     0.64537   0.54075   0.25059   0.00000  Uiso   1.00
C332   C     0.64536   0.45908   0.24914   0.00000  Uiso   1.00
C333   C     0.35462   0.54076   0.25078   0.00000  Uiso   1.00
C334   C     0.62414   0.49993   0.24993   0.00000  Uiso   1.00
H335   H     0.43621   0.50739   0.38333   0.00000  Uiso   1.00
H336   H     0.41837   0.51739   0.14854   0.00000  Uiso   1.00
H337   H     0.38678   0.54345   0.41346   0.00000  Uiso   1.00
H338   H     0.61310   0.45637   0.08675   0.00000  Uiso   1.00
H339   H     0.56414   0.41215   0.31015   0.00000  Uiso   1.00
H340   H     0.44388   0.58671   0.18243   0.00000  Uiso   1.00
H341   H     0.43674   0.41280   0.18926   0.00000  Uiso   1.00
H342   H     0.55615   0.58638   0.31744   0.00000  Uiso   1.00
H343   H     0.56376   0.49282   0.11665   0.00000  Uiso   1.00
H344   H     0.39613   0.52248   0.03491   0.00000  Uiso   1.00
H345   H     0.60371   0.47669   0.46513   0.00000  Uiso   1.00
H346   H     0.37076   0.42723   0.24827   0.00000  Uiso   1.00
H347   H     0.62928   0.57260   0.25097   0.00000  Uiso   1.00
H348   H     0.62923   0.42722   0.24856   0.00000  Uiso   1.00
H349   H     0.37072   0.57260   0.25168   0.00000  Uiso   1.00
H350   H     0.58137   0.48093   0.35165   0.00000  Uiso   1.00
N351   N     0.50000   0.61907   0.25000   0.00000  Uiso   1.00
N352   N     0.50000   0.38093   0.25000   0.00000  Uiso   1.00
O353   O     0.43892   0.53821   0.25000   0.00000  Uiso   1.00
O354   O     0.39071   0.47882   0.10229   0.00000  Uiso   1.00
O355   O     0.35240   0.52735   0.46446   0.00000  Uiso   1.00
O356   O     0.64746   0.47183   0.03553   0.00000  Uiso   1.00
O357   O     0.54846   0.36719   0.35487   0.00000  Uiso   1.00
O358   O     0.40394   0.63509   0.19335   0.00000  Uiso   1.00
O359   O     0.45083   0.36647   0.14523   0.00000  Uiso   1.00
O360   O     0.59577   0.63520   0.30764   0.00000  Uiso   1.00
O361   O     0.56108   0.46179   0.25001   0.00000  Uiso   1.00
O362   O     0.56108   0.53821   0.25001   0.00000  Uiso   1.00
O363   O     0.43892   0.46179   0.25000   0.00000  Uiso   1.00
O364   O     0.49999   0.53823   0.18393   0.00000  Uiso   1.00
O365   O     0.50001   0.46177   0.31608   0.00000  Uiso   1.00
O366   O     0.50001   0.53823   0.31608   0.00000  Uiso   1.00
O367   O     0.49999   0.46177   0.18393   0.00000  Uiso   1.00
O368   O     0.60933   0.51983   0.39745   0.00000  Uiso   1.00
Zn369  Zn    0.50000   0.55104   0.25000   0.00000  Uiso   1.00
Zn370  Zn    0.50000   0.44896   0.25000   0.00000  Uiso   1.00
C371   C     0.75341   0.50000   0.24995   0.00000  Uiso   1.00
C372   C     0.70919   0.49995   0.24990   0.00000  Uiso   1.00
C373   C     0.85826   0.35730   0.28000   0.00000  Uiso   1.00
C374   C     0.80587   0.64280   0.22262   0.00000  Uiso   1.00
C375   C     0.80838   0.35732   0.22000   0.00000  Uiso   1.00
C376   C     0.86076   0.64276   0.27746   0.00000  Uiso   1.00
C377   C     0.83281   0.49994   0.16375   0.00000  Uiso   1.00
C378   C     0.83383   0.50004   0.33625   0.00000  Uiso   1.00
C379   C     0.87317   0.49735   0.40821   0.00000  Uiso   1.00
C380   C     0.79339   0.50200   0.09180   0.00000  Uiso   1.00
C381   C     0.83516   0.50026   0.38395   0.00000  Uiso   1.00
C382   C     0.91326   0.49998   0.25000   0.00000  Uiso   1.00
C383   C     0.83145   0.49962   0.11605   0.00000  Uiso   1.00
C384   C     0.79758   0.50558   0.40448   0.00000  Uiso   1.00
C385   C     0.86904   0.49438   0.09552   0.00000  Uiso   1.00
C386   C     0.79629   0.50802   0.45090   0.00000  Uiso   1.00
C387   C     0.87029   0.49160   0.04911   0.00000  Uiso   1.00
C388   C     0.83378   0.50066   0.47656   0.00000  Uiso   1.00
C389   C     0.83278   0.49881   0.02345   0.00000  Uiso   1.00
C390   C     0.87227   0.49500   0.45526   0.00000  Uiso   1.00
C391   C     0.79428   0.50435   0.04476   0.00000  Uiso   1.00
C392   C     0.75851   0.51653   0.47224   0.00000  Uiso   1.00
C393   C     0.75810   0.51429   0.01888   0.00000  Uiso   1.00
C394   C     0.90805   0.48294   0.02780   0.00000  Uiso   1.00
C395   C     0.91277   0.49798   0.38361   0.00000  Uiso   1.00
C396   C     0.75379   0.50076   0.11638   0.00000  Uiso   1.00
C397   C     0.71948   0.53006   0.44716   0.00000  Uiso   1.00
C398   C     0.94707   0.46945   0.05292   0.00000  Uiso   1.00
C399   C     0.88124   0.38148   0.31648   0.00000  Uiso   1.00
C400   C     0.77213   0.61890   0.19728   0.00000  Uiso   1.00
C401   C     0.78547   0.38147   0.18337   0.00000  Uiso   1.00
C402   C     0.89441   0.61881   0.30304   0.00000  Uiso   1.00
C403   C     0.90842   0.48499   0.48115   0.00000  Uiso   1.00
C404   C     0.68797   0.45909   0.24901   0.00000  Uiso   1.00
C405   C     0.97871   0.54075   0.25059   0.00000  Uiso   1.00
C406   C     0.97870   0.45908   0.24914   0.00000  Uiso   1.00
C407   C     0.68796   0.54076   0.25078   0.00000  Uiso   1.00
C408   C     0.95748   0.49993   0.24993   0.00000  Uiso   1.00
H409   H     0.76955   0.50739   0.38333   0.00000  Uiso   1.00
H410   H     0.75170   0.51739   0.14854   0.00000  Uiso   1.00
H411   H     0.72011   0.54345   0.41346   0.00000  Uiso   1.00
H412   H     0.94643   0.45637   0.08675   0.00000  Uiso   1.00
H413   H     0.89748   0.41215   0.31015   0.00000  Uiso   1.00
H414   H     0.77722   0.58671   0.18243   0.00000  Uiso   1.00
H415   H     0.77007   0.41280   0.18926   0.00000  Uiso   1.00
H416   H     0.88948   0.58638   0.31744   0.00000  Uiso   1.00
H417   H     0.89710   0.49282   0.11665   0.00000  Uiso   1.00
H418   H     0.72947   0.52248   0.03491   0.00000  Uiso   1.00
H419   H     0.93705   0.47669   0.46513   0.00000  Uiso   1.00
H420   H     0.70410   0.42723   0.24827   0.00000  Uiso   1.00
H421   H     0.96262   0.57260   0.25097   0.00000  Uiso   1.00
H422   H     0.96257   0.42722   0.24856   0.00000  Uiso   1.00
H423   H     0.70405   0.57260   0.25168   0.00000  Uiso   1.00
H424   H     0.91471   0.48093   0.35165   0.00000  Uiso   1.00
N425   N     0.83333   0.61907   0.25000   0.00000  Uiso   1.00
N426   N     0.83333   0.38093   0.25000   0.00000  Uiso   1.00
O427   O     0.77226   0.53821   0.25000   0.00000  Uiso   1.00
O428   O     0.72404   0.47882   0.10229   0.00000  Uiso   1.00
O429   O     0.68573   0.52735   0.46446   0.00000  Uiso   1.00
O430   O     0.98079   0.47183   0.03553   0.00000  Uiso   1.00
O431   O     0.88179   0.36719   0.35487   0.00000  Uiso   1.00
O432   O     0.73728   0.63509   0.19335   0.00000  Uiso   1.00
O433   O     0.78416   0.36647   0.14523   0.00000  Uiso   1.00
O434   O     0.92911   0.63520   0.30764   0.00000  Uiso   1.00
O435   O     0.89441   0.46179   0.25001   0.00000  Uiso   1.00
O436   O     0.89441   0.53821   0.25001   0.00000  Uiso   1.00
O437   O     0.77226   0.46179   0.25000   0.00000  Uiso   1.00
O438   O     0.83333   0.53823   0.18393   0.00000  Uiso   1.00
O439   O     0.83334   0.46177   0.31608   0.00000  Uiso   1.00
O440   O     0.83334   0.53823   0.31608   0.00000  Uiso   1.00
O441   O     0.83333   0.46177   0.18393   0.00000  Uiso   1.00
O442   O     0.94267   0.51983   0.39745   0.00000  Uiso   1.00
Zn443  Zn    0.83333   0.55104   0.25000   0.00000  Uiso   1.00
Zn444  Zn    0.83333   0.44896   0.25000   0.00000  Uiso   1.00
C445   C     0.08674   0.83333   0.24995   0.00000  Uiso   1.00
C446   C     0.04252   0.83328   0.24990   0.00000  Uiso   1.00
C447   C     0.19159   0.69064   0.28000   0.00000  Uiso   1.00
C448   C     0.13921   0.97613   0.22262   0.00000  Uiso   1.00
C449   C     0.14172   0.69066   0.22000   0.00000  Uiso   1.00
C450   C     0.19409   0.97609   0.27746   0.00000  Uiso   1.00
C451   C     0.16614   0.83328   0.16375   0.00000  Uiso   1.00
C452   C     0.16716   0.83337   0.33625   0.00000  Uiso   1.00
C453   C     0.20651   0.83068   0.40821   0.00000  Uiso   1.00
C454   C     0.12673   0.83533   0.09180   0.00000  Uiso   1.00
C455   C     0.16849   0.83359   0.38395   0.00000  Uiso   1.00
C456   C     0.24660   0.83331   0.25000   0.00000  Uiso   1.00
C457   C     0.16478   0.83296   0.11605   0.00000  Uiso   1.00
C458   C     0.13091   0.83891   0.40448   0.00000  Uiso   1.00
C459   C     0.20237   0.82771   0.09552   0.00000  Uiso   1.00
C460   C     0.12962   0.84135   0.45090   0.00000  Uiso   1.00
C461   C     0.20362   0.82494   0.04911   0.00000  Uiso   1.00
C462   C     0.16711   0.83399   0.47656   0.00000  Uiso   1.00
C463   C     0.16612   0.83215   0.02345   0.00000  Uiso   1.00
C464   C     0.20560   0.82833   0.45526   0.00000  Uiso   1.00
C465   C     0.12762   0.83768   0.04476   0.00000  Uiso   1.00
C466   C     0.09184   0.84987   0.47224   0.00000  Uiso   1.00
C467   C     0.09144   0.84762   0.01888   0.00000  Uiso   1.00
C468   C     0.24138   0.81627   0.02780   0.00000  Uiso   1.00
C469   C     0.24610   0.83131   0.38361   0.00000  Uiso   1.00
C470   C     0.08713   0.83409   0.11638   0.00000  Uiso   1.00
C471   C     0.05281   0.86339   0.44716   0.00000  Uiso   1.00
C472   C     0.28040   0.80278   0.05292   0.00000  Uiso   1.00
C473   C     0.21458   0.71482   0.31648   0.00000  Uiso   1.00
C474   C     0.10546   0.95223   0.19728   0.00000  Uiso   1.00
C475   C     0.11881   0.71480   0.18337   0.00000  Uiso   1.00
C476   C     0.22774   0.95214   0.30304   0.00000  Uiso   1.00
C477   C     0.24176   0.81832   0.48115   0.00000  Uiso   1.00
C478   C     0.02130   0.79243   0.24901   0.00000  Uiso   1.00
C479   C     0.31204   0.87408   0.25059   0.00000  Uiso   1.00
C480   C     0.31203   0.79242   0.24914   0.00000  Uiso   1.00
C481   C     0.02129   0.87409   0.25078   0.00000  Uiso   1.00
C482   C     0.29081   0.83326   0.24993   0.00000  Uiso   1.00
H483   H     0.10288   0.84072   0.38333   0.00000  Uiso   1.00
H484   H     0.08504   0.85073   0.14854   0.00000  Uiso   1.00
H485   H     0.05345   0.87678   0.41346   0.00000  Uiso   1.00
H486   H     0.27976   0.78970   0.08675   0.00000  Uiso   1.00
H487   H     0.23081   0.74549   0.31015   0.00000  Uiso   1.00
H488   H     0.11055   0.92005   0.18243   0.00000  Uiso   1.00
H489   H     0.10341   0.74614   0.18926   0.00000  Uiso   1.00
H490   H     0.22281   0.91971   0.31744   0.00000  Uiso   1.00
H491   H     0.23043   0.82615   0.11665   0.00000  Uiso   1.00
H492   H     0.06280   0.85581   0.03491   0.00000  Uiso   1.00
H493   H     0.27038   0.81003   0.46513   0.00000  Uiso   1.00
H494   H     0.03743   0.76057   0.24827   0.00000  Uiso   1.00
H495   H     0.29595   0.90593   0.25097   0.00000  Uiso   1.00
H496   H     0.29590   0.76055   0.24856   0.00000  Uiso   1.00
H497   H     0.03739   0.90594   0.25168   0.00000  Uiso   1.00
H498   H     0.24804   0.81426   0.35165   0.00000  Uiso   1.00
N499   N     0.16667   0.95240   0.25000   0.00000  Uiso   1.00
N500   N     0.16667   0.71427   0.25000   0.00000  Uiso   1.00
O501   O     0.10559   0.87154   0.25000   0.00000  Uiso   1.00
O502   O     0.05738   0.81215   0.10229   0.00000  Uiso   1.00
O503   O     0.01907   0.86068   0.46446   0.00000  Uiso   1.00
O504   O     0.31412   0.80517   0.03553   0.00000  Uiso   1.00
O505   O     0.21513   0.70052   0.35487   0.00000  Uiso   1.00
O506   O     0.07061   0.96842   0.19335   0.00000  Uiso   1.00
O507   O     0.11749   0.69981   0.14523   0.00000  Uiso   1.00
O508   O     0.26244   0.96853   0.30764   0.00000  Uiso   1.00
O509   O     0.22774   0.79513   0.25001   0.00000  Uiso   1.00
O510   O     0.22774   0.87154   0.25001   0.00000  Uiso   1.00
O511   O     0.10559   0.79513   0.25000   0.00000  Uiso   1.00
O512   O     0.16666   0.87156   0.18393   0.00000  Uiso   1.00
O513   O     0.16667   0.79511   0.31608   0.00000  Uiso   1.00
O514   O     0.16667   0.87156   0.31608   0.00000  Uiso   1.00
O515   O     0.16666   0.79511   0.18393   0.00000  Uiso   1.00
O516   O     0.27600   0.85316   0.39745   0.00000  Uiso   1.00
Zn517  Zn    0.16667   0.88437   0.25000   0.00000  Uiso   1.00
Zn518  Zn    0.16667   0.78229   0.25000   0.00000  Uiso   1.00
C519   C     0.42007   0.83333   0.24995   0.00000  Uiso   1.00
C520   C     0.37586   0.83328   0.24990   0.00000  Uiso   1.00
C521   C     0.52493   0.69064   0.28000   0.00000  Uiso   1.00
C522   C     0.47254   0.97613   0.22262   0.00000  Uiso   1.00
C523   C     0.47505   0.69066   0.22000   0.00000  Uiso   1.00
C524   C     0.52742   0.97609   0.27746   0.00000  Uiso   1.00
C525   C     0.49948   0.83328   0.16375   0.00000  Uiso   1.00
C526   C     0.50049   0.83337   0.33625   0.00000  Uiso   1.00
C527   C     0.53984   0.83068   0.40821   0.00000  Uiso   1.00
C528   C     0.46006   0.83533   0.09180   0.00000  Uiso   1.00
C529   C     0.50183   0.83359   0.38395   0.00000  Uiso   1.00
C530   C     0.57993   0.83331   0.25000   0.00000  Uiso   1.00
C531   C     0.49811   0.83296   0.11605   0.00000  Uiso   1.00
C532   C     0.46424   0.83891   0.40448   0.00000  Uiso   1.00
C533   C     0.53571   0.82771   0.09552   0.00000  Uiso   1.00
C534   C     0.46296   0.84135   0.45090   0.00000  Uiso   1.00
C535   C     0.53695   0.82494   0.04911   0.00000  Uiso   1.00
C536   C     0.50044   0.83399   0.47656   0.00000  Uiso   1.00
C537   C     0.49945   0.83215   0.02345   0.00000  Uiso   1.00
C538   C     0.53893   0.82833   0.45526   0.00000  Uiso   1.00
C539   C     0.46095   0.83768   0.04476   0.00000  Uiso   1.00
C540   C     0.42517   0.84987   0.47224   0.00000  Uiso   1.00
C541   C     0.42477   0.84762   0.01888   0.00000  Uiso   1.00
C542   C     0.57471   0.81627   0.02780   0.00000  Uiso   1.00
C543   C     0.57943   0.83131   0.38361   0.00000  Uiso   1.00
C544   C     0.42046   0.83409   0.11638   0.00000  Uiso   1.00
C545   C     0.38614   0.86339   0.44716   0.00000  Uiso   1.00
C546   C     0.61373   0.80278   0.05292   0.00000  Uiso   1.00
C547   C     0.54791   0.71482   0.31648   0.00000  Uiso   1.00
C548   C     0.43880   0.95223   0.19728   0.00000  Uiso   1.00
C549   C     0.45214   0.71480   0.18337   0.00000  Uiso   1.00
C550   C     0.56107   0.95214   0.30304   0.00000  Uiso   1.00
C551   C     0.57509   0.81832   0.48115   0.00000  Uiso   1.00
C552   C     0.35464   0.79243   0.24901   0.00000  Uiso   1.00
C553   C     0.64537   0.87408   0.25059   0.00000  Uiso   1.00
C554   C     0.64536   0.79242   0.24914   0.00000  Uiso   1.00
C555   C     0.35462   0.87409   0.25078   0.00000  Uiso   1.00
C556   C     0.62414   0.83326   0.24993   0.00000  Uiso   1.00
H557   H     0.43621   0.84072   0.38333   0.00000  Uiso   1.00
H558   H     0.41837   0.85073   0.14854   0.00000  Uiso   1.00
H559   H     0.38678   0.87678   0.41346   0.00000  Uiso   1.00
H560   H     0.61310   0.78970   0.08675   0.00000  Uiso   1.00
H561   H     0.56414   0.74549   0.31015   0.00000  Uiso   1.00
H562   H     0.44388   0.92005   0.18243   0.00000  Uiso   1.00
H563   H     0.43674   0.74614   0.18926   0.00000  Uiso   1.00
H564   H     0.55615   0.91971   0.31744   0.00000  Uiso   1.00
H565   H     0.56376   0.82615   0.11665   0.00000  Uiso   1.00
H566   H     0.39613   0.85581   0.03491   0.00000  Uiso   1.00
H567   H     0.60371   0.81003   0.46513   0.00000  Uiso   1.00
H568   H     0.37076   0.76057   0.24827   0.00000  Uiso   1.00
H569   H     0.62928   0.90593   0.25097   0.00000  Uiso   1.00
H570   H     0.62923   0.76055   0.24856   0.00000  Uiso   1.00
H571   H     0.37072   0.90594   0.25168   0.00000  Uiso   1.00
H572   H     0.58137   0.81426   0.35165   0.00000  Uiso   1.00
N573   N     0.50000   0.95240   0.25000   0.00000  Uiso   1.00
N574   N     0.50000   0.71427   0.25000   0.00000  Uiso   1.00
O575   O     0.43892   0.87154   0.25000   0.00000  Uiso   1.00
O576   O     0.39071   0.81215   0.10229   0.00000  Uiso   1.00
O577   O     0.35240   0.86068   0.46446   0.00000  Uiso   1.00
O578   O     0.64746   0.80517   0.03553   0.00000  Uiso   1.00
O579   O     0.54846   0.70052   0.35487   0.00000  Uiso   1.00
O580   O     0.40394   0.96842   0.19335   0.00000  Uiso   1.00
O581   O     0.45083   0.69981   0.14523   0.00000  Uiso   1.00
O582   O     0.59577   0.96853   0.30764   0.00000  Uiso   1.00
O583   O     0.56108   0.79513   0.25001   0.00000  Uiso   1.00
O584   O     0.56108   0.87154   0.25001   0.00000  Uiso   1.00
O585   O     0.43892   0.79513   0.25000   0.00000  Uiso   1.00
O586   O     0.49999   0.87156   0.18393   0.00000  Uiso   1.00
O587   O     0.50001   0.79511   0.31608   0.00000  Uiso   1.00
O588   O     0.50001   0.87156   0.31608   0.00000  Uiso   1.00
O589   O     0.49999   0.79511   0.18393   0.00000  Uiso   1.00
O590   O     0.60933   0.85316   0.39745   0.00000  Uiso   1.00
Zn591  Zn    0.50000   0.88437   0.25000   0.00000  Uiso   1.00
Zn592  Zn    0.50000   0.78229   0.25000   0.00000  Uiso   1.00
C593   C     0.75341   0.83333   0.24995   0.00000  Uiso   1.00
C594   C     0.70919   0.83328   0.24990   0.00000  Uiso   1.00
C595   C     0.85826   0.69064   0.28000   0.00000  Uiso   1.00
C596   C     0.80587   0.97613   0.22262   0.00000  Uiso   1.00
C597   C     0.80838   0.69066   0.22000   0.00000  Uiso   1.00
C598   C     0.86076   0.97609   0.27746   0.00000  Uiso   1.00
C599   C     0.83281   0.83328   0.16375   0.00000  Uiso   1.00
C600   C     0.83383   0.83337   0.33625   0.00000  Uiso   1.00
C601   C     0.87317   0.83068   0.40821   0.00000  Uiso   1.00
C602   C     0.79339   0.83533   0.09180   0.00000  Uiso   1.00
C603   C     0.83516   0.83359   0.38395   0.00000  Uiso   1.00
C604   C     0.91326   0.83331   0.25000   0.00000  Uiso   1.00
C605   C     0.83145   0.83296   0.11605   0.00000  Uiso   1.00
C606   C     0.79758   0.83891   0.40448   0.00000  Uiso   1.00
C607   C     0.86904   0.82771   0.09552   0.00000  Uiso   1.00
C608   C     0.79629   0.84135   0.45090   0.00000  Uiso   1.00
C609   C     0.87029   0.82494   0.04911   0.00000  Uiso   1.00
C610   C     0.83378   0.83399   0.47656   0.00000  Uiso   1.00
C611   C     0.83278   0.83215   0.02345   0.00000  Uiso   1.00
C612   C     0.87227   0.82833   0.45526   0.00000  Uiso   1.00
C613   C     0.79428   0.83768   0.04476   0.00000  Uiso   1.00
C614   C     0.75851   0.84987   0.47224   0.00000  Uiso   1.00
C615   C     0.75810   0.84762   0.01888   0.00000  Uiso   1.00
C616   C     0.90805   0.81627   0.02780   0.00000  Uiso   1.00
C617   C     0.91277   0.83131   0.38361   0.00000  Uiso   1.00
C618   C     0.75379   0.83409   0.11638   0.00000  Uiso   1.00
C619   C     0.71948   0.86339   0.44716   0.00000  Uiso   1.00
C620   C     0.94707   0.80278   0.05292   0.00000  Uiso   1.00
C621   C     0.88124   0.71482   0.31648   0.00000  Uiso   1.00
C622   C     0.77213   0.95223   0.19728   0.00000  Uiso   1.00
C623   C     0.78547   0.71480   0.18337   0.00000  Uiso   1.00
C624   C     0.89441   0.95214   0.30304   0.00000  Uiso   1.00
C625   C     0.90842   0.81832   0.48115   0.00000  Uiso   1.00
C626   C     0.68797   0.79243   0.24901   0.00000  Uiso   1.00
C627   C     0.97871   0.87408   0.25059   0.00000  Uiso   1.00
C628   C     0.97870   0.79242   0.24914   0.00000  Uiso   1.00
C629   C     0.68796   0.87409   0.25078   0.00000  Uiso   1.00
C630   C     0.95748   0.83326   0.24993   0.00000  Uiso   1.00
H631   H     0.76955   0.84072   0.38333   0.00000  Uiso   1.00
H632   H     0.75170   0.85073   0.14854   0.00000  Uiso   1.00
H633   H     0.72011   0.87678   0.41346   0.00000  Uiso   1.00
H634   H     0.94643   0.78970   0.08675   0.00000  Uiso   1.00
H635   H     0.89748   0.74549   0.31015   0.00000  Uiso   1.00
H636   H     0.77722   0.92005   0.18243   0.00000  Uiso   1.00
H637   H     0.77007   0.74614   0.18926   0.00000  Uiso   1.00
H638   H     0.88948   0.91971   0.31744   0.00000  Uiso   1.00
H639   H     0.89710   0.82615   0.11665   0.00000  Uiso   1.00
H640   H     0.72947   0.85581   0.03491   0.00000  Uiso   1.00
H641   H     0.93705   0.81003   0.46513   0.00000  Uiso   1.00
H642   H     0.70410   0.76057   0.24827   0.00000  Uiso   1.00
H643   H     0.96262   0.90593   0.25097   0.00000  Uiso   1.00
H644   H     0.96257   0.76055   0.24856   0.00000  Uiso   1.00
H645   H     0.70405   0.90594   0.25168   0.00000  Uiso   1.00
H646   H     0.91471   0.81426   0.35165   0.00000  Uiso   1.00
N647   N     0.83333   0.95240   0.25000   0.00000  Uiso   1.00
N648   N     0.83333   0.71427   0.25000   0.00000  Uiso   1.00
O649   O     0.77226   0.87154   0.25000   0.00000  Uiso   1.00
O650   O     0.72404   0.81215   0.10229   0.00000  Uiso   1.00
O651   O     0.68573   0.86068   0.46446   0.00000  Uiso   1.00
O652   O     0.98079   0.80517   0.03553   0.00000  Uiso   1.00
O653   O     0.88179   0.70052   0.35487   0.00000  Uiso   1.00
O654   O     0.73728   0.96842   0.19335   0.00000  Uiso   1.00
O655   O     0.78416   0.69981   0.14523   0.00000  Uiso   1.00
O656   O     0.92911   0.96853   0.30764   0.00000  Uiso   1.00
O657   O     0.89441   0.79513   0.25001   0.00000  Uiso   1.00
O658   O     0.89441   0.87154   0.25001   0.00000  Uiso   1.00
O659   O     0.77226   0.79513   0.25000   0.00000  Uiso   1.00
O660   O     0.83333   0.87156   0.18393   0.00000  Uiso   1.00
O661   O     0.83334   0.79511   0.31608   0.00000  Uiso   1.00
O662   O     0.83334   0.87156   0.31608   0.00000  Uiso   1.00
O663   O     0.83333   0.79511   0.18393   0.00000  Uiso   1.00
O664   O     0.94267   0.85316   0.39745   0.00000  Uiso   1.00
Zn665  Zn    0.83333   0.88437   0.25000   0.00000  Uiso   1.00
Zn666  Zn    0.83333   0.78229   0.25000   0.00000  Uiso   1.00
C667   C     0.08674   0.16666   0.74995   0.00000  Uiso   1.00
C668   C     0.04252   0.16662   0.74990   0.00000  Uiso   1.00
C669   C     0.19159   0.02397   0.78000   0.00000  Uiso   1.00
C670   C     0.13921   0.30946   0.72262   0.00000  Uiso   1.00
C671   C     0.14172   0.02399   0.72000   0.00000  Uiso   1.00
C672   C     0.19409   0.30943   0.77746   0.00000  Uiso   1.00
C673   C     0.16614   0.16661   0.66375   0.00000  Uiso   1.00
C674   C     0.16716   0.16671   0.83625   0.00000  Uiso   1.00
C675   C     0.20651   0.16402   0.90821   0.00000  Uiso   1.00
C676   C     0.12673   0.16866   0.59180   0.00000  Uiso   1.00
C677   C     0.16849   0.16692   0.88395   0.00000  Uiso   1.00
C678   C     0.24660   0.16665   0.75000   0.00000  Uiso   1.00
C679   C     0.16478   0.16629   0.61605   0.00000  Uiso   1.00
C680   C     0.13091   0.17225   0.90448   0.00000  Uiso   1.00
C681   C     0.20237   0.16104   0.59552   0.00000  Uiso   1.00
C682   C     0.12962   0.17469   0.95090   0.00000  Uiso   1.00
C683   C     0.20362   0.15827   0.54911   0.00000  Uiso   1.00
C684   C     0.16711   0.16732   0.97656   0.00000  Uiso   1.00
C685   C     0.16612   0.16548   0.52345   0.00000  Uiso   1.00
C686   C     0.20560   0.16166   0.95526   0.00000  Uiso   1.00
C687   C     0.12762   0.17101   0.54476   0.00000  Uiso   1.00
C688   C     0.09184   0.18320   0.97224   0.00000  Uiso   1.00
C689   C     0.09144   0.18095   0.51888   0.00000  Uiso   1.00
C690   C     0.24138   0.14961   0.52780   0.00000  Uiso   1.00
C691   C     0.24610   0.16465   0.88361   0.00000  Uiso   1.00
C692   C     0.08713   0.16742   0.61638   0.00000  Uiso   1.00
C693   C     0.05281   0.19672   0.94716   0.00000  Uiso   1.00
C694   C     0.28040   0.13612   0.55292   0.00000  Uiso   1.00
C695   C     0.21458   0.04815   0.81648   0.00000  Uiso   1.00
C696   C     0.10546   0.28557   0.69728   0.00000  Uiso   1.00
C697   C     0.11881   0.04813   0.68337   0.00000  Uiso   1.00
C698   C     0.22774   0.28548   0.80304   0.00000  Uiso   1.00
C699   C     0.24176   0.15165   0.98115   0.00000  Uiso   1.00
C700   C     0.02130   0.12576   0.74901   0.00000  Uiso   1.00
C701   C     0.31204   0.20741   0.75059   0.00000  Uiso   1.00
C702   C     0.31203   0.12575   0.74914   0.00000  Uiso   1.00
C703   C     0.02129   0.20742   0.75078   0.00000  Uiso   1.00
C704   C     0.29081   0.16659   0.74993   0.00000  Uiso   1.00
H705   H     0.10288   0.17406   0.88333   0.00000  Uiso   1.00
H706   H     0.08504   0.18406   0.64854   0.00000  Uiso   1.00
H707   H     0.05345   0.21011   0.91346   0.00000  Uiso   1.00
H708   H     0.27976   0.12303   0.58675   0.00000  Uiso   1.00
H709   H     0.23081   0.07882   0.81015   0.00000  Uiso   1.00
H710   H     0.11055   0.25338   0.68243   0.00000  Uiso   1.00
H711   H     0.10341   0.07947   0.68926   0.00000  Uiso   1.00
H712   H     0.22281   0.25305   0.81744   0.00000  Uiso   1.00
H713   H     0.23043   0.15948   0.61665   0.00000  Uiso   1.00
H714   H     0.06280   0.18914   0.53491   0.00000  Uiso   1.00
H715   H     0.27038   0.14336   0.96513   0.00000  Uiso   1.00
H716   H     0.03743   0.09390   0.74827   0.00000  Uiso   1.00
H717   H     0.29595   0.23927   0.75097   0.00000  Uiso   1.00
H718   H     0.29590   0.09389   0.74856   0.00000  Uiso   1.00
H719   H     0.03739   0.23927   0.75168   0.00000  Uiso   1.00
H720   H     0.24804   0.14760   0.85165   0.00000  Uiso   1.00
N721   N     0.16667   0.28573   0.75000   0.00000  Uiso   1.00
N722   N     0.16667   0.04760   0.75000   0.00000  Uiso   1.00
O723   O     0.10559   0.20487   0.75000   0.00000  Uiso   1.00
O724   O     0.05738   0.14548   0.60229   0.00000  Uiso   1.00
O725   O     0.01907   0.19401   0.96446   0.00000  Uiso   1.00
O726   O     0.31412   0.13850   0.53553   0.00000  Uiso   1.00
O727   O     0.21513   0.03385   0.85487   0.00000  Uiso   1.00
O728   O     0.07061   0.30176   0.69335   0.00000  Uiso   1.00
O729   O     0.11749   0.03314   0.64523   0.00000  Uiso   1.00
O730   O     0.26244   0.30187   0.80764   0.00000  Uiso   1.00
O731   O     0.22774   0.12846   0.75001   0.00000  Uiso   1.00
O732   O     0.22774   0.20487   0.75001   0.00000  Uiso   1.00
O733   O     0.10559   0.12846   0.75000   0.00000  Uiso   1.00
O734   O     0.16666   0.20489   0.68393   0.00000  Uiso   1.00
O735   O     0.16667   0.12844   0.81608   0.00000  Uiso   1.00
O736   O     0.16667   0.20489   0.81608   0.00000  Uiso   1.00
O737   O     0.16666   0.12844   0.68393   0.00000  Uiso   1.00
O738   O     0.27600   0.18650   0.89745   0.00000  Uiso   1.00
Zn739  Zn    0.16667   0.21771   0.75000   0.00000  Uiso   1.00
Zn740  Zn    0.16667   0.11563   0.75000   0.00000  Uiso   1.00
C741   C     0.42007   0.16666   0.74995   0.00000  Uiso   1.00
C742   C     0.37586   0.16662   0.74990   0.00000  Uiso   1.00
C743   C     0.52493   0.02397   0.78000   0.00000  Uiso   1.00
C744   C     0.47254   0.30946   0.72262   0.00000  Uiso   1.00
C745   C     0.47505   0.02399   0.72000   0.00000  Uiso   1.00
C746   C     0.52742   0.30943   0.77746   0.00000  Uiso   1.00
C747   C     0.49948   0.16661   0.66375   0.00000  Uiso   1.00
C748   C     0.50049   0.16671   0.83625   0.00000  Uiso   1.00
C749   C     0.53984   0.16402   0.90821   0.00000  Uiso   1.00
C750   C     0.46006   0.16866   0.59180   0.00000  Uiso   1.00
C751   C     0.50183   0.16692   0.88395   0.00000  Uiso   1.00
C752   C     0.57993   0.16665   0.75000   0.00000  Uiso   1.00
C753   C     0.49811   0.16629   0.61605   0.00000  Uiso   1.00
C754   C     0.46424   0.17225   0.90448   0.00000  Uiso   1.00
C755   C     0.53571   0.16104   0.59552   0.00000  Uiso   1.00
C756   C     0.46296   0.17469   0.95090   0.00000  Uiso   1.00
C757   C     0.53695   0.15827   0.54911   0.00000  Uiso   1.00
C758   C     0.50044   0.16732   0.97656   0.00000  Uiso   1.00
C759   C     0.49945   0.16548   0.52345   0.00000  Uiso   1.00
C760   C     0.53893   0.16166   0.95526   0.00000  Uiso   1.00
C761   C     0.46095   0.17101   0.54476   0.00000  Uiso   1.00
C762   C     0.42517   0.18320   0.97224   0.00000  Uiso   1.00
C763   C     0.42477   0.18095   0.51888   0.00000  Uiso   1.00
C764   C     0.57471   0.14961   0.52780   0.00000  Uiso   1.00
C765   C     0.57943   0.16465   0.88361   0.00000  Uiso   1.00
C766   C     0.42046   0.16742   0.61638   0.00000  Uiso   1.00
C767   C     0.38614   0.19672   0.94716   0.00000  Uiso   1.00
C768   C     0.61373   0.13612   0.55292   0.00000  Uiso   1.00
C769   C     0.54791   0.04815   0.81648   0.00000  Uiso   1.00
C770   C     0.43880   0.28557   0.69728   0.00000  Uiso   1.00
C771   C     0.45214   0.04813   0.68337   0.00000  Uiso   1.00
C772   C     0.56107   0.28548   0.80304   0.00000  Uiso   1.00
C773   C     0.57509   0.15165   0.98115   0.00000  Uiso   1.00
C774   C     0.35464   0.12576   0.74901   0.00000  Uiso   1.00
C775   C     0.64537   0.20741   0.75059   0.00000  Uiso   1.00
C776   C     0.64536   0.12575   0.74914   0.00000  Uiso   1.00
C777   C     0.35462   0.20742   0.75078   0.00000  Uiso   1.00
C778   C     0.62414   0.16659   0.74993   0.00000  Uiso   1.00
H779   H     0.43621   0.17406   0.88333   0.00000  Uiso   1.00
H780   H     0.41837   0.18406   0.64854   0.00000  Uiso   1.00
H781   H     0.38678   0.21011   0.91346   0.00000  Uiso   1.00
H782   H     0.61310   0.12303   0.58675   0.00000  Uiso   1.00
H783   H     0.56414   0.07882   0.81015   0.00000  Uiso   1.00
H784   H     0.44388   0.25338   0.68243   0.00000  Uiso   1.00
H785   H     0.43674   0.07947   0.68926   0.00000  Uiso   1.00
H786   H     0.55615   0.25305   0.81744   0.00000  Uiso   1.00
H787   H     0.56376   0.15948   0.61665   0.00000  Uiso   1.00
H788   H     0.39613   0.18914   0.53491   0.00000  Uiso   1.00
H789   H     0.60371   0.14336   0.96513   0.00000  Uiso   1.00
H790   H     0.37076   0.09390   0.74827   0.00000  Uiso   1.00
H791   H     0.62928   0.23927   0.75097   0.00000  Uiso   1.00
H792   H     0.62923   0.09389   0.74856   0.00000  Uiso   1.00
H793   H     0.37072   0.23927   0.75168   0.00000  Uiso   1.00
H794   H     0.58137   0.14760   0.85165   0.00000  Uiso   1.00
N795   N     0.50000   0.28573   0.75000   0.00000  Uiso   1.00
N796   N     0.50000   0.04760   0.75000   0.00000  Uiso   1.00
O797   O     0.43892   0.20487   0.75000   0.00000  Uiso   1.00
O798   O     0.39071   0.14548   0.60229   0.00000  Uiso   1.00
O799   O     0.35240   0.19401   0.96446   0.00000  Uiso   1.00
O800   O     0.64746   0.13850   0.53553   0.00000  Uiso   1.00
O801   O     0.54846   0.03385   0.85487   0.00000  Uiso   1.00
O802   O     0.40394   0.30176   0.69335   0.00000  Uiso   1.00
O803   O     0.45083   0.03314   0.64523   0.00000  Uiso   1.00
O804   O     0.59577   0.30187   0.80764   0.00000  Uiso   1.00
O805   O     0.56108   0.12846   0.75001   0.00000  Uiso   1.00
O806   O     0.56108   0.20487   0.75001   0.00000  Uiso   1.00
O807   O     0.43892   0.12846   0.75000   0.00000  Uiso   1.00
O808   O     0.49999   0.20489   0.68393   0.00000  Uiso   1.00
O809   O     0.50001   0.12844   0.81608   0.00000  Uiso   1.00
O810   O     0.50001   0.20489   0.81608   0.00000  Uiso   1.00
O811   O     0.49999   0.12844   0.68393   0.00000  Uiso   1.00
O812   O     0.60933   0.18650   0.89745   0.00000  Uiso   1.00
Zn813  Zn    0.50000   0.21771   0.75000   0.00000  Uiso   1.00
Zn814  Zn    0.50000   0.11563   0.75000   0.00000  Uiso   1.00
C815   C     0.75341   0.16666   0.74995   0.00000  Uiso   1.00
C816   C     0.70919   0.16662   0.74990   0.00000  Uiso   1.00
C817   C     0.85826   0.02397   0.78000   0.00000  Uiso   1.00
C818   C     0.80587   0.30946   0.72262   0.00000  Uiso   1.00
C819   C     0.80838   0.02399   0.72000   0.00000  Uiso   1.00
C820   C     0.86076   0.30943   0.77746   0.00000  Uiso   1.00
C821   C     0.83281   0.16661   0.66375   0.00000  Uiso   1.00
C822   C     0.83383   0.16671   0.83625   0.00000  Uiso   1.00
C823   C     0.87317   0.16402   0.90821   0.00000  Uiso   1.00
C824   C     0.79339   0.16866   0.59180   0.00000  Uiso   1.00
C825   C     0.83516   0.16692   0.88395   0.00000  Uiso   1.00
C826   C     0.91326   0.16665   0.75000   0.00000  Uiso   1.00
C827   C     0.83145   0.16629   0.61605   0.00000  Uiso   1.00
C828   C     0.79758   0.17225   0.90448   0.00000  Uiso   1.00
C829   C     0.86904   0.16104   0.59552   0.00000  Uiso   1.00
C830   C     0.79629   0.17469   0.95090   0.00000  Uiso   1.00
C831   C     0.87029   0.15827   0.54911   0.00000  Uiso   1.00
C832   C     0.83378   0.16732   0.97656   0.00000  Uiso   1.00
C833   C     0.83278   0.16548   0.52345   0.00000  Uiso   1.00
C834   C     0.87227   0.16166   0.95526   0.00000  Uiso   1.00
C835   C     0.79428   0.17101   0.54476   0.00000  Uiso   1.00
C836   C     0.75851   0.18320   0.97224   0.00000  Uiso   1.00
C837   C     0.75810   0.18095   0.51888   0.00000  Uiso   1.00
C838   C     0.90805   0.14961   0.52780   0.00000  Uiso   1.00
C839   C     0.91277   0.16465   0.88361   0.00000  Uiso   1.00
C840   C     0.75379   0.16742   0.61638   0.00000  Uiso   1.00
C841   C     0.71948   0.19672   0.94716   0.00000  Uiso   1.00
C842   C     0.94707   0.13612   0.55292   0.00000  Uiso   1.00
C843   C     0.88124   0.04815   0.81648   0.00000  Uiso   1.00
C844   C     0.77213   0.28557   0.69728   0.00000  Uiso   1.00
C845   C     0.78547   0.04813   0.68337   0.00000  Uiso   1.00
C846   C     0.89441   0.28548   0.80304   0.00000  Uiso   1.00
C847   C     0.90842   0.15165   0.98115   0.00000  Uiso   1.00
C848   C     0.68797   0.12576   0.74901   0.00000  Uiso   1.00
C849   C     0.97871   0.20741   0.75059   0.00000  Uiso   1.00
C850   C     0.97870   0.12575   0.74914   0.00000  Uiso   1.00
C851   C     0.68796   0.20742   0.75078   0.00000  Uiso   1.00
C852   C     0.95748   0.16659   0.74993   0.00000  Uiso   1.00
H853   H     0.76955   0.17406   0.88333   0.00000  Uiso   1.00
H854   H     0.75170   0.18406   0.64854   0.00000  Uiso   1.00
H855   H     0.72011   0.21011   0.91346   0.00000  Uiso   1.00
H856   H     0.94643   0.12303   0.58675   0.00000  Uiso   1.00
H857   H     0.89748   0.07882   0.81015   0.00000  Uiso   1.00
H858   H     0.77722   0.25338   0.68243   0.00000  Uiso   1.00
H859   H     0.77007   0.07947   0.68926   0.00000  Uiso   1.00
H860   H     0.88948   0.25305   0.81744   0.00000  Uiso   1.00
H861   H     0.89710   0.15948   0.61665   0.00000  Uiso   1.00
H862   H     0.72947   0.18914   0.53491   0.00000  Uiso   1.00
H863   H     0.93705   0.14336   0.96513   0.00000  Uiso   1.00
H864   H     0.70410   0.09390   0.74827   0.00000  Uiso   1.00
H865   H     0.96262   0.23927   0.75097   0.00000  Uiso   1.00
H866   H     0.96257   0.09389   0.74856   0.00000  Uiso   1.00
H867   H     0.70405   0.23927   0.75168   0.00000  Uiso   1.00
H868   H     0.91471   0.14760   0.85165   0.00000  Uiso   1.00
N869   N     0.83333   0.28573   0.75000   0.00000  Uiso   1.00
N870   N     0.83333   0.04760   0.75000   0.00000  Uiso   1.00
O871   O     0.77226   0.20487   0.75000   0.00000  Uiso   1.00
O872   O     0.72404   0.14548   0.60229   0.00000  Uiso   1.00
O873   O     0.68573   0.19401   0.96446   0.00000  Uiso   1.00
O874   O     0.98079   0.13850   0.53553   0.00000  Uiso   1.00
O875   O     0.88179   0.03385   0.85487   0.00000  Uiso   1.00
O876   O     0.73728   0.30176   0.69335   0.00000  Uiso   1.00
O877   O     0.78416   0.03314   0.64523   0.00000  Uiso   1.00
O878   O     0.92911   0.30187   0.80764   0.00000  Uiso   1.00
O879   O     0.89441   0.12846   0.75001   0.00000  Uiso   1.00
O880   O     0.89441   0.20487   0.75001   0.00000  Uiso   1.00
O881   O     0.77226   0.12846   0.75000   0.00000  Uiso   1.00
O882   O     0.83333   0.20489   0.68393   0.00000  Uiso   1.00
O883   O     0.83334   0.12844   0.81608   0.00000  Uiso   1.00
O884   O     0.83334   0.20489   0.81608   0.00000  Uiso   1.00
O885   O     0.83333   0.12844   0.68393   0.00000  Uiso   1.00
O886   O     0.94267   0.18650   0.89745   0.00000  Uiso   1.00
Zn887  Zn    0.83333   0.21771   0.75000   0.00000  Uiso   1.00
Zn888  Zn    0.83333   0.11563   0.75000   0.00000  Uiso   1.00
C889   C     0.08674   0.50000   0.74995   0.00000  Uiso   1.00
C890   C     0.04252   0.49995   0.74990   0.00000  Uiso   1.00
C891   C     0.19159   0.35730   0.78000   0.00000  Uiso   1.00
C892   C     0.13921   0.64280   0.72262   0.00000  Uiso   1.00
C893   C     0.14172   0.35732   0.72000   0.00000  Uiso   1.00
C894   C     0.19409   0.64276   0.77746   0.00000  Uiso   1.00
C895   C     0.16614   0.49994   0.66375   0.00000  Uiso   1.00
C896   C     0.16716   0.50004   0.83625   0.00000  Uiso   1.00
C897   C     0.20651   0.49735   0.90821   0.00000  Uiso   1.00
C898   C     0.12673   0.50200   0.59180   0.00000  Uiso   1.00
C899   C     0.16849   0.50026   0.88395   0.00000  Uiso   1.00
C900   C     0.24660   0.49998   0.75000   0.00000  Uiso   1.00
C901   C     0.16478   0.49962   0.61605   0.00000  Uiso   1.00
C902   C     0.13091   0.50558   0.90448   0.00000  Uiso   1.00
C903   C     0.20237   0.49438   0.59552   0.00000  Uiso   1.00
C904   C     0.12962   0.50802   0.95090   0.00000  Uiso   1.00
C905   C     0.20362   0.49160   0.54911   0.00000  Uiso   1.00
C906   C     0.16711   0.50066   0.97656   0.00000  Uiso   1.00
C907   C     0.16612   0.49881   0.52345   0.00000  Uiso   1.00
C908   C     0.20560   0.49500   0.95526   0.00000  Uiso   1.00
C909   C     0.12762   0.50435   0.54476   0.00000  Uiso   1.00
C910   C     0.09184   0.51653   0.97224   0.00000  Uiso   1.00
C911   C     0.09144   0.51429   0.51888   0.00000  Uiso   1.00
C912   C     0.24138   0.48294   0.52780   0.00000  Uiso   1.00
C913   C     0.24610   0.49798   0.88361   0.00000  Uiso   1.00
C914   C     0.08713   0.50076   0.61638   0.00000  Uiso   1.00
C915   C     0.05281   0.53006   0.94716   0.00000  Uiso   1.00
C916   C     0.28040   0.46945   0.55292   0.00000  Uiso   1.00
C917   C     0.21458   0.38148   0.81648   0.00000  Uiso   1.00
C918   C     0.10546   0.61890   0.69728   0.00000  Uiso   1.00
C919   C     0.11881   0.38147   0.68337   0.00000  Uiso   1.00
C920   C     0.22774   0.61881   0.80304   0.00000  Uiso   1.00
C921   C     0.24176   0.48499   0.98115   0.00000  Uiso   1.00
C922   C     0.02130   0.45909   0.74901   0.00000  Uiso   1.00
C923   C     0.31204   0.54075   0.75059   0.00000  Uiso   1.00
C924   C     0.31203   0.45908   0.74914   0.00000  Uiso   1.00
C925   C     0.02129   0.54076   0.75078   0.00000  Uiso   1.00
C926   C     0.29081   0.49993   0.74993   0.00000  Uiso   1.00
H927   H     0.10288   0.50739   0.88333   0.00000  Uiso   1.00
H928   H     0.08504   0.51739   0.64854   0.00000  Uiso   1.00
H929   H     0.05345   0.54345   0.91346   0.00000  Uiso   1.00
H930   H     0.27976   0.45637   0.58675   0.00000  Uiso   1.00
H931   H     0.23081   0.41215   0.81015   0.00000  Uiso   1.00
H932   H     0.11055   0.58671   0.68243   0.00000  Uiso   1.00
H933   H     0.10341   0.41280   0.68926   0.00000  Uiso   1.00
H934   H     0.22281   0.58638   0.81744   0.00000  Uiso   1.00
H935   H     0.23043   0.49282   0.61665   0.00000  Uiso   1.00
H936   H     0.06280   0.52248   0.53491   0.00000  Uiso   1.00
H937   H     0.27038   0.47669   0.96513   0.00000  Uiso   1.00
H938   H     0.03743   0.42723   0.74827   0.00000  Uiso   1.00
H939   H     0.29595   0.57260   0.75097   0.00000  Uiso   1.00
H940   H     0.29590   0.42722   0.74856   0.00000  Uiso   1.00
H941   H     0.03739   0.57260   0.75168   0.00000  Uiso   1.00
H942   H     0.24804   0.48093   0.85165   0.00000  Uiso   1.00
N943   N     0.16667   0.61907   0.75000   0.00000  Uiso   1.00
N944   N     0.16667   0.38093   0.75000   0.00000  Uiso   1.00
O945   O     0.10559   0.53821   0.75000   0.00000  Uiso   1.00
O946   O     0.05738   0.47882   0.60229   0.00000  Uiso   1.00
O947   O     0.01907   0.52735   0.96446   0.00000  Uiso   1.00
O948   O     0.31412   0.47183   0.53553   0.00000  Uiso   1.00
O949   O     0.21513   0.36719   0.85487   0.00000  Uiso   1.00
O950   O     0.07061   0.63509   0.69335   0.00000  Uiso   1.00
O951   O     0.11749   0.36647   0.64523   0.00000  Uiso   1.00
O952   O     0.26244   0.63520   0.80764   0.00000  Uiso   1.00
O953   O     0.22774   0.46179   0.75001   0.00000  Uiso   1.00
O954   O     0.22774   0.53821   0.75001   0.00000  Uiso   1.00
O955   O     0.10559   0.46179   0.75000   0.00000  Uiso   1.00
O956   O     0.16666   0.53823   0.68393   0.00000  Uiso   1.00
O957   O     0.16667   0.46177   0.81608   0.00000  Uiso   1.00
O958   O     0.16667   0.53823   0.81608   0.00000  Uiso   1.00
O959   O     0.16666   0.46177   0.68393   0.00000  Uiso   1.00
O960   O     0.27600   0.51983   0.89745   0.00000  Uiso   1.00
Zn961  Zn    0.16667   0.55104   0.75000   0.00000  Uiso   1.00
Zn962  Zn    0.16667   0.44896   0.75000   0.00000  Uiso   1.00
C963   C     0.42007   0.50000   0.74995   0.00000  Uiso   1.00
C964   C     0.37586   0.49995   0.74990   0.00000  Uiso   1.00
C965   C     0.52493   0.35730   0.78000   0.00000  Uiso   1.00
C966   C     0.47254   0.64280   0.72262   0.00000  Uiso   1.00
C967   C     0.47505   0.35732   0.72000   0.00000  Uiso   1.00
C968   C     0.52742   0.64276   0.77746   0.00000  Uiso   1.00
C969   C     0.49948   0.49994   0.66375   0.00000  Uiso   1.00
C970   C     0.50049   0.50004   0.83625   0.00000  Uiso   1.00
C971   C     0.53984   0.49735   0.90821   0.00000  Uiso   1.00
C972   C     0.46006   0.50200   0.59180   0.00000  Uiso   1.00
C973   C     0.50183   0.50026   0.88395   0.00000  Uiso   1.00
C974   C     0.57993   0.49998   0.75000   0.00000  Uiso   1.00
C975   C     0.49811   0.49962   0.61605   0.00000  Uiso   1.00
C976   C     0.46424   0.50558   0.90448   0.00000  Uiso   1.00
C977   C     0.53571   0.49438   0.59552   0.00000  Uiso   1.00
C978   C     0.46296   0.50802   0.95090   0.00000  Uiso   1.00
C979   C     0.53695   0.49160   0.54911   0.00000  Uiso   1.00
C980   C     0.50044   0.50066   0.97656   0.00000  Uiso   1.00
C981   C     0.49945   0.49881   0.52345   0.00000  Uiso   1.00
C982   C     0.53893   0.49500   0.95526   0.00000  Uiso   1.00
C983   C     0.46095   0.50435   0.54476   0.00000  Uiso   1.00
C984   C     0.42517   0.51653   0.97224   0.00000  Uiso   1.00
C985   C     0.42477   0.51429   0.51888   0.00000  Uiso   1.00
C986   C     0.57471   0.48294   0.52780   0.00000  Uiso   1.00
C987   C     0.57943   0.49798   0.88361   0.00000  Uiso   1.00
C988   C     0.42046   0.50076   0.61638   0.00000  Uiso   1.00
C989   C     0.38614   0.53006   0.94716   0.00000  Uiso   1.00
C990   C     0.61373   0.46945   0.55292   0.00000  Uiso   1.00
C991   C     0.54791   0.38148   0.81648   0.00000  Uiso   1.00
C992   C     0.43880   0.61890   0.69728   0.00000  Uiso   1.00
C993   C     0.45214   0.38147   0.68337   0.00000  Uiso   1.00
C994   C     0.56107   0.61881   0.80304   0.00000  Uiso   1.00
C995   C     0.57509   0.48499   0.98115   0.00000  Uiso   1.00
C996   C     0.35464   0.45909   0.74901   0.00000  Uiso   1.00
C997   C     0.64537   0.54075   0.75059   0.00000  Uiso   1.00
C998   C     0.64536   0.45908   0.74914   0.00000  Uiso   1.00
C999   C     0.35462   0.54076   0.75078   0.00000  Uiso   1.00
C1000  C     0.62414   0.49993   0.74993   0.00000  Uiso   1.00
H1001  H     0.43621   0.50739   0.88333   0.00000  Uiso   1.00
H1002  H     0.41837   0.51739   0.64854   0.00000  Uiso   1.00
H1003  H     0.38678   0.54345   0.91346   0.00000  Uiso   1.00
H1004  H     0.61310   0.45637   0.58675   0.00000  Uiso   1.00
H1005  H     0.56414   0.41215   0.81015   0.00000  Uiso   1.00
H1006  H     0.44388   0.58671   0.68243   0.00000  Uiso   1.00
H1007  H     0.43674   0.41280   0.68926   0.00000  Uiso   1.00
H1008  H     0.55615   0.58638   0.81744   0.00000  Uiso   1.00
H1009  H     0.56376   0.49282   0.61665   0.00000  Uiso   1.00
H1010  H     0.39613   0.52248   0.53491   0.00000  Uiso   1.00
H1011  H     0.60371   0.47669   0.96513   0.00000  Uiso   1.00
H1012  H     0.37076   0.42723   0.74827   0.00000  Uiso   1.00
H1013  H     0.62928   0.57260   0.75097   0.00000  Uiso   1.00
H1014  H     0.62923   0.42722   0.74856   0.00000  Uiso   1.00
H1015  H     0.37072   0.57260   0.75168   0.00000  Uiso   1.00
H1016  H     0.58137   0.48093   0.85165   0.00000  Uiso   1.00
N1017  N     0.50000   0.61907   0.75000   0.00000  Uiso   1.00
N1018  N     0.50000   0.38093   0.75000   0.00000  Uiso   1.00
O1019  O     0.43892   0.53821   0.75000   0.00000  Uiso   1.00
O1020  O     0.39071   0.47882   0.60229   0.00000  Uiso   1.00
O1021  O     0.35240   0.52735   0.96446   0.00000  Uiso   1.00
O1022  O     0.64746   0.47183   0.53553   0.00000  Uiso   1.00
O1023  O     0.54846   0.36719   0.85487   0.00000  Uiso   1.00
O1024  O     0.40394   0.63509   0.69335   0.00000  Uiso   1.00
O1025  O     0.45083   0.36647   0.64523   0.00000  Uiso   1.00
O1026  O     0.59577   0.63520   0.80764   0.00000  Uiso   1.00
O1027  O     0.56108   0.46179   0.75001   0.00000  Uiso   1.00
O1028  O     0.56108   0.53821   0.75001   0.00000  Uiso   1.00
O1029  O     0.43892   0.46179   0.75000   0.00000  Uiso   1.00
O1030  O     0.49999   0.53823   0.68393   0.00000  Uiso   1.00
O1031  O     0.50001   0.46177   0.81608   0.00000  Uiso   1.00
O1032  O     0.50001   0.53823   0.81608   0.00000  Uiso   1.00
O1033  O     0.49999   0.46177   0.68393   0.00000  Uiso   1.00
O1034  O     0.60933   0.51983   0.89745   0.00000  Uiso   1.00
Zn1035 Zn    0.50000   0.55104   0.75000   0.00000  Uiso   1.00
Zn1036 Zn    0.50000   0.44896   0.75000   0.00000  Uiso   1.00
C1037  C     0.75341   0.50000   0.74995   0.00000  Uiso   1.00
C1038  C     0.70919   0.49995   0.74990   0.00000  Uiso   1.00
C1039  C     0.85826   0.35730   0.78000   0.00000  Uiso   1.00
C1040  C     0.80587   0.64280   0.72262   0.00000  Uiso   1.00
C1041  C     0.80838   0.35732   0.72000   0.00000  Uiso   1.00
C1042  C     0.86076   0.64276   0.77746   0.00000  Uiso   1.00
C1043  C     0.83281   0.49994   0.66375   0.00000  Uiso   1.00
C1044  C     0.83383   0.50004   0.83625   0.00000  Uiso   1.00
C1045  C     0.87317   0.49735   0.90821   0.00000  Uiso   1.00
C1046  C     0.79339   0.50200   0.59180   0.00000  Uiso   1.00
C1047  C     0.83516   0.50026   0.88395   0.00000  Uiso   1.00
C1048  C     0.91326   0.49998   0.75000   0.00000  Uiso   1.00
C1049  C     0.83145   0.49962   0.61605   0.00000  Uiso   1.00
C1050  C     0.79758   0.50558   0.90448   0.00000  Uiso   1.00
C1051  C     0.86904   0.49438   0.59552   0.00000  Uiso   1.00
C1052  C     0.79629   0.50802   0.95090   0.00000  Uiso   1.00
C1053  C     0.87029   0.49160   0.54911   0.00000  Uiso   1.00
C1054  C     0.83378   0.50066   0.97656   0.00000  Uiso   1.00
C1055  C     0.83278   0.49881   0.52345   0.00000  Uiso   1.00
C1056  C     0.87227   0.49500   0.95526   0.00000  Uiso   1.00
C1057  C     0.79428   0.50435   0.54476   0.00000  Uiso   1.00
C1058  C     0.75851   0.51653   0.97224   0.00000  Uiso   1.00
C1059  C     0.75810   0.51429   0.51888   0.00000  Uiso   1.00
C1060  C     0.90805   0.48294   0.52780   0.00000  Uiso   1.00
C1061  C     0.91277   0.49798   0.88361   0.00000  Uiso   1.00
C1062  C     0.75379   0.50076   0.61638   0.00000  Uiso   1.00
C1063  C     0.71948   0.53006   0.94716   0.00000  Uiso   1.00
C1064  C     0.94707   0.46945   0.55292   0.00000  Uiso   1.00
C1065  C     0.88124   0.38148   0.81648   0.00000  Uiso   1.00
C1066  C     0.77213   0.61890   0.69728   0.00000  Uiso   1.00
C1067  C     0.78547   0.38147   0.68337   0.00000  Uiso   1.00
C1068  C     0.89441   0.61881   0.80304   0.00000  Uiso   1.00
C1069  C     0.90842   0.48499   0.98115   0.00000  Uiso   1.00
C1070  C     0.68797   0.45909   0.74901   0.00000  Uiso   1.00
C1071  C     0.97871   0.54075   0.75059   0.00000  Uiso   1.00
C1072  C     0.97870   0.45908   0.74914   0.00000  Uiso   1.00
C1073  C     0.68796   0.54076   0.75078   0.00000  Uiso   1.00
C1074  C     0.95748   0.49993   0.74993   0.00000  Uiso   1.00
H1075  H     0.76955   0.50739   0.88333   0.00000  Uiso   1.00
H1076  H     0.75170   0.51739   0.64854   0.00000  Uiso   1.00
H1077  H     0.72011   0.54345   0.91346   0.00000  Uiso   1.00
H1078  H     0.94643   0.45637   0.58675   0.00000  Uiso   1.00
H1079  H     0.89748   0.41215   0.81015   0.00000  Uiso   1.00
H1080  H     0.77722   0.58671   0.68243   0.00000  Uiso   1.00
H1081  H     0.77007   0.41280   0.68926   0.00000  Uiso   1.00
H1082  H     0.88948   0.58638   0.81744   0.00000  Uiso   1.00
H1083  H     0.89710   0.49282   0.61665   0.00000  Uiso   1.00
H1084  H     0.72947   0.52248   0.53491   0.00000  Uiso   1.00
H1085  H     0.93705   0.47669   0.96513   0.00000  Uiso   1.00
H1086  H     0.70410   0.42723   0.74827   0.00000  Uiso   1.00
H1087  H     0.96262   0.57260   0.75097   0.00000  Uiso   1.00
H1088  H     0.96257   0.42722   0.74856   0.00000  Uiso   1.00
H1089  H     0.70405   0.57260   0.75168   0.00000  Uiso   1.00
H1090  H     0.91471   0.48093   0.85165   0.00000  Uiso   1.00
N1091  N     0.83333   0.61907   0.75000   0.00000  Uiso   1.00
N1092  N     0.83333   0.38093   0.75000   0.00000  Uiso   1.00
O1093  O     0.77226   0.53821   0.75000   0.00000  Uiso   1.00
O1094  O     0.72404   0.47882   0.60229   0.00000  Uiso   1.00
O1095  O     0.68573   0.52735   0.96446   0.00000  Uiso   1.00
O1096  O     0.98079   0.47183   0.53553   0.00000  Uiso   1.00
O1097  O     0.88179   0.36719   0.85487   0.00000  Uiso   1.00
O1098  O     0.73728   0.63509   0.69335   0.00000  Uiso   1.00
O1099  O     0.78416   0.36647   0.64523   0.00000  Uiso   1.00
O1100  O     0.92911   0.63520   0.80764   0.00000  Uiso   1.00
O1101  O     0.89441   0.46179   0.75001   0.00000  Uiso   1.00
O1102  O     0.89441   0.53821   0.75001   0.00000  Uiso   1.00
O1103  O     0.77226   0.46179   0.75000   0.00000  Uiso   1.00
O1104  O     0.83333   0.53823   0.68393   0.00000  Uiso   1.00
O1105  O     0.83334   0.46177   0.81608   0.00000  Uiso   1.00
O1106  O     0.83334   0.53823   0.81608   0.00000  Uiso   1.00
O1107  O     0.83333   0.46177   0.68393   0.00000  Uiso   1.00
O1108  O     0.94267   0.51983   0.89745   0.00000  Uiso   1.00
Zn1109 Zn    0.83333   0.55104   0.75000   0.00000  Uiso   1.00
Zn1110 Zn    0.83333   0.44896   0.75000   0.00000  Uiso   1.00
C1111  C     0.08674   0.83333   0.74995   0.00000  Uiso   1.00
C1112  C     0.04252   0.83328   0.74990   0.00000  Uiso   1.00
C1113  C     0.19159   0.69064   0.78000   0.00000  Uiso   1.00
C1114  C     0.13921   0.97613   0.72262   0.00000  Uiso   1.00
C1115  C     0.14172   0.69066   0.72000   0.00000  Uiso   1.00
C1116  C     0.19409   0.97609   0.77746   0.00000  Uiso   1.00
C1117  C     0.16614   0.83328   0.66375   0.00000  Uiso   1.00
C1118  C     0.16716   0.83337   0.83625   0.00000  Uiso   1.00
C1119  C     0.20651   0.83068   0.90821   0.00000  Uiso   1.00
C1120  C     0.12673   0.83533   0.59180   0.00000  Uiso   1.00
C1121  C     0.16849   0.83359   0.88395   0.00000  Uiso   1.00
C1122  C     0.24660   0.83331   0.75000   0.00000  Uiso   1.00
C1123  C     0.16478   0.83296   0.61605   0.00000  Uiso   1.00
C1124  C     0.13091   0.83891   0.90448   0.00000  Uiso   1.00
C1125  C     0.20237   0.82771   0.59552   0.00000  Uiso   1.00
C1126  C     0.12962   0.84135   0.95090   0.00000  Uiso   1.00
C1127  C     0.20362   0.82494   0.54911   0.00000  Uiso   1.00
C1128  C     0.16711   0.83399   0.97656   0.00000  Uiso   1.00
C1129  C     0.16612   0.83215   0.52345   0.00000  Uiso   1.00
C1130  C     0.20560   0.82833   0.95526   0.00000  Uiso   1.00
C1131  C     0.12762   0.83768   0.54476   0.00000  Uiso   1.00
C1132  C     0.09184   0.84987   0.97224   0.00000  Uiso   1.00
C1133  C     0.09144   0.84762   0.51888   0.00000  Uiso   1.00
C1134  C     0.24138   0.81627   0.52780   0.00000  Uiso   1.00
C1135  C     0.24610   0.83131   0.88361   0.00000  Uiso   1.00
C1136  C     0.08713   0.83409   0.61638   0.00000  Uiso   1.00
C1137  C     0.05281   0.86339   0.94716   0.00000  Uiso   1.00
C1138  C     0.28040   0.80278   0.55292   0.00000  Uiso   1.00
C1139  C     0.21458   0.71482   0.81648   0.00000  Uiso   1.00
C1140  C     0.10546   0.95223   0.69728   0.00000  Uiso   1.00
C1141  C     0.11881   0.71480   0.68337   0.00000  Uiso   1.00
C1142  C     0.22774   0.95214   0.80304   0.00000  Uiso   1.00
C1143  C     0.24176   0.81832   0.98115   0.00000  Uiso   1.00
C1144  C     0.02130   0.79243   0.74901   0.00000  Uiso   1.00
C1145  C     0.31204   0.87408   0.75059   0.00000  Uiso   1.00
C1146  C     0.31203   0.79242   0.74914   0.00000  Uiso   1.00
C1147  C     0.02129   0.87409   0.75078   0.00000  Uiso   1.00
C1148  C     0.29081   0.83326   0.74993   0.00000  Uiso   1.00
H1149  H     0.10288   0.84072   0.88333   0.00000  Uiso   1.00
H1150  H     0.08504   0.85073   0.64854   0.00000  Uiso   1.00
H1151  H     0.05345   0.87678   0.91346   0.00000  Uiso   1.00
H1152  H     0.27976   0.78970   0.58675   0.00000  Uiso   1.00
H1153  H     0.23081   0.74549   0.81015   0.00000  Uiso   1.00
H1154  H     0.11055   0.92005   0.68243   0.00000  Uiso   1.00
H1155  H     0.10341   0.74614   0.68926   0.00000  Uiso   1.00
H1156  H     0.22281   0.91971   0.81744   0.00000  Uiso   1.00
H1157  H     0.23043   0.82615   0.61665   0.00000  Uiso   1.00
H1158  H     0.06280   0.85581   0.53491   0.00000  Uiso   1.00
H1159  H     0.27038   0.81003   0.96513   0.00000  Uiso   1.00
H1160  H     0.03743   0.76057   0.74827   0.00000  Uiso   1.00
H1161  H     0.29595   0.90593   0.75097   0.00000  Uiso   1.00
H1162  H     0.29590   0.76055   0.74856   0.00000  Uiso   1.00
H1163  H     0.03739   0.90594   0.75168   0.00000  Uiso   1.00
H1164  H     0.24804   0.81426   0.85165   0.00000  Uiso   1.00
N1165  N     0.16667   0.95240   0.75000   0.00000  Uiso   1.00
N1166  N     0.16667   0.71427   0.75000   0.00000  Uiso   1.00
O1167  O     0.10559   0.87154   0.75000   0.00000  Uiso   1.00
O1168  O     0.05738   0.81215   0.60229   0.00000  Uiso   1.00
O1169  O     0.01907   0.86068   0.96446   0.00000  Uiso   1.00
O1170  O     0.31412   0.80517   0.53553   0.00000  Uiso   1.00
O1171  O     0.21513   0.70052   0.85487   0.00000  Uiso   1.00
O1172  O     0.07061   0.96842   0.69335   0.00000  Uiso   1.00
O1173  O     0.11749   0.69981   0.64523   0.00000  Uiso   1.00
O1174  O     0.26244   0.96853   0.80764   0.00000  Uiso   1.00
O1175  O     0.22774   0.79513   0.75001   0.00000  Uiso   1.00
O1176  O     0.22774   0.87154   0.75001   0.00000  Uiso   1.00
O1177  O     0.10559   0.79513   0.75000   0.00000  Uiso   1.00
O1178  O     0.16666   0.87156   0.68393   0.00000  Uiso   1.00
O1179  O     0.16667   0.79511   0.81608   0.00000  Uiso   1.00
O1180  O     0.16667   0.87156   0.81608   0.00000  Uiso   1.00
O1181  O     0.16666   0.79511   0.68393   0.00000  Uiso   1.00
O1182  O     0.27600   0.85316   0.89745   0.00000  Uiso   1.00
Zn1183 Zn    0.16667   0.88437   0.75000   0.00000  Uiso   1.00
Zn1184 Zn    0.16667   0.78229   0.75000   0.00000  Uiso   1.00
C1185  C     0.42007   0.83333   0.74995   0.00000  Uiso   1.00
C1186  C     0.37586   0.83328   0.74990   0.00000  Uiso   1.00
C1187  C     0.52493   0.69064   0.78000   0.00000  Uiso   1.00
C1188  C     0.47254   0.97613   0.72262   0.00000  Uiso   1.00
C1189  C     0.47505   0.69066   0.72000   0.00000  Uiso   1.00
C1190  C     0.52742   0.97609   0.77746   0.00000  Uiso   1.00
C1191  C     0.49948   0.83328   0.66375   0.00000  Uiso   1.00
C1192  C     0.50049   0.83337   0.83625   0.00000  Uiso   1.00
C1193  C     0.53984   0.83068   0.90821   0.00000  Uiso   1.00
C1194  C     0.46006   0.83533   0.59180   0.00000  Uiso   1.00
C1195  C     0.50183   0.83359   0.88395   0.00000  Uiso   1.00
C1196  C     0.57993   0.83331   0.75000   0.00000  Uiso   1.00
C1197  C     0.49811   0.83296   0.61605   0.00000  Uiso   1.00
C1198  C     0.46424   0.83891   0.90448   0.00000  Uiso   1.00
C1199  C     0.53571   0.82771   0.59552   0.00000  Uiso   1.00
C1200  C     0.46296   0.84135   0.95090   0.00000  Uiso   1.00
C1201  C     0.53695   0.82494   0.54911   0.00000  Uiso   1.00
C1202  C     0.50044   0.83399   0.97656   0.00000  Uiso   1.00
C1203  C     0.49945   0.83215   0.52345   0.00000  Uiso   1.00
C1204  C     0.53893   0.82833   0.95526   0.00000  Uiso   1.00
C1205  C     0.46095   0.83768   0.54476   0.00000  Uiso   1.00
C1206  C     0.42517   0.84987   0.97224   0.00000  Uiso   1.00
C1207  C     0.42477   0.84762   0.51888   0.00000  Uiso   1.00
C1208  C     0.57471   0.81627   0.52780   0.00000  Uiso   1.00
C1209  C     0.57943   0.83131   0.88361   0.00000  Uiso   1.00
C1210  C     0.42046   0.83409   0.61638   0.00000  Uiso   1.00
C1211  C     0.38614   0.86339   0.94716   0.00000  Uiso   1.00
C1212  C     0.61373   0.80278   0.55292   0.00000  Uiso   1.00
C1213  C     0.54791   0.71482   0.81648   0.00000  Uiso   1.00
C1214  C     0.43880   0.95223   0.69728   0.00000  Uiso   1.00
C1215  C     0.45214   0.71480   0.68337   0.00000  Uiso   1.00
C1216  C     0.56107   0.95214   0.80304   0.00000  Uiso   1.00
C1217  C     0.57509   0.81832   0.98115   0.00000  Uiso   1.00
C1218  C     0.35464   0.79243   0.74901   0.00000  Uiso   1.00
C1219  C     0.64537   0.87408   0.75059   0.00000  Uiso   1.00
C1220  C     0.64536   0.79242   0.74914   0.00000  Uiso   1.00
C1221  C     0.35462   0.87409   0.75078   0.00000  Uiso   1.00
C1222  C     0.62414   0.83326   0.74993   0.00000  Uiso   1.00
H1223  H     0.43621   0.84072   0.88333   0.00000  Uiso   1.00
H1224  H     0.41837   0.85073   0.64854   0.00000  Uiso   1.00
H1225  H     0.38678   0.87678   0.91346   0.00000  Uiso   1.00
H1226  H     0.61310   0.78970   0.58675   0.00000  Uiso   1.00
H1227  H     0.56414   0.74549   0.81015   0.00000  Uiso   1.00
H1228  H     0.44388   0.92005   0.68243   0.00000  Uiso   1.00
H1229  H     0.43674   0.74614   0.68926   0.00000  Uiso   1.00
H1230  H     0.55615   0.91971   0.81744   0.00000  Uiso   1.00
H1231  H     0.56376   0.82615   0.61665   0.00000  Uiso   1.00
H1232  H     0.39613   0.85581   0.53491   0.00000  Uiso   1.00
H1233  H     0.60371   0.81003   0.96513   0.00000  Uiso   1.00
H1234  H     0.37076   0.76057   0.74827   0.00000  Uiso   1.00
H1235  H     0.62928   0.90593   0.75097   0.00000  Uiso   1.00
H1236  H     0.62923   0.76055   0.74856   0.00000  Uiso   1.00
H1237  H     0.37072   0.90594   0.75168   0.00000  Uiso   1.00
H1238  H     0.58137   0.81426   0.85165   0.00000  Uiso   1.00
N1239  N     0.50000   0.95240   0.75000   0.00000  Uiso   1.00
N1240  N     0.50000   0.71427   0.75000   0.00000  Uiso   1.00
O1241  O     0.43892   0.87154   0.75000   0.00000  Uiso   1.00
O1242  O     0.39071   0.81215   0.60229   0.00000  Uiso   1.00
O1243  O     0.35240   0.86068   0.96446   0.00000  Uiso   1.00
O1244  O     0.64746   0.80517   0.53553   0.00000  Uiso   1.00
O1245  O     0.54846   0.70052   0.85487   0.00000  Uiso   1.00
O1246  O     0.40394   0.96842   0.69335   0.00000  Uiso   1.00
O1247  O     0.45083   0.69981   0.64523   0.00000  Uiso   1.00
O1248  O     0.59577   0.96853   0.80764   0.00000  Uiso   1.00
O1249  O     0.56108   0.79513   0.75001   0.00000  Uiso   1.00
O1250  O     0.56108   0.87154   0.75001   0.00000  Uiso   1.00
O1251  O     0.43892   0.79513   0.75000   0.00000  Uiso   1.00
O1252  O     0.49999   0.87156   0.68393   0.00000  Uiso   1.00
O1253  O     0.50001   0.79511   0.81608   0.00000  Uiso   1.00
O1254  O     0.50001   0.87156   0.81608   0.00000  Uiso   1.00
O1255  O     0.49999   0.79511   0.68393   0.00000  Uiso   1.00
O1256  O     0.60933   0.85316   0.89745   0.00000  Uiso   1.00
Zn1257 Zn    0.50000   0.88437   0.75000   0.00000  Uiso   1.00
Zn1258 Zn    0.50000   0.78229   0.75000   0.00000  Uiso   1.00
C1259  C     0.75341   0.83333   0.74995   0.00000  Uiso   1.00
C1260  C     0.70919   0.83328   0.74990   0.00000  Uiso   1.00
C1261  C     0.85826   0.69064   0.78000   0.00000  Uiso   1.00
C1262  C     0.80587   0.97613   0.72262   0.00000  Uiso   1.00
C1263  C     0.80838   0.69066   0.72000   0.00000  Uiso   1.00
C1264  C     0.86076   0.97609   0.77746   0.00000  Uiso   1.00
C1265  C     0.83281   0.83328   0.66375   0.00000  Uiso   1.00
C1266  C     0.83383   0.83337   0.83625   0.00000  Uiso   1.00
C1267  C     0.87317   0.83068   0.90821   0.00000  Uiso   1.00
C1268  C     0.79339   0.83533   0.59180   0.00000  Uiso   1.00
C1269  C     0.83516   0.83359   0.88395   0.00000  Uiso   1.00
C1270  C     0.91326   0.83331   0.75000   0.00000  Uiso   1.00
C1271  C     0.83145   0.83296   0.61605   0.00000  Uiso   1.00
C1272  C     0.79758   0.83891   0.90448   0.00000  Uiso   1.00
C1273  C     0.86904   0.82771   0.59552   0.00000  Uiso   1.00
C1274  C     0.79629   0.84135   0.95090   0.00000  Uiso   1.00
C1275  C     0.87029   0.82494   0.54911   0.00000  Uiso   1.00
C1276  C     0.83378   0.83399   0.97656   0.00000  Uiso   1.00
C1277  C     0.83278   0.83215   0.52345   0.00000  Uiso   1.00
C1278  C     0.87227   0.82833   0.95526   0.00000  Uiso   1.00
C1279  C     0.79428   0.83768   0.54476   0.00000  Uiso   1.00
C1280  C     0.75851   0.84987   0.97224   0.00000  Uiso   1.00
C1281  C     0.75810   0.84762   0.51888   0.00000  Uiso   1.00
C1282  C     0.90805   0.81627   0.52780   0.00000  Uiso   1.00
C1283  C     0.91277   0.83131   0.88361   0.00000  Uiso   1.00
C1284  C     0.75379   0.83409   0.61638   0.00000  Uiso   1.00
C1285  C     0.71948   0.86339   0.94716   0.00000  Uiso   1.00
C1286  C     0.94707   0.80278   0.55292   0.00000  Uiso   1.00
C1287  C     0.88124   0.71482   0.81648   0.00000  Uiso   1.00
C1288  C     0.77213   0.95223   0.69728   0.00000  Uiso   1.00
C1289  C     0.78547   0.71480   0.68337   0.00000  Uiso   1.00
C1290  C     0.89441   0.95214   0.80304   0.00000  Uiso   1.00
C1291  C     0.90842   0.81832   0.98115   0.00000  Uiso   1.00
C1292  C     0.68797   0.79243   0.74901   0.00000  Uiso   1.00
C1293  C     0.97871   0.87408   0.75059   0.00000  Uiso   1.00
C1294  C     0.97870   0.79242   0.74914   0.00000  Uiso   1.00
C1295  C     0.68796   0.87409   0.75078   0.00000  Uiso   1.00
C1296  C     0.95748   0.83326   0.74993   0.00000  Uiso   1.00
H1297  H     0.76955   0.84072   0.88333   0.00000  Uiso   1.00
H1298  H     0.75170   0.85073   0.64854   0.00000  Uiso   1.00
H1299  H     0.72011   0.87678   0.91346   0.00000  Uiso   1.00
H1300  H     0.94643   0.78970   0.58675   0.00000  Uiso   1.00
H1301  H     0.89748   0.74549   0.81015   0.00000  Uiso   1.00
H1302  H     0.77722   0.92005   0.68243   0.00000  Uiso   1.00
H1303  H     0.77007   0.74614   0.68926   0.00000  Uiso   1.00
H1304  H     0.88948   0.91971   0.81744   0.00000  Uiso   1.00
H1305  H     0.89710   0.82615   0.61665   0.00000  Uiso   1.00
H1306  H     0.72947   0.85581   0.53491   0.00000  Uiso   1.00
H1307  H     0.93705   0.81003   0.96513   0.00000  Uiso   1.00
H1308  H     0.70410   0.76057   0.74827   0.00000  Uiso   1.00
H1309  H     0.96262   0.90593   0.75097   0.00000  Uiso   1.00
H1310  H     0.96257   0.76055   0.74856   0.00000  Uiso   1.00
H1311  H     0.70405   0.90594   0.75168   0.00000  Uiso   1.00
H1312  H     0.91471   0.81426   0.85165   0.00000  Uiso   1.00
N1313  N     0.83333   0.95240   0.75000   0.00000  Uiso   1.00
N1314  N     0.83333   0.71427   0.75000   0.00000  Uiso   1.00
O1315  O     0.77226   0.87154   0.75000   0.00000  Uiso   1.00
O1316  O     0.72404   0.81215   0.60229   0.00000  Uiso   1.00
O1317  O     0.68573   0.86068   0.96446   0.00000  Uiso   1.00
O1318  O     0.98079   0.80517   0.53553   0.00000  Uiso   1.00
O1319  O     0.88179   0.70052   0.85487   0.00000  Uiso   1.00
O1320  O     0.73728   0.96842   0.69335   0.00000  Uiso   1.00
O1321  O     0.78416   0.69981   0.64523   0.00000  Uiso   1.00
O1322  O     0.92911   0.96853   0.80764   0.00000  Uiso   1.00
O1323  O     0.89441   0.79513   0.75001   0.00000  Uiso   1.00
O1324  O     0.89441   0.87154   0.75001   0.00000  Uiso   1.00
O1325  O     0.77226   0.79513   0.75000   0.00000  Uiso   1.00
O1326  O     0.83333   0.87156   0.68393   0.00000  Uiso   1.00
O1327  O     0.83334   0.79511   0.81608   0.00000  Uiso   1.00
O1328  O     0.83334   0.87156   0.81608   0.00000  Uiso   1.00
O1329  O     0.83333   0.79511   0.68393   0.00000  Uiso   1.00
O1330  O     0.94267   0.85316   0.89745   0.00000  Uiso   1.00
Zn1331 Zn    0.83333   0.88437   0.75000   0.00000  Uiso   1.00
Zn1332 Zn    0.83333   0.78229   0.75000   0.00000  Uiso   1.00
loop_
_geom_bond_atom_site_label_1
_geom_bond_atom_site_label_2
_geom_bond_distance
_geom_bond_site_symmetry_2
_ccdc_geom_bond_type
C1     O67     1.291   .     A
C1     O57     1.292   .     A
C1     C2      1.421   .     S
C2     C37     1.397   .     A
C2     C34     1.398   .     A
C3     N56     1.373   .     A
C3     C29     1.480   .     S
C3     C450    1.434   1_545 S
C4     N55     1.376   .     A
C4     C30     1.482   .     S
C4     C227    1.434   .     S
C5     N56     1.373   .     A
C5     C31     1.482   .     S
C5     C448    1.434   1_545 S
C6     C32     1.483   .     S
C6     N55     1.376   .     A
C6     C225    1.434   .     S
C7     O71     1.289   .     A
C7     O68     1.291   .     A
C7     C13     1.421   .     S
C8     O70     1.289   .     A
C8     O69     1.291   .     A
C8     C11     1.421   .     S
C9     C11     1.399   .     A
C9     C25     1.493   .     S
C9     C20     1.406   .     A
C10    C26     1.493   .     S
C10    C21     1.406   .     A
C10    C13     1.399   .     A
C11    C14     1.383   .     A
C12    C38     1.421   .     S
C12    O65     1.292   .     A
C12    O66     1.292   .     A
C13    C15     1.384   .     A
C14    H39     1.082   .     S
C14    C16     1.388   .     A
C15    H47     1.082   .     S
C15    C17     1.388   .     A
C16    C18     1.420   .     A
C16    C22     1.415   .     A
C17    C24     1.414   .     A
C17    C19     1.420   .     A
C18    C20     1.422   .     A
C18    C685    1.401   .     S
C19    C21     1.421   .     A
C19    C684    1.401   1_554 S
C20    C33     1.403   .     A
C21    C23     1.403   .     A
C22    C27     1.492   .     S
C22    C689    1.393   .     S
C23    H48     1.081   .     S
C23    C688    1.393   1_554 S
C24    C28     1.492   .     S
C24    C699    1.393   1_554 S
C25    O72     1.221   .     D
C25    H54     1.084   .     S
C26    O58     1.221   .     D
C26    H40     1.084   .     S
C27    H41     1.083   .     S
C27    O59     1.221   .     D
C28    O60     1.221   .     D
C28    H42     1.083   .     S
C29    O61     1.221   .     D
C29    H43     1.075   .     S
C30    H44     1.073   .     S
C30    O62     1.221   .     D
C31    H45     1.075   .     S
C31    O63     1.221   .     D
C32    H46     1.074   .     S
C32    O64     1.221   .     D
C33    H49     1.081   .     S
C33    C690    1.393   .     S
C34    H50     1.084   .     S
C34    C184    1.369   1_455 S
C35    H51     1.082   .     S
C35    C38     1.397   .     A
C35    C111    1.368   .     S
C36    H52     1.084   .     S
C36    C38     1.397   .     A
C36    C108    1.369   .     S
C37    H53     1.083   .     S
C37    C183    1.368   1_455 S
N55    Zn73    2.031   .     S
N56    Zn74    2.031   .     S
O57    Zn73    2.000   .     S
O65    Zn74    2.000   .     S
O66    Zn73    2.000   .     S
O67    Zn74    2.000   .     S
O68    Zn73    2.007   .     S
O69    Zn74    2.007   .     S
O70    Zn73    2.007   .     S
O71    Zn74    2.007   .     S
C75    O141    1.291   .     A
C75    O131    1.292   .     A
C75    C76     1.421   .     S
C76    C111    1.397   .     A
C76    C108    1.398   .     A
C77    N130    1.373   .     A
C77    C103    1.480   .     S
C77    C524    1.434   1_545 S
C78    N129    1.376   .     A
C78    C104    1.482   .     S
C78    C301    1.434   .     S
C79    N130    1.373   .     A
C79    C105    1.482   .     S
C79    C522    1.434   1_545 S
C80    C106    1.483   .     S
C80    N129    1.376   .     A
C80    C299    1.434   .     S
C81    O145    1.289   .     A
C81    O142    1.291   .     A
C81    C87     1.421   .     S
C82    O144    1.289   .     A
C82    O143    1.291   .     A
C82    C85     1.421   .     S
C83    C85     1.399   .     A
C83    C99     1.493   .     S
C83    C94     1.406   .     A
C84    C100    1.493   .     S
C84    C95     1.406   .     A
C84    C87     1.399   .     A
C85    C88     1.383   .     A
C86    C112    1.421   .     S
C86    O139    1.292   .     A
C86    O140    1.292   .     A
C87    C89     1.384   .     A
C88    H113    1.082   .     S
C88    C90     1.388   .     A
C89    H121    1.082   .     S
C89    C91     1.388   .     A
C90    C92     1.420   .     A
C90    C96     1.415   .     A
C91    C98     1.414   .     A
C91    C93     1.420   .     A
C92    C94     1.422   .     A
C92    C759    1.401   .     S
C93    C95     1.421   .     A
C93    C758    1.401   1_554 S
C94    C107    1.403   .     A
C95    C97     1.403   .     A
C96    C101    1.492   .     S
C96    C763    1.393   .     S
C97    H122    1.081   .     S
C97    C762    1.393   1_554 S
C98    C102    1.492   .     S
C98    C773    1.393   1_554 S
C99    O146    1.221   .     D
C99    H128    1.084   .     S
C100   O132    1.221   .     D
C100   H114    1.084   .     S
C101   H115    1.083   .     S
C101   O133    1.221   .     D
C102   O134    1.221   .     D
C102   H116    1.083   .     S
C103   O135    1.221   .     D
C103   H117    1.075   .     S
C104   H118    1.073   .     S
C104   O136    1.221   .     D
C105   H119    1.075   .     S
C105   O137    1.221   .     D
C106   H120    1.074   .     S
C106   O138    1.221   .     D
C107   H123    1.081   .     S
C107   C764    1.393   .     S
C108   H124    1.084   .     S
C109   H125    1.082   .     S
C109   C112    1.397   .     A
C109   C185    1.368   .     S
C110   H126    1.084   .     S
C110   C112    1.397   .     A
C110   C182    1.369   .     S
C111   H127    1.083   .     S
N129   Zn147   2.031   .     S
N130   Zn148   2.031   .     S
O131   Zn147   2.000   .     S
O139   Zn148   2.000   .     S
O140   Zn147   2.000   .     S
O141   Zn148   2.000   .     S
O142   Zn147   2.007   .     S
O143   Zn148   2.007   .     S
O144   Zn147   2.007   .     S
O145   Zn148   2.007   .     S
C149   O215    1.291   .     A
C149   O205    1.292   .     A
C149   C150    1.421   .     S
C150   C185    1.397   .     A
C150   C182    1.398   .     A
C151   N204    1.373   .     A
C151   C177    1.480   .     S
C151   C598    1.434   1_545 S
C152   N203    1.376   .     A
C152   C178    1.482   .     S
C152   C375    1.434   .     S
C153   N204    1.373   .     A
C153   C179    1.482   .     S
C153   C596    1.434   1_545 S
C154   C180    1.483   .     S
C154   N203    1.376   .     A
C154   C373    1.434   .     S
C155   O219    1.289   .     A
C155   O216    1.291   .     A
C155   C161    1.421   .     S
C156   O218    1.289   .     A
C156   O217    1.291   .     A
C156   C159    1.421   .     S
C157   C159    1.399   .     A
C157   C173    1.493   .     S
C157   C168    1.406   .     A
C158   C174    1.493   .     S
C158   C169    1.406   .     A
C158   C161    1.399   .     A
C159   C162    1.383   .     A
C160   C186    1.421   .     S
C160   O213    1.292   .     A
C160   O214    1.292   .     A
C161   C163    1.384   .     A
C162   H187    1.082   .     S
C162   C164    1.388   .     A
C163   H195    1.082   .     S
C163   C165    1.388   .     A
C164   C166    1.420   .     A
C164   C170    1.415   .     A
C165   C172    1.414   .     A
C165   C167    1.420   .     A
C166   C168    1.422   .     A
C166   C833    1.401   .     S
C167   C169    1.421   .     A
C167   C832    1.401   1_554 S
C168   C181    1.403   .     A
C169   C171    1.403   .     A
C170   C175    1.492   .     S
C170   C837    1.393   .     S
C171   H196    1.081   .     S
C171   C836    1.393   1_554 S
C172   C176    1.492   .     S
C172   C847    1.393   1_554 S
C173   O220    1.221   .     D
C173   H202    1.084   .     S
C174   O206    1.221   .     D
C174   H188    1.084   .     S
C175   H189    1.083   .     S
C175   O207    1.221   .     D
C176   O208    1.221   .     D
C176   H190    1.083   .     S
C177   O209    1.221   .     D
C177   H191    1.075   .     S
C178   H192    1.073   .     S
C178   O210    1.221   .     D
C179   H193    1.075   .     S
C179   O211    1.221   .     D
C180   H194    1.074   .     S
C180   O212    1.221   .     D
C181   H197    1.081   .     S
C181   C838    1.393   .     S
C182   H198    1.084   .     S
C183   H199    1.082   .     S
C183   C186    1.397   .     A
C183   C37     1.368   1_655 S
C184   H200    1.084   .     S
C184   C186    1.397   .     A
C184   C34     1.369   1_655 S
C185   H201    1.083   .     S
N203   Zn221   2.031   .     S
N204   Zn222   2.031   .     S
O205   Zn221   2.000   .     S
O213   Zn222   2.000   .     S
O214   Zn221   2.000   .     S
O215   Zn222   2.000   .     S
O216   Zn221   2.007   .     S
O217   Zn222   2.007   .     S
O218   Zn221   2.007   .     S
O219   Zn222   2.007   .     S
C223   O289    1.291   .     A
C223   O279    1.292   .     A
C223   C224    1.421   .     S
C224   C259    1.397   .     A
C224   C256    1.398   .     A
C225   N278    1.373   .     A
C225   C251    1.480   .     S
C226   N277    1.376   .     A
C226   C252    1.482   .     S
C226   C449    1.434   .     S
C227   N278    1.373   .     A
C227   C253    1.482   .     S
C228   C254    1.483   .     S
C228   N277    1.376   .     A
C228   C447    1.434   .     S
C229   O293    1.289   .     A
C229   O290    1.291   .     A
C229   C235    1.421   .     S
C230   O292    1.289   .     A
C230   O291    1.291   .     A
C230   C233    1.421   .     S
C231   C233    1.399   .     A
C231   C247    1.493   .     S
C231   C242    1.406   .     A
C232   C248    1.493   .     S
C232   C243    1.406   .     A
C232   C235    1.399   .     A
C233   C236    1.383   .     A
C234   C260    1.421   .     S
C234   O287    1.292   .     A
C234   O288    1.292   .     A
C235   C237    1.384   .     A
C236   H261    1.082   .     S
C236   C238    1.388   .     A
C237   H269    1.082   .     S
C237   C239    1.388   .     A
C238   C240    1.420   .     A
C238   C244    1.415   .     A
C239   C246    1.414   .     A
C239   C241    1.420   .     A
C240   C242    1.422   .     A
C240   C907    1.401   .     S
C241   C243    1.421   .     A
C241   C906    1.401   1_554 S
C242   C255    1.403   .     A
C243   C245    1.403   .     A
C244   C249    1.492   .     S
C244   C911    1.393   .     S
C245   H270    1.081   .     S
C245   C910    1.393   1_554 S
C246   C250    1.492   .     S
C246   C921    1.393   1_554 S
C247   O294    1.221   .     D
C247   H276    1.084   .     S
C248   O280    1.221   .     D
C248   H262    1.084   .     S
C249   H263    1.083   .     S
C249   O281    1.221   .     D
C250   O282    1.221   .     D
C250   H264    1.083   .     S
C251   O283    1.221   .     D
C251   H265    1.075   .     S
C252   H266    1.073   .     S
C252   O284    1.221   .     D
C253   H267    1.075   .     S
C253   O285    1.221   .     D
C254   H268    1.074   .     S
C254   O286    1.221   .     D
C255   H271    1.081   .     S
C255   C912    1.393   .     S
C256   H272    1.084   .     S
C256   C406    1.369   1_455 S
C257   H273    1.082   .     S
C257   C260    1.397   .     A
C257   C333    1.368   .     S
C258   H274    1.084   .     S
C258   C260    1.397   .     A
C258   C330    1.369   .     S
C259   H275    1.083   .     S
C259   C405    1.368   1_455 S
N277   Zn295   2.031   .     S
N278   Zn296   2.031   .     S
O279   Zn295   2.000   .     S
O287   Zn296   2.000   .     S
O288   Zn295   2.000   .     S
O289   Zn296   2.000   .     S
O290   Zn295   2.007   .     S
O291   Zn296   2.007   .     S
O292   Zn295   2.007   .     S
O293   Zn296   2.007   .     S
C297   O363    1.291   .     A
C297   O353    1.292   .     A
C297   C298    1.421   .     S
C298   C333    1.397   .     A
C298   C330    1.398   .     A
C299   N352    1.373   .     A
C299   C325    1.480   .     S
C300   N351    1.376   .     A
C300   C326    1.482   .     S
C300   C523    1.434   .     S
C301   N352    1.373   .     A
C301   C327    1.482   .     S
C302   C328    1.483   .     S
C302   N351    1.376   .     A
C302   C521    1.434   .     S
C303   O367    1.289   .     A
C303   O364    1.291   .     A
C303   C309    1.421   .     S
C304   O366    1.289   .     A
C304   O365    1.291   .     A
C304   C307    1.421   .     S
C305   C307    1.399   .     A
C305   C321    1.493   .     S
C305   C316    1.406   .     A
C306   C322    1.493   .     S
C306   C317    1.406   .     A
C306   C309    1.399   .     A
C307   C310    1.383   .     A
C308   C334    1.421   .     S
C308   O361    1.292   .     A
C308   O362    1.292   .     A
C309   C311    1.384   .     A
C310   H335    1.082   .     S
C310   C312    1.388   .     A
C311   H343    1.082   .     S
C311   C313    1.388   .     A
C312   C314    1.420   .     A
C312   C318    1.415   .     A
C313   C320    1.414   .     A
C313   C315    1.420   .     A
C314   C316    1.422   .     A
C314   C981    1.401   .     S
C315   C317    1.421   .     A
C315   C980    1.401   1_554 S
C316   C329    1.403   .     A
C317   C319    1.403   .     A
C318   C323    1.492   .     S
C318   C985    1.393   .     S
C319   H344    1.081   .     S
C319   C984    1.393   1_554 S
C320   C324    1.492   .     S
C320   C995    1.393   1_554 S
C321   O368    1.221   .     D
C321   H350    1.084   .     S
C322   O354    1.221   .     D
C322   H336    1.084   .     S
C323   H337    1.083   .     S
C323   O355    1.221   .     D
C324   O356    1.221   .     D
C324   H338    1.083   .     S
C325   O357    1.221   .     D
C325   H339    1.075   .     S
C326   H340    1.073   .     S
C326   O358    1.221   .     D
C327   H341    1.075   .     S
C327   O359    1.221   .     D
C328   H342    1.074   .     S
C328   O360    1.221   .     D
C329   H345    1.081   .     S
C329   C986    1.393   .     S
C330   H346    1.084   .     S
C331   H347    1.082   .     S
C331   C334    1.397   .     A
C331   C407    1.368   .     S
C332   H348    1.084   .     S
C332   C334    1.397   .     A
C332   C404    1.369   .     S
C333   H349    1.083   .     S
N351   Zn369   2.031   .     S
N352   Zn370   2.031   .     S
O353   Zn369   2.000   .     S
O361   Zn370   2.000   .     S
O362   Zn369   2.000   .     S
O363   Zn370   2.000   .     S
O364   Zn369   2.007   .     S
O365   Zn370   2.007   .     S
O366   Zn369   2.007   .     S
O367   Zn370   2.007   .     S
C371   O437    1.291   .     A
C371   O427    1.292   .     A
C371   C372    1.421   .     S
C372   C407    1.397   .     A
C372   C404    1.398   .     A
C373   N426    1.373   .     A
C373   C399    1.480   .     S
C374   N425    1.376   .     A
C374   C400    1.482   .     S
C374   C597    1.434   .     S
C375   N426    1.373   .     A
C375   C401    1.482   .     S
C376   C402    1.483   .     S
C376   N425    1.376   .     A
C376   C595    1.434   .     S
C377   O441    1.289   .     A
C377   O438    1.291   .     A
C377   C383    1.421   .     S
C378   O440    1.289   .     A
C378   O439    1.291   .     A
C378   C381    1.421   .     S
C379   C381    1.399   .     A
C379   C395    1.493   .     S
C379   C390    1.406   .     A
C380   C396    1.493   .     S
C380   C391    1.406   .     A
C380   C383    1.399   .     A
C381   C384    1.383   .     A
C382   C408    1.421   .     S
C382   O435    1.292   .     A
C382   O436    1.292   .     A
C383   C385    1.384   .     A
C384   H409    1.082   .     S
C384   C386    1.388   .     A
C385   H417    1.082   .     S
C385   C387    1.388   .     A
C386   C388    1.420   .     A
C386   C392    1.415   .     A
C387   C394    1.414   .     A
C387   C389    1.420   .     A
C388   C390    1.422   .     A
C388   C1055   1.401   .     S
C389   C391    1.421   .     A
C389   C1054   1.401   1_554 S
C390   C403    1.403   .     A
C391   C393    1.403   .     A
C392   C397    1.492   .     S
C392   C1059   1.393   .     S
C393   H418    1.081   .     S
C393   C1058   1.393   1_554 S
C394   C398    1.492   .     S
C394   C1069   1.393   1_554 S
C395   O442    1.221   .     D
C395   H424    1.084   .     S
C396   O428    1.221   .     D
C396   H410    1.084   .     S
C397   H411    1.083   .     S
C397   O429    1.221   .     D
C398   O430    1.221   .     D
C398   H412    1.083   .     S
C399   O431    1.221   .     D
C399   H413    1.075   .     S
C400   H414    1.073   .     S
C400   O432    1.221   .     D
C401   H415    1.075   .     S
C401   O433    1.221   .     D
C402   H416    1.074   .     S
C402   O434    1.221   .     D
C403   H419    1.081   .     S
C403   C1060   1.393   .     S
C404   H420    1.084   .     S
C405   H421    1.082   .     S
C405   C408    1.397   .     A
C405   C259    1.368   1_655 S
C406   H422    1.084   .     S
C406   C408    1.397   .     A
C406   C256    1.369   1_655 S
C407   H423    1.083   .     S
N425   Zn443   2.031   .     S
N426   Zn444   2.031   .     S
O427   Zn443   2.000   .     S
O435   Zn444   2.000   .     S
O436   Zn443   2.000   .     S
O437   Zn444   2.000   .     S
O438   Zn443   2.007   .     S
O439   Zn444   2.007   .     S
O440   Zn443   2.007   .     S
O441   Zn444   2.007   .     S
C445   O511    1.291   .     A
C445   O501    1.292   .     A
C445   C446    1.421   .     S
C446   C481    1.397   .     A
C446   C478    1.398   .     A
C447   N500    1.373   .     A
C447   C473    1.480   .     S
C448   N499    1.376   .     A
C448   C474    1.482   .     S
C448   C5      1.434   1_565 S
C449   N500    1.373   .     A
C449   C475    1.482   .     S
C450   C476    1.483   .     S
C450   N499    1.376   .     A
C450   C3      1.434   1_565 S
C451   O515    1.289   .     A
C451   O512    1.291   .     A
C451   C457    1.421   .     S
C452   O514    1.289   .     A
C452   O513    1.291   .     A
C452   C455    1.421   .     S
C453   C455    1.399   .     A
C453   C469    1.493   .     S
C453   C464    1.406   .     A
C454   C470    1.493   .     S
C454   C465    1.406   .     A
C454   C457    1.399   .     A
C455   C458    1.383   .     A
C456   C482    1.421   .     S
C456   O509    1.292   .     A
C456   O510    1.292   .     A
C457   C459    1.384   .     A
C458   H483    1.082   .     S
C458   C460    1.388   .     A
C459   H491    1.082   .     S
C459   C461    1.388   .     A
C460   C462    1.420   .     A
C460   C466    1.415   .     A
C461   C468    1.414   .     A
C461   C463    1.420   .     A
C462   C464    1.422   .     A
C462   C1129   1.401   .     S
C463   C465    1.421   .     A
C463   C1128   1.401   1_554 S
C464   C477    1.403   .     A
C465   C467    1.403   .     A
C466   C471    1.492   .     S
C466   C1133   1.393   .     S
C467   H492    1.081   .     S
C467   C1132   1.393   1_554 S
C468   C472    1.492   .     S
C468   C1143   1.393   1_554 S
C469   O516    1.221   .     D
C469   H498    1.084   .     S
C470   O502    1.221   .     D
C470   H484    1.084   .     S
C471   H485    1.083   .     S
C471   O503    1.221   .     D
C472   O504    1.221   .     D
C472   H486    1.083   .     S
C473   O505    1.221   .     D
C473   H487    1.075   .     S
C474   H488    1.073   .     S
C474   O506    1.221   .     D
C475   H489    1.075   .     S
C475   O507    1.221   .     D
C476   H490    1.074   .     S
C476   O508    1.221   .     D
C477   H493    1.081   .     S
C477   C1134   1.393   .     S
C478   H494    1.084   .     S
C478   C628    1.369   1_455 S
C479   H495    1.082   .     S
C479   C482    1.397   .     A
C479   C555    1.368   .     S
C480   H496    1.084   .     S
C480   C482    1.397   .     A
C480   C552    1.369   .     S
C481   H497    1.083   .     S
C481   C627    1.368   1_455 S
N499   Zn517   2.031   .     S
N500   Zn518   2.031   .     S
O501   Zn517   2.000   .     S
O509   Zn518   2.000   .     S
O510   Zn517   2.000   .     S
O511   Zn518   2.000   .     S
O512   Zn517   2.007   .     S
O513   Zn518   2.007   .     S
O514   Zn517   2.007   .     S
O515   Zn518   2.007   .     S
C519   O585    1.291   .     A
C519   O575    1.292   .     A
C519   C520    1.421   .     S
C520   C555    1.397   .     A
C520   C552    1.398   .     A
C521   N574    1.373   .     A
C521   C547    1.480   .     S
C522   N573    1.376   .     A
C522   C548    1.482   .     S
C522   C79     1.434   1_565 S
C523   N574    1.373   .     A
C523   C549    1.482   .     S
C524   C550    1.483   .     S
C524   N573    1.376   .     A
C524   C77     1.434   1_565 S
C525   O589    1.289   .     A
C525   O586    1.291   .     A
C525   C531    1.421   .     S
C526   O588    1.289   .     A
C526   O587    1.291   .     A
C526   C529    1.421   .     S
C527   C529    1.399   .     A
C527   C543    1.493   .     S
C527   C538    1.406   .     A
C528   C544    1.493   .     S
C528   C539    1.406   .     A
C528   C531    1.399   .     A
C529   C532    1.383   .     A
C530   C556    1.421   .     S
C530   O583    1.292   .     A
C530   O584    1.292   .     A
C531   C533    1.384   .     A
C532   H557    1.082   .     S
C532   C534    1.388   .     A
C533   H565    1.082   .     S
C533   C535    1.388   .     A
C534   C536    1.420   .     A
C534   C540    1.415   .     A
C535   C542    1.414   .     A
C535   C537    1.420   .     A
C536   C538    1.422   .     A
C536   C1203   1.401   .     S
C537   C539    1.421   .     A
C537   C1202   1.401   1_554 S
C538   C551    1.403   .     A
C539   C541    1.403   .     A
C540   C545    1.492   .     S
C540   C1207   1.393   .     S
C541   H566    1.081   .     S
C541   C1206   1.393   1_554 S
C542   C546    1.492   .     S
C542   C1217   1.393   1_554 S
C543   O590    1.221   .     D
C543   H572    1.084   .     S
C544   O576    1.221   .     D
C544   H558    1.084   .     S
C545   H559    1.083   .     S
C545   O577    1.221   .     D
C546   O578    1.221   .     D
C546   H560    1.083   .     S
C547   O579    1.221   .     D
C547   H561    1.075   .     S
C548   H562    1.073   .     S
C548   O580    1.221   .     D
C549   H563    1.075   .     S
C549   O581    1.221   .     D
C550   H564    1.074   .     S
C550   O582    1.221   .     D
C551   H567    1.081   .     S
C551   C1208   1.393   .     S
C552   H568    1.084   .     S
C553   H569    1.082   .     S
C553   C556    1.397   .     A
C553   C629    1.368   .     S
C554   H570    1.084   .     S
C554   C556    1.397   .     A
C554   C626    1.369   .     S
C555   H571    1.083   .     S
N573   Zn591   2.031   .     S
N574   Zn592   2.031   .     S
O575   Zn591   2.000   .     S
O583   Zn592   2.000   .     S
O584   Zn591   2.000   .     S
O585   Zn592   2.000   .     S
O586   Zn591   2.007   .     S
O587   Zn592   2.007   .     S
O588   Zn591   2.007   .     S
O589   Zn592   2.007   .     S
C593   O659    1.291   .     A
C593   O649    1.292   .     A
C593   C594    1.421   .     S
C594   C629    1.397   .     A
C594   C626    1.398   .     A
C595   N648    1.373   .     A
C595   C621    1.480   .     S
C596   N647    1.376   .     A
C596   C622    1.482   .     S
C596   C153    1.434   1_565 S
C597   N648    1.373   .     A
C597   C623    1.482   .     S
C598   C624    1.483   .     S
C598   N647    1.376   .     A
C598   C151    1.434   1_565 S
C599   O663    1.289   .     A
C599   O660    1.291   .     A
C599   C605    1.421   .     S
C600   O662    1.289   .     A
C600   O661    1.291   .     A
C600   C603    1.421   .     S
C601   C603    1.399   .     A
C601   C617    1.493   .     S
C601   C612    1.406   .     A
C602   C618    1.493   .     S
C602   C613    1.406   .     A
C602   C605    1.399   .     A
C603   C606    1.383   .     A
C604   C630    1.421   .     S
C604   O657    1.292   .     A
C604   O658    1.292   .     A
C605   C607    1.384   .     A
C606   H631    1.082   .     S
C606   C608    1.388   .     A
C607   H639    1.082   .     S
C607   C609    1.388   .     A
C608   C610    1.420   .     A
C608   C614    1.415   .     A
C609   C616    1.414   .     A
C609   C611    1.420   .     A
C610   C612    1.422   .     A
C610   C1277   1.401   .     S
C611   C613    1.421   .     A
C611   C1276   1.401   1_554 S
C612   C625    1.403   .     A
C613   C615    1.403   .     A
C614   C619    1.492   .     S
C614   C1281   1.393   .     S
C615   H640    1.081   .     S
C615   C1280   1.393   1_554 S
C616   C620    1.492   .     S
C616   C1291   1.393   1_554 S
C617   O664    1.221   .     D
C617   H646    1.084   .     S
C618   O650    1.221   .     D
C618   H632    1.084   .     S
C619   H633    1.083   .     S
C619   O651    1.221   .     D
C620   O652    1.221   .     D
C620   H634    1.083   .     S
C621   O653    1.221   .     D
C621   H635    1.075   .     S
C622   H636    1.073   .     S
C622   O654    1.221   .     D
C623   H637    1.075   .     S
C623   O655    1.221   .     D
C624   H638    1.074   .     S
C624   O656    1.221   .     D
C625   H641    1.081   .     S
C625   C1282   1.393   .     S
C626   H642    1.084   .     S
C627   H643    1.082   .     S
C627   C630    1.397   .     A
C627   C481    1.368   1_655 S
C628   H644    1.084   .     S
C628   C630    1.397   .     A
C628   C478    1.369   1_655 S
C629   H645    1.083   .     S
N647   Zn665   2.031   .     S
N648   Zn666   2.031   .     S
O649   Zn665   2.000   .     S
O657   Zn666   2.000   .     S
O658   Zn665   2.000   .     S
O659   Zn666   2.000   .     S
O660   Zn665   2.007   .     S
O661   Zn666   2.007   .     S
O662   Zn665   2.007   .     S
O663   Zn666   2.007   .     S
C667   O733    1.291   .     A
C667   O723    1.292   .     A
C667   C668    1.421   .     S
C668   C703    1.397   .     A
C668   C700    1.398   .     A
C669   N722    1.373   .     A
C669   C695    1.480   .     S
C669   C1116   1.434   1_545 S
C670   N721    1.376   .     A
C670   C696    1.482   .     S
C670   C893    1.434   .     S
C671   N722    1.373   .     A
C671   C697    1.482   .     S
C671   C1114   1.434   1_545 S
C672   C698    1.483   .     S
C672   N721    1.376   .     A
C672   C891    1.434   .     S
C673   O737    1.289   .     A
C673   O734    1.291   .     A
C673   C679    1.421   .     S
C674   O736    1.289   .     A
C674   O735    1.291   .     A
C674   C677    1.421   .     S
C675   C677    1.399   .     A
C675   C691    1.493   .     S
C675   C686    1.406   .     A
C676   C692    1.493   .     S
C676   C687    1.406   .     A
C676   C679    1.399   .     A
C677   C680    1.383   .     A
C678   C704    1.421   .     S
C678   O731    1.292   .     A
C678   O732    1.292   .     A
C679   C681    1.384   .     A
C680   H705    1.082   .     S
C680   C682    1.388   .     A
C681   H713    1.082   .     S
C681   C683    1.388   .     A
C682   C684    1.420   .     A
C682   C688    1.415   .     A
C683   C690    1.414   .     A
C683   C685    1.420   .     A
C684   C686    1.422   .     A
C684   C19     1.401   1_556 S
C685   C687    1.421   .     A
C686   C699    1.403   .     A
C687   C689    1.403   .     A
C688   C693    1.492   .     S
C688   C23     1.393   1_556 S
C689   H714    1.081   .     S
C690   C694    1.492   .     S
C691   O738    1.221   .     D
C691   H720    1.084   .     S
C692   O724    1.221   .     D
C692   H706    1.084   .     S
C693   H707    1.083   .     S
C693   O725    1.221   .     D
C694   O726    1.221   .     D
C694   H708    1.083   .     S
C695   O727    1.221   .     D
C695   H709    1.075   .     S
C696   H710    1.073   .     S
C696   O728    1.221   .     D
C697   H711    1.075   .     S
C697   O729    1.221   .     D
C698   H712    1.074   .     S
C698   O730    1.221   .     D
C699   H715    1.081   .     S
C699   C24     1.393   1_556 S
C700   H716    1.084   .     S
C700   C850    1.369   1_455 S
C701   H717    1.082   .     S
C701   C704    1.397   .     A
C701   C777    1.368   .     S
C702   H718    1.084   .     S
C702   C704    1.397   .     A
C702   C774    1.369   .     S
C703   H719    1.083   .     S
C703   C849    1.368   1_455 S
N721   Zn739   2.031   .     S
N722   Zn740   2.031   .     S
O723   Zn739   2.000   .     S
O731   Zn740   2.000   .     S
O732   Zn739   2.000   .     S
O733   Zn740   2.000   .     S
O734   Zn739   2.007   .     S
O735   Zn740   2.007   .     S
O736   Zn739   2.007   .     S
O737   Zn740   2.007   .     S
C741   O807    1.291   .     A
C741   O797    1.292   .     A
C741   C742    1.421   .     S
C742   C777    1.397   .     A
C742   C774    1.398   .     A
C743   N796    1.373   .     A
C743   C769    1.480   .     S
C743   C1190   1.434   1_545 S
C744   N795    1.376   .     A
C744   C770    1.482   .     S
C744   C967    1.434   .     S
C745   N796    1.373   .     A
C745   C771    1.482   .     S
C745   C1188   1.434   1_545 S
C746   C772    1.483   .     S
C746   N795    1.376   .     A
C746   C965    1.434   .     S
C747   O811    1.289   .     A
C747   O808    1.291   .     A
C747   C753    1.421   .     S
C748   O810    1.289   .     A
C748   O809    1.291   .     A
C748   C751    1.421   .     S
C749   C751    1.399   .     A
C749   C765    1.493   .     S
C749   C760    1.406   .     A
C750   C766    1.493   .     S
C750   C761    1.406   .     A
C750   C753    1.399   .     A
C751   C754    1.383   .     A
C752   C778    1.421   .     S
C752   O805    1.292   .     A
C752   O806    1.292   .     A
C753   C755    1.384   .     A
C754   H779    1.082   .     S
C754   C756    1.388   .     A
C755   H787    1.082   .     S
C755   C757    1.388   .     A
C756   C758    1.420   .     A
C756   C762    1.415   .     A
C757   C764    1.414   .     A
C757   C759    1.420   .     A
C758   C760    1.422   .     A
C758   C93     1.401   1_556 S
C759   C761    1.421   .     A
C760   C773    1.403   .     A
C761   C763    1.403   .     A
C762   C767    1.492   .     S
C762   C97     1.393   1_556 S
C763   H788    1.081   .     S
C764   C768    1.492   .     S
C765   O812    1.221   .     D
C765   H794    1.084   .     S
C766   O798    1.221   .     D
C766   H780    1.084   .     S
C767   H781    1.083   .     S
C767   O799    1.221   .     D
C768   O800    1.221   .     D
C768   H782    1.083   .     S
C769   O801    1.221   .     D
C769   H783    1.075   .     S
C770   H784    1.073   .     S
C770   O802    1.221   .     D
C771   H785    1.075   .     S
C771   O803    1.221   .     D
C772   H786    1.074   .     S
C772   O804    1.221   .     D
C773   H789    1.081   .     S
C773   C98     1.393   1_556 S
C774   H790    1.084   .     S
C775   H791    1.082   .     S
C775   C778    1.397   .     A
C775   C851    1.368   .     S
C776   H792    1.084   .     S
C776   C778    1.397   .     A
C776   C848    1.369   .     S
C777   H793    1.083   .     S
N795   Zn813   2.031   .     S
N796   Zn814   2.031   .     S
O797   Zn813   2.000   .     S
O805   Zn814   2.000   .     S
O806   Zn813   2.000   .     S
O807   Zn814   2.000   .     S
O808   Zn813   2.007   .     S
O809   Zn814   2.007   .     S
O810   Zn813   2.007   .     S
O811   Zn814   2.007   .     S
C815   O881    1.291   .     A
C815   O871    1.292   .     A
C815   C816    1.421   .     S
C816   C851    1.397   .     A
C816   C848    1.398   .     A
C817   N870    1.373   .     A
C817   C843    1.480   .     S
C817   C1264   1.434   1_545 S
C818   N869    1.376   .     A
C818   C844    1.482   .     S
C818   C1041   1.434   .     S
C819   N870    1.373   .     A
C819   C845    1.482   .     S
C819   C1262   1.434   1_545 S
C820   C846    1.483   .     S
C820   N869    1.376   .     A
C820   C1039   1.434   .     S
C821   O885    1.289   .     A
C821   O882    1.291   .     A
C821   C827    1.421   .     S
C822   O884    1.289   .     A
C822   O883    1.291   .     A
C822   C825    1.421   .     S
C823   C825    1.399   .     A
C823   C839    1.493   .     S
C823   C834    1.406   .     A
C824   C840    1.493   .     S
C824   C835    1.406   .     A
C824   C827    1.399   .     A
C825   C828    1.383   .     A
C826   C852    1.421   .     S
C826   O879    1.292   .     A
C826   O880    1.292   .     A
C827   C829    1.384   .     A
C828   H853    1.082   .     S
C828   C830    1.388   .     A
C829   H861    1.082   .     S
C829   C831    1.388   .     A
C830   C832    1.420   .     A
C830   C836    1.415   .     A
C831   C838    1.414   .     A
C831   C833    1.420   .     A
C832   C834    1.422   .     A
C832   C167    1.401   1_556 S
C833   C835    1.421   .     A
C834   C847    1.403   .     A
C835   C837    1.403   .     A
C836   C841    1.492   .     S
C836   C171    1.393   1_556 S
C837   H862    1.081   .     S
C838   C842    1.492   .     S
C839   O886    1.221   .     D
C839   H868    1.084   .     S
C840   O872    1.221   .     D
C840   H854    1.084   .     S
C841   H855    1.083   .     S
C841   O873    1.221   .     D
C842   O874    1.221   .     D
C842   H856    1.083   .     S
C843   O875    1.221   .     D
C843   H857    1.075   .     S
C844   H858    1.073   .     S
C844   O876    1.221   .     D
C845   H859    1.075   .     S
C845   O877    1.221   .     D
C846   H860    1.074   .     S
C846   O878    1.221   .     D
C847   H863    1.081   .     S
C847   C172    1.393   1_556 S
C848   H864    1.084   .     S
C849   H865    1.082   .     S
C849   C852    1.397   .     A
C849   C703    1.368   1_655 S
C850   H866    1.084   .     S
C850   C852    1.397   .     A
C850   C700    1.369   1_655 S
C851   H867    1.083   .     S
N869   Zn887   2.031   .     S
N870   Zn888   2.031   .     S
O871   Zn887   2.000   .     S
O879   Zn888   2.000   .     S
O880   Zn887   2.000   .     S
O881   Zn888   2.000   .     S
O882   Zn887   2.007   .     S
O883   Zn888   2.007   .     S
O884   Zn887   2.007   .     S
O885   Zn888   2.007   .     S
C889   O955    1.291   .     A
C889   O945    1.292   .     A
C889   C890    1.421   .     S
C890   C925    1.397   .     A
C890   C922    1.398   .     A
C891   N944    1.373   .     A
C891   C917    1.480   .     S
C892   N943    1.376   .     A
C892   C918    1.482   .     S
C892   C1115   1.434   .     S
C893   N944    1.373   .     A
C893   C919    1.482   .     S
C894   C920    1.483   .     S
C894   N943    1.376   .     A
C894   C1113   1.434   .     S
C895   O959    1.289   .     A
C895   O956    1.291   .     A
C895   C901    1.421   .     S
C896   O958    1.289   .     A
C896   O957    1.291   .     A
C896   C899    1.421   .     S
C897   C899    1.399   .     A
C897   C913    1.493   .     S
C897   C908    1.406   .     A
C898   C914    1.493   .     S
C898   C909    1.406   .     A
C898   C901    1.399   .     A
C899   C902    1.383   .     A
C900   C926    1.421   .     S
C900   O953    1.292   .     A
C900   O954    1.292   .     A
C901   C903    1.384   .     A
C902   H927    1.082   .     S
C902   C904    1.388   .     A
C903   H935    1.082   .     S
C903   C905    1.388   .     A
C904   C906    1.420   .     A
C904   C910    1.415   .     A
C905   C912    1.414   .     A
C905   C907    1.420   .     A
C906   C908    1.422   .     A
C906   C241    1.401   1_556 S
C907   C909    1.421   .     A
C908   C921    1.403   .     A
C909   C911    1.403   .     A
C910   C915    1.492   .     S
C910   C245    1.393   1_556 S
C911   H936    1.081   .     S
C912   C916    1.492   .     S
C913   O960    1.221   .     D
C913   H942    1.084   .     S
C914   O946    1.221   .     D
C914   H928    1.084   .     S
C915   H929    1.083   .     S
C915   O947    1.221   .     D
C916   O948    1.221   .     D
C916   H930    1.083   .     S
C917   O949    1.221   .     D
C917   H931    1.075   .     S
C918   H932    1.073   .     S
C918   O950    1.221   .     D
C919   H933    1.075   .     S
C919   O951    1.221   .     D
C920   H934    1.074   .     S
C920   O952    1.221   .     D
C921   H937    1.081   .     S
C921   C246    1.393   1_556 S
C922   H938    1.084   .     S
C922   C1072   1.369   1_455 S
C923   H939    1.082   .     S
C923   C926    1.397   .     A
C923   C999    1.368   .     S
C924   H940    1.084   .     S
C924   C926    1.397   .     A
C924   C996    1.369   .     S
C925   H941    1.083   .     S
C925   C1071   1.368   1_455 S
N943   Zn961   2.031   .     S
N944   Zn962   2.031   .     S
O945   Zn961   2.000   .     S
O953   Zn962   2.000   .     S
O954   Zn961   2.000   .     S
O955   Zn962   2.000   .     S
O956   Zn961   2.007   .     S
O957   Zn962   2.007   .     S
O958   Zn961   2.007   .     S
O959   Zn962   2.007   .     S
C963   O1029   1.291   .     A
C963   O1019   1.292   .     A
C963   C964    1.421   .     S
C964   C999    1.397   .     A
C964   C996    1.398   .     A
C965   N1018   1.373   .     A
C965   C991    1.480   .     S
C966   N1017   1.376   .     A
C966   C992    1.482   .     S
C966   C1189   1.434   .     S
C967   N1018   1.373   .     A
C967   C993    1.482   .     S
C968   C994    1.483   .     S
C968   N1017   1.376   .     A
C968   C1187   1.434   .     S
C969   O1033   1.289   .     A
C969   O1030   1.291   .     A
C969   C975    1.421   .     S
C970   O1032   1.289   .     A
C970   O1031   1.291   .     A
C970   C973    1.421   .     S
C971   C973    1.399   .     A
C971   C987    1.493   .     S
C971   C982    1.406   .     A
C972   C988    1.493   .     S
C972   C983    1.406   .     A
C972   C975    1.399   .     A
C973   C976    1.383   .     A
C974   C1000   1.421   .     S
C974   O1027   1.292   .     A
C974   O1028   1.292   .     A
C975   C977    1.384   .     A
C976   H1001   1.082   .     S
C976   C978    1.388   .     A
C977   H1009   1.082   .     S
C977   C979    1.388   .     A
C978   C980    1.420   .     A
C978   C984    1.415   .     A
C979   C986    1.414   .     A
C979   C981    1.420   .     A
C980   C982    1.422   .     A
C980   C315    1.401   1_556 S
C981   C983    1.421   .     A
C982   C995    1.403   .     A
C983   C985    1.403   .     A
C984   C989    1.492   .     S
C984   C319    1.393   1_556 S
C985   H1010   1.081   .     S
C986   C990    1.492   .     S
C987   O1034   1.221   .     D
C987   H1016   1.084   .     S
C988   O1020   1.221   .     D
C988   H1002   1.084   .     S
C989   H1003   1.083   .     S
C989   O1021   1.221   .     D
C990   O1022   1.221   .     D
C990   H1004   1.083   .     S
C991   O1023   1.221   .     D
C991   H1005   1.075   .     S
C992   H1006   1.073   .     S
C992   O1024   1.221   .     D
C993   H1007   1.075   .     S
C993   O1025   1.221   .     D
C994   H1008   1.074   .     S
C994   O1026   1.221   .     D
C995   H1011   1.081   .     S
C995   C320    1.393   1_556 S
C996   H1012   1.084   .     S
C997   H1013   1.082   .     S
C997   C1000   1.397   .     A
C997   C1073   1.368   .     S
C998   H1014   1.084   .     S
C998   C1000   1.397   .     A
C998   C1070   1.369   .     S
C999   H1015   1.083   .     S
N1017  Zn1035  2.031   .     S
N1018  Zn1036  2.031   .     S
O1019  Zn1035  2.000   .     S
O1027  Zn1036  2.000   .     S
O1028  Zn1035  2.000   .     S
O1029  Zn1036  2.000   .     S
O1030  Zn1035  2.007   .     S
O1031  Zn1036  2.007   .     S
O1032  Zn1035  2.007   .     S
O1033  Zn1036  2.007   .     S
C1037  O1103   1.291   .     A
C1037  O1093   1.292   .     A
C1037  C1038   1.421   .     S
C1038  C1073   1.397   .     A
C1038  C1070   1.398   .     A
C1039  N1092   1.373   .     A
C1039  C1065   1.480   .     S
C1040  N1091   1.376   .     A
C1040  C1066   1.482   .     S
C1040  C1263   1.434   .     S
C1041  N1092   1.373   .     A
C1041  C1067   1.482   .     S
C1042  C1068   1.483   .     S
C1042  N1091   1.376   .     A
C1042  C1261   1.434   .     S
C1043  O1107   1.289   .     A
C1043  O1104   1.291   .     A
C1043  C1049   1.421   .     S
C1044  O1106   1.289   .     A
C1044  O1105   1.291   .     A
C1044  C1047   1.421   .     S
C1045  C1047   1.399   .     A
C1045  C1061   1.493   .     S
C1045  C1056   1.406   .     A
C1046  C1062   1.493   .     S
C1046  C1057   1.406   .     A
C1046  C1049   1.399   .     A
C1047  C1050   1.383   .     A
C1048  C1074   1.421   .     S
C1048  O1101   1.292   .     A
C1048  O1102   1.292   .     A
C1049  C1051   1.384   .     A
C1050  H1075   1.082   .     S
C1050  C1052   1.388   .     A
C1051  H1083   1.082   .     S
C1051  C1053   1.388   .     A
C1052  C1054   1.420   .     A
C1052  C1058   1.415   .     A
C1053  C1060   1.414   .     A
C1053  C1055   1.420   .     A
C1054  C1056   1.422   .     A
C1054  C389    1.401   1_556 S
C1055  C1057   1.421   .     A
C1056  C1069   1.403   .     A
C1057  C1059   1.403   .     A
C1058  C1063   1.492   .     S
C1058  C393    1.393   1_556 S
C1059  H1084   1.081   .     S
C1060  C1064   1.492   .     S
C1061  O1108   1.221   .     D
C1061  H1090   1.084   .     S
C1062  O1094   1.221   .     D
C1062  H1076   1.084   .     S
C1063  H1077   1.083   .     S
C1063  O1095   1.221   .     D
C1064  O1096   1.221   .     D
C1064  H1078   1.083   .     S
C1065  O1097   1.221   .     D
C1065  H1079   1.075   .     S
C1066  H1080   1.073   .     S
C1066  O1098   1.221   .     D
C1067  H1081   1.075   .     S
C1067  O1099   1.221   .     D
C1068  H1082   1.074   .     S
C1068  O1100   1.221   .     D
C1069  H1085   1.081   .     S
C1069  C394    1.393   1_556 S
C1070  H1086   1.084   .     S
C1071  H1087   1.082   .     S
C1071  C1074   1.397   .     A
C1071  C925    1.368   1_655 S
C1072  H1088   1.084   .     S
C1072  C1074   1.397   .     A
C1072  C922    1.369   1_655 S
C1073  H1089   1.083   .     S
N1091  Zn1109  2.031   .     S
N1092  Zn1110  2.031   .     S
O1093  Zn1109  2.000   .     S
O1101  Zn1110  2.000   .     S
O1102  Zn1109  2.000   .     S
O1103  Zn1110  2.000   .     S
O1104  Zn1109  2.007   .     S
O1105  Zn1110  2.007   .     S
O1106  Zn1109  2.007   .     S
O1107  Zn1110  2.007   .     S
C1111  O1177   1.291   .     A
C1111  O1167   1.292   .     A
C1111  C1112   1.421   .     S
C1112  C1147   1.397   .     A
C1112  C1144   1.398   .     A
C1113  N1166   1.373   .     A
C1113  C1139   1.480   .     S
C1114  N1165   1.376   .     A
C1114  C1140   1.482   .     S
C1114  C671    1.434   1_565 S
C1115  N1166   1.373   .     A
C1115  C1141   1.482   .     S
C1116  C1142   1.483   .     S
C1116  N1165   1.376   .     A
C1116  C669    1.434   1_565 S
C1117  O1181   1.289   .     A
C1117  O1178   1.291   .     A
C1117  C1123   1.421   .     S
C1118  O1180   1.289   .     A
C1118  O1179   1.291   .     A
C1118  C1121   1.421   .     S
C1119  C1121   1.399   .     A
C1119  C1135   1.493   .     S
C1119  C1130   1.406   .     A
C1120  C1136   1.493   .     S
C1120  C1131   1.406   .     A
C1120  C1123   1.399   .     A
C1121  C1124   1.383   .     A
C1122  C1148   1.421   .     S
C1122  O1175   1.292   .     A
C1122  O1176   1.292   .     A
C1123  C1125   1.384   .     A
C1124  H1149   1.082   .     S
C1124  C1126   1.388   .     A
C1125  H1157   1.082   .     S
C1125  C1127   1.388   .     A
C1126  C1128   1.420   .     A
C1126  C1132   1.415   .     A
C1127  C1134   1.414   .     A
C1127  C1129   1.420   .     A
C1128  C1130   1.422   .     A
C1128  C463    1.401   1_556 S
C1129  C1131   1.421   .     A
C1130  C1143   1.403   .     A
C1131  C1133   1.403   .     A
C1132  C1137   1.492   .     S
C1132  C467    1.393   1_556 S
C1133  H1158   1.081   .     S
C1134  C1138   1.492   .     S
C1135  O1182   1.221   .     D
C1135  H1164   1.084   .     S
C1136  O1168   1.221   .     D
C1136  H1150   1.084   .     S
C1137  H1151   1.083   .     S
C1137  O1169   1.221   .     D
C1138  O1170   1.221   .     D
C1138  H1152   1.083   .     S
C1139  O1171   1.221   .     D
C1139  H1153   1.075   .     S
C1140  H1154   1.073   .     S
C1140  O1172   1.221   .     D
C1141  H1155   1.075   .     S
C1141  O1173   1.221   .     D
C1142  H1156   1.074   .     S
C1142  O1174   1.221   .     D
C1143  H1159   1.081   .     S
C1143  C468    1.393   1_556 S
C1144  H1160   1.084   .     S
C1144  C1294   1.369   1_455 S
C1145  H1161   1.082   .     S
C1145  C1148   1.397   .     A
C1145  C1221   1.368   .     S
C1146  H1162   1.084   .     S
C1146  C1148   1.397   .     A
C1146  C1218   1.369   .     S
C1147  H1163   1.083   .     S
C1147  C1293   1.368   1_455 S
N1165  Zn1183  2.031   .     S
N1166  Zn1184  2.031   .     S
O1167  Zn1183  2.000   .     S
O1175  Zn1184  2.000   .     S
O1176  Zn1183  2.000   .     S
O1177  Zn1184  2.000   .     S
O1178  Zn1183  2.007   .     S
O1179  Zn1184  2.007   .     S
O1180  Zn1183  2.007   .     S
O1181  Zn1184  2.007   .     S
C1185  O1251   1.291   .     A
C1185  O1241   1.292   .     A
C1185  C1186   1.421   .     S
C1186  C1221   1.397   .     A
C1186  C1218   1.398   .     A
C1187  N1240   1.373   .     A
C1187  C1213   1.480   .     S
C1188  N1239   1.376   .     A
C1188  C1214   1.482   .     S
C1188  C745    1.434   1_565 S
C1189  N1240   1.373   .     A
C1189  C1215   1.482   .     S
C1190  C1216   1.483   .     S
C1190  N1239   1.376   .     A
C1190  C743    1.434   1_565 S
C1191  O1255   1.289   .     A
C1191  O1252   1.291   .     A
C1191  C1197   1.421   .     S
C1192  O1254   1.289   .     A
C1192  O1253   1.291   .     A
C1192  C1195   1.421   .     S
C1193  C1195   1.399   .     A
C1193  C1209   1.493   .     S
C1193  C1204   1.406   .     A
C1194  C1210   1.493   .     S
C1194  C1205   1.406   .     A
C1194  C1197   1.399   .     A
C1195  C1198   1.383   .     A
C1196  C1222   1.421   .     S
C1196  O1249   1.292   .     A
C1196  O1250   1.292   .     A
C1197  C1199   1.384   .     A
C1198  H1223   1.082   .     S
C1198  C1200   1.388   .     A
C1199  H1231   1.082   .     S
C1199  C1201   1.388   .     A
C1200  C1202   1.420   .     A
C1200  C1206   1.415   .     A
C1201  C1208   1.414   .     A
C1201  C1203   1.420   .     A
C1202  C1204   1.422   .     A
C1202  C537    1.401   1_556 S
C1203  C1205   1.421   .     A
C1204  C1217   1.403   .     A
C1205  C1207   1.403   .     A
C1206  C1211   1.492   .     S
C1206  C541    1.393   1_556 S
C1207  H1232   1.081   .     S
C1208  C1212   1.492   .     S
C1209  O1256   1.221   .     D
C1209  H1238   1.084   .     S
C1210  O1242   1.221   .     D
C1210  H1224   1.084   .     S
C1211  H1225   1.083   .     S
C1211  O1243   1.221   .     D
C1212  O1244   1.221   .     D
C1212  H1226   1.083   .     S
C1213  O1245   1.221   .     D
C1213  H1227   1.075   .     S
C1214  H1228   1.073   .     S
C1214  O1246   1.221   .     D
C1215  H1229   1.075   .     S
C1215  O1247   1.221   .     D
C1216  H1230   1.074   .     S
C1216  O1248   1.221   .     D
C1217  H1233   1.081   .     S
C1217  C542    1.393   1_556 S
C1218  H1234   1.084   .     S
C1219  H1235   1.082   .     S
C1219  C1222   1.397   .     A
C1219  C1295   1.368   .     S
C1220  H1236   1.084   .     S
C1220  C1222   1.397   .     A
C1220  C1292   1.369   .     S
C1221  H1237   1.083   .     S
N1239  Zn1257  2.031   .     S
N1240  Zn1258  2.031   .     S
O1241  Zn1257  2.000   .     S
O1249  Zn1258  2.000   .     S
O1250  Zn1257  2.000   .     S
O1251  Zn1258  2.000   .     S
O1252  Zn1257  2.007   .     S
O1253  Zn1258  2.007   .     S
O1254  Zn1257  2.007   .     S
O1255  Zn1258  2.007   .     S
C1259  O1325   1.291   .     A
C1259  O1315   1.292   .     A
C1259  C1260   1.421   .     S
C1260  C1295   1.397   .     A
C1260  C1292   1.398   .     A
C1261  N1314   1.373   .     A
C1261  C1287   1.480   .     S
C1262  N1313   1.376   .     A
C1262  C1288   1.482   .     S
C1262  C819    1.434   1_565 S
C1263  N1314   1.373   .     A
C1263  C1289   1.482   .     S
C1264  C1290   1.483   .     S
C1264  N1313   1.376   .     A
C1264  C817    1.434   1_565 S
C1265  O1329   1.289   .     A
C1265  O1326   1.291   .     A
C1265  C1271   1.421   .     S
C1266  O1328   1.289   .     A
C1266  O1327   1.291   .     A
C1266  C1269   1.421   .     S
C1267  C1269   1.399   .     A
C1267  C1283   1.493   .     S
C1267  C1278   1.406   .     A
C1268  C1284   1.493   .     S
C1268  C1279   1.406   .     A
C1268  C1271   1.399   .     A
C1269  C1272   1.383   .     A
C1270  C1296   1.421   .     S
C1270  O1323   1.292   .     A
C1270  O1324   1.292   .     A
C1271  C1273   1.384   .     A
C1272  H1297   1.082   .     S
C1272  C1274   1.388   .     A
C1273  H1305   1.082   .     S
C1273  C1275   1.388   .     A
C1274  C1276   1.420   .     A
C1274  C1280   1.415   .     A
C1275  C1282   1.414   .     A
C1275  C1277   1.420   .     A
C1276  C1278   1.422   .     A
C1276  C611    1.401   1_556 S
C1277  C1279   1.421   .     A
C1278  C1291   1.403   .     A
C1279  C1281   1.403   .     A
C1280  C1285   1.492   .     S
C1280  C615    1.393   1_556 S
C1281  H1306   1.081   .     S
C1282  C1286   1.492   .     S
C1283  O1330   1.221   .     D
C1283  H1312   1.084   .     S
C1284  O1316   1.221   .     D
C1284  H1298   1.084   .     S
C1285  H1299   1.083   .     S
C1285  O1317   1.221   .     D
C1286  O1318   1.221   .     D
C1286  H1300   1.083   .     S
C1287  O1319   1.221   .     D
C1287  H1301   1.075   .     S
C1288  H1302   1.073   .     S
C1288  O1320   1.221   .     D
C1289  H1303   1.075   .     S
C1289  O1321   1.221   .     D
C1290  H1304   1.074   .     S
C1290  O1322   1.221   .     D
C1291  H1307   1.081   .     S
C1291  C616    1.393   1_556 S
C1292  H1308   1.084   .     S
C1293  H1309   1.082   .     S
C1293  C1296   1.397   .     A
C1293  C1147   1.368   1_655 S
C1294  H1310   1.084   .     S
C1294  C1296   1.397   .     A
C1294  C1144   1.369   1_655 S
C1295  H1311   1.083   .     S
N1313  Zn1331  2.031   .     S
N1314  Zn1332  2.031   .     S
O1315  Zn1331  2.000   .     S
O1323  Zn1332  2.000   .     S
O1324  Zn1331  2.000   .     S
O1325  Zn1332  2.000   .     S
O1326  Zn1331  2.007   .     S
O1327  Zn1332  2.007   .     S
O1328  Zn1331  2.007   .     S
O1329  Zn1332  2.007   .     S
