data_str_m3_o1_o1_pcu_sym.52
_audit_creation_date              2020-01-03
_audit_creation_method            'Materials Studio'
_symmetry_space_group_name_H-M    'P1'
_symmetry_Int_Tables_number       1
_symmetry_cell_setting            triclinic
loop_
_symmetry_equiv_pos_as_xyz
  x,y,z
_cell_length_a                    31.3890
_cell_length_b                    29.2527
_cell_length_c                    29.7688
_cell_angle_alpha                 89.9990
_cell_angle_beta                  89.2525
_cell_angle_gamma                 89.9993
loop_
_atom_site_label
_atom_site_type_symbol
_atom_site_fract_x
_atom_site_fract_y
_atom_site_fract_z
_atom_site_U_iso_or_equiv
_atom_site_adp_type
_atom_site_occupancy
Br1    Br    0.38110   0.18886   0.07489   0.00000  Uiso   1.00
Br2    Br    0.36890   0.06115   0.25844   0.00000  Uiso   1.00
Br3    Br    0.35590   0.07979   0.06648   0.00000  Uiso   1.00
Br4    Br    0.14409   0.42022   0.26685   0.00000  Uiso   1.00
Br5    Br    0.36890   0.43885   0.25844   0.00000  Uiso   1.00
Br6    Br    0.13110   0.06115   0.07489   0.00000  Uiso   1.00
Br7    Br    0.14408   0.07977   0.26685   0.00000  Uiso   1.00
Br8    Br    0.35592   0.42023   0.06648   0.00000  Uiso   1.00
Br9    Br    0.11890   0.31115   0.25844   0.00000  Uiso   1.00
Br10   Br    0.10590   0.32979   0.06648   0.00000  Uiso   1.00
Br11   Br    0.39409   0.17022   0.26685   0.00000  Uiso   1.00
Br12   Br    0.11890   0.18885   0.25844   0.00000  Uiso   1.00
Br13   Br    0.38110   0.31115   0.07489   0.00000  Uiso   1.00
Br14   Br    0.39408   0.32977   0.26685   0.00000  Uiso   1.00
Br15   Br    0.10592   0.17023   0.06648   0.00000  Uiso   1.00
Br16   Br    0.13110   0.43886   0.07489   0.00000  Uiso   1.00
C17    C     0.06290   0.19343   0.16632   0.00000  Uiso   1.00
C18    C     0.00147   0.20960   0.30946   0.00000  Uiso   1.00
C19    C     0.49854   0.20960   0.02387   0.00000  Uiso   1.00
C20    C     0.00146   0.29040   0.30946   0.00000  Uiso   1.00
C21    C     0.24853   0.04040   0.02387   0.00000  Uiso   1.00
C22    C     0.25147   0.45960   0.30946   0.00000  Uiso   1.00
C23    C     0.24854   0.45960   0.02387   0.00000  Uiso   1.00
C24    C     0.25146   0.04040   0.30946   0.00000  Uiso   1.00
C25    C     0.38317   0.14923   0.12682   0.00000  Uiso   1.00
C26    C     0.11683   0.35078   0.20651   0.00000  Uiso   1.00
C27    C     0.11144   0.35829   0.12496   0.00000  Uiso   1.00
C28    C     0.43710   0.30657   0.16702   0.00000  Uiso   1.00
C29    C     0.38856   0.14172   0.20837   0.00000  Uiso   1.00
C30    C     0.11683   0.14922   0.20651   0.00000  Uiso   1.00
C31    C     0.38317   0.35078   0.12682   0.00000  Uiso   1.00
C32    C     0.38855   0.35828   0.20837   0.00000  Uiso   1.00
C33    C     0.11144   0.14172   0.12496   0.00000  Uiso   1.00
C34    C     0.13317   0.39923   0.12682   0.00000  Uiso   1.00
C35    C     0.36683   0.10078   0.20651   0.00000  Uiso   1.00
C36    C     0.36144   0.10829   0.12496   0.00000  Uiso   1.00
C37    C     0.13855   0.39172   0.20837   0.00000  Uiso   1.00
C38    C     0.36683   0.39922   0.20651   0.00000  Uiso   1.00
C39    C     0.43710   0.19343   0.16702   0.00000  Uiso   1.00
C40    C     0.13317   0.10078   0.12682   0.00000  Uiso   1.00
C41    C     0.13855   0.10828   0.20837   0.00000  Uiso   1.00
C42    C     0.36144   0.39172   0.12496   0.00000  Uiso   1.00
C43    C     0.09942   0.33668   0.16550   0.00000  Uiso   1.00
C44    C     0.40058   0.16332   0.16783   0.00000  Uiso   1.00
C45    C     0.40058   0.33668   0.16783   0.00000  Uiso   1.00
C46    C     0.09942   0.16332   0.16550   0.00000  Uiso   1.00
C47    C     0.34942   0.08668   0.16550   0.00000  Uiso   1.00
C48    C     0.15058   0.41332   0.16783   0.00000  Uiso   1.00
C49    C     0.15058   0.08668   0.16783   0.00000  Uiso   1.00
C50    C     0.06290   0.30658   0.16632   0.00000  Uiso   1.00
C51    C     0.34942   0.41332   0.16550   0.00000  Uiso   1.00
C52    C     0.48771   0.33465   0.04608   0.00000  Uiso   1.00
C53    C     0.01228   0.16535   0.28725   0.00000  Uiso   1.00
C54    C     0.48772   0.16535   0.04608   0.00000  Uiso   1.00
C55    C     0.01228   0.33465   0.28725   0.00000  Uiso   1.00
C56    C     0.23771   0.08465   0.04608   0.00000  Uiso   1.00
C57    C     0.26228   0.41535   0.28725   0.00000  Uiso   1.00
C58    C     0.23772   0.41535   0.04608   0.00000  Uiso   1.00
C59    C     0.26228   0.08465   0.28725   0.00000  Uiso   1.00
C60    C     0.31290   0.44343   0.16632   0.00000  Uiso   1.00
C61    C     0.18710   0.05657   0.16702   0.00000  Uiso   1.00
C62    C     0.18710   0.44343   0.16702   0.00000  Uiso   1.00
C63    C     0.31290   0.05658   0.16632   0.00000  Uiso   1.00
C64    C     0.49853   0.29040   0.02387   0.00000  Uiso   1.00
H65    H     0.45270   0.39252   0.04398   0.00000  Uiso   1.00
H66    H     0.04729   0.10748   0.28934   0.00000  Uiso   1.00
H67    H     0.45272   0.10748   0.04400   0.00000  Uiso   1.00
H68    H     0.04728   0.39252   0.28934   0.00000  Uiso   1.00
H69    H     0.20270   0.14252   0.04398   0.00000  Uiso   1.00
H70    H     0.29729   0.35748   0.28934   0.00000  Uiso   1.00
H71    H     0.20272   0.35748   0.04400   0.00000  Uiso   1.00
H72    H     0.29728   0.14252   0.28934   0.00000  Uiso   1.00
N73    N     0.00000   0.25000   0.28573   0.00000  Uiso   1.00
N74    N    -0.00000   0.25000   0.04760   0.00000  Uiso   1.00
N75    N     0.25000   0.00000   0.28573   0.00000  Uiso   1.00
N76    N     0.25000   0.00000   0.04760   0.00000  Uiso   1.00
O77    O     0.04580   0.20419   0.20487   0.00000  Uiso   1.00
O78    O     0.20419   0.04581   0.12846   0.00000  Uiso   1.00
O79    O     0.20419   0.04581   0.20487   0.00000  Uiso   1.00
O80    O     0.29580   0.45419   0.12846   0.00000  Uiso   1.00
O81    O     0.20419   0.45419   0.12846   0.00000  Uiso   1.00
O82    O     0.29580   0.04581   0.20487   0.00000  Uiso   1.00
O83    O     0.29580   0.04581   0.12846   0.00000  Uiso   1.00
O84    O     0.20419   0.45419   0.20487   0.00000  Uiso   1.00
O85    O     0.00713   0.34834   0.07850   0.00000  Uiso   1.00
O86    O     0.45659   0.36266   0.02713   0.00000  Uiso   1.00
O87    O     0.49285   0.15166   0.25485   0.00000  Uiso   1.00
O88    O     0.45419   0.29581   0.12846   0.00000  Uiso   1.00
O89    O     0.04340   0.13734   0.30619   0.00000  Uiso   1.00
O90    O     0.00716   0.15165   0.07849   0.00000  Uiso   1.00
O91    O     0.45661   0.13734   0.02715   0.00000  Uiso   1.00
O92    O     0.49284   0.34834   0.25485   0.00000  Uiso   1.00
O93    O     0.04339   0.36266   0.30619   0.00000  Uiso   1.00
O94    O     0.25713   0.09834   0.07850   0.00000  Uiso   1.00
O95    O     0.20659   0.11266   0.02713   0.00000  Uiso   1.00
O96    O     0.24285   0.40166   0.25485   0.00000  Uiso   1.00
O97    O     0.29340   0.38734   0.30619   0.00000  Uiso   1.00
O98    O     0.25716   0.40166   0.07849   0.00000  Uiso   1.00
O99    O     0.45419   0.29581   0.20487   0.00000  Uiso   1.00
O100   O     0.20661   0.38734   0.02715   0.00000  Uiso   1.00
O101   O     0.24284   0.09834   0.25485   0.00000  Uiso   1.00
O102   O     0.29339   0.11266   0.30619   0.00000  Uiso   1.00
O103   O     0.04580   0.20419   0.12846   0.00000  Uiso   1.00
O104   O     0.45419   0.20419   0.12846   0.00000  Uiso   1.00
O105   O     0.04580   0.29581   0.20487   0.00000  Uiso   1.00
O106   O     0.04580   0.29581   0.12846   0.00000  Uiso   1.00
O107   O     0.45419   0.20419   0.20487   0.00000  Uiso   1.00
O108   O     0.29580   0.45419   0.20487   0.00000  Uiso   1.00
Zn109  Zn   -0.00000   0.25000   0.21771   0.00000  Uiso   1.00
Zn110  Zn   -0.00000   0.25000   0.11563   0.00000  Uiso   1.00
Zn111  Zn    0.25000   0.00000   0.21771   0.00000  Uiso   1.00
Zn112  Zn    0.25000   0.00000   0.11563   0.00000  Uiso   1.00
Br113  Br    0.88110   0.18886   0.07489   0.00000  Uiso   1.00
Br114  Br    0.86890   0.06115   0.25844   0.00000  Uiso   1.00
Br115  Br    0.85590   0.07979   0.06648   0.00000  Uiso   1.00
Br116  Br    0.64409   0.42022   0.26685   0.00000  Uiso   1.00
Br117  Br    0.86890   0.43885   0.25844   0.00000  Uiso   1.00
Br118  Br    0.63110   0.06115   0.07489   0.00000  Uiso   1.00
Br119  Br    0.64408   0.07977   0.26685   0.00000  Uiso   1.00
Br120  Br    0.85592   0.42023   0.06648   0.00000  Uiso   1.00
Br121  Br    0.61890   0.31115   0.25844   0.00000  Uiso   1.00
Br122  Br    0.60590   0.32979   0.06648   0.00000  Uiso   1.00
Br123  Br    0.89409   0.17022   0.26685   0.00000  Uiso   1.00
Br124  Br    0.61890   0.18885   0.25844   0.00000  Uiso   1.00
Br125  Br    0.88110   0.31115   0.07489   0.00000  Uiso   1.00
Br126  Br    0.89408   0.32977   0.26685   0.00000  Uiso   1.00
Br127  Br    0.60592   0.17023   0.06648   0.00000  Uiso   1.00
Br128  Br    0.63110   0.43886   0.07489   0.00000  Uiso   1.00
C129   C     0.56290   0.19343   0.16632   0.00000  Uiso   1.00
C130   C     0.50147   0.20960   0.30946   0.00000  Uiso   1.00
C131   C     0.99854   0.20960   0.02387   0.00000  Uiso   1.00
C132   C     0.50146   0.29040   0.30946   0.00000  Uiso   1.00
C133   C     0.74853   0.04040   0.02387   0.00000  Uiso   1.00
C134   C     0.75147   0.45960   0.30946   0.00000  Uiso   1.00
C135   C     0.74854   0.45960   0.02387   0.00000  Uiso   1.00
C136   C     0.75146   0.04040   0.30946   0.00000  Uiso   1.00
C137   C     0.88317   0.14923   0.12682   0.00000  Uiso   1.00
C138   C     0.61683   0.35078   0.20651   0.00000  Uiso   1.00
C139   C     0.61144   0.35829   0.12496   0.00000  Uiso   1.00
C140   C     0.93710   0.30657   0.16702   0.00000  Uiso   1.00
C141   C     0.88856   0.14172   0.20837   0.00000  Uiso   1.00
C142   C     0.61683   0.14922   0.20651   0.00000  Uiso   1.00
C143   C     0.88317   0.35078   0.12682   0.00000  Uiso   1.00
C144   C     0.88855   0.35828   0.20837   0.00000  Uiso   1.00
C145   C     0.61144   0.14172   0.12496   0.00000  Uiso   1.00
C146   C     0.63317   0.39923   0.12682   0.00000  Uiso   1.00
C147   C     0.86683   0.10078   0.20651   0.00000  Uiso   1.00
C148   C     0.86144   0.10829   0.12496   0.00000  Uiso   1.00
C149   C     0.63855   0.39172   0.20837   0.00000  Uiso   1.00
C150   C     0.86683   0.39922   0.20651   0.00000  Uiso   1.00
C151   C     0.93710   0.19343   0.16702   0.00000  Uiso   1.00
C152   C     0.63317   0.10078   0.12682   0.00000  Uiso   1.00
C153   C     0.63855   0.10828   0.20837   0.00000  Uiso   1.00
C154   C     0.86144   0.39172   0.12496   0.00000  Uiso   1.00
C155   C     0.59942   0.33668   0.16550   0.00000  Uiso   1.00
C156   C     0.90058   0.16332   0.16783   0.00000  Uiso   1.00
C157   C     0.90058   0.33668   0.16783   0.00000  Uiso   1.00
C158   C     0.59942   0.16332   0.16550   0.00000  Uiso   1.00
C159   C     0.84942   0.08668   0.16550   0.00000  Uiso   1.00
C160   C     0.65058   0.41332   0.16783   0.00000  Uiso   1.00
C161   C     0.65058   0.08668   0.16783   0.00000  Uiso   1.00
C162   C     0.56290   0.30658   0.16632   0.00000  Uiso   1.00
C163   C     0.84942   0.41332   0.16550   0.00000  Uiso   1.00
C164   C     0.98771   0.33465   0.04608   0.00000  Uiso   1.00
C165   C     0.51228   0.16535   0.28725   0.00000  Uiso   1.00
C166   C     0.98772   0.16535   0.04608   0.00000  Uiso   1.00
C167   C     0.51228   0.33465   0.28725   0.00000  Uiso   1.00
C168   C     0.73771   0.08465   0.04608   0.00000  Uiso   1.00
C169   C     0.76228   0.41535   0.28725   0.00000  Uiso   1.00
C170   C     0.73772   0.41535   0.04608   0.00000  Uiso   1.00
C171   C     0.76228   0.08465   0.28725   0.00000  Uiso   1.00
C172   C     0.81290   0.44343   0.16632   0.00000  Uiso   1.00
C173   C     0.68710   0.05657   0.16702   0.00000  Uiso   1.00
C174   C     0.68710   0.44343   0.16702   0.00000  Uiso   1.00
C175   C     0.81290   0.05658   0.16632   0.00000  Uiso   1.00
C176   C     0.99853   0.29040   0.02387   0.00000  Uiso   1.00
H177   H     0.95270   0.39252   0.04398   0.00000  Uiso   1.00
H178   H     0.54729   0.10748   0.28934   0.00000  Uiso   1.00
H179   H     0.95272   0.10748   0.04400   0.00000  Uiso   1.00
H180   H     0.54728   0.39252   0.28934   0.00000  Uiso   1.00
H181   H     0.70270   0.14252   0.04398   0.00000  Uiso   1.00
H182   H     0.79729   0.35748   0.28934   0.00000  Uiso   1.00
H183   H     0.70272   0.35748   0.04400   0.00000  Uiso   1.00
H184   H     0.79728   0.14252   0.28934   0.00000  Uiso   1.00
N185   N     0.50000   0.25000   0.28573   0.00000  Uiso   1.00
N186   N     0.50000   0.25000   0.04760   0.00000  Uiso   1.00
N187   N     0.75000   0.00000   0.28573   0.00000  Uiso   1.00
N188   N     0.75000   0.00000   0.04760   0.00000  Uiso   1.00
O189   O     0.54580   0.20419   0.20487   0.00000  Uiso   1.00
O190   O     0.70419   0.04581   0.12846   0.00000  Uiso   1.00
O191   O     0.70419   0.04581   0.20487   0.00000  Uiso   1.00
O192   O     0.79580   0.45419   0.12846   0.00000  Uiso   1.00
O193   O     0.70419   0.45419   0.12846   0.00000  Uiso   1.00
O194   O     0.79580   0.04581   0.20487   0.00000  Uiso   1.00
O195   O     0.79580   0.04581   0.12846   0.00000  Uiso   1.00
O196   O     0.70419   0.45419   0.20487   0.00000  Uiso   1.00
O197   O     0.50713   0.34834   0.07850   0.00000  Uiso   1.00
O198   O     0.95659   0.36266   0.02713   0.00000  Uiso   1.00
O199   O     0.99285   0.15166   0.25485   0.00000  Uiso   1.00
O200   O     0.95419   0.29581   0.12846   0.00000  Uiso   1.00
O201   O     0.54340   0.13734   0.30619   0.00000  Uiso   1.00
O202   O     0.50716   0.15165   0.07849   0.00000  Uiso   1.00
O203   O     0.95661   0.13734   0.02715   0.00000  Uiso   1.00
O204   O     0.99284   0.34834   0.25485   0.00000  Uiso   1.00
O205   O     0.54339   0.36266   0.30619   0.00000  Uiso   1.00
O206   O     0.75713   0.09834   0.07850   0.00000  Uiso   1.00
O207   O     0.70659   0.11266   0.02713   0.00000  Uiso   1.00
O208   O     0.74285   0.40166   0.25485   0.00000  Uiso   1.00
O209   O     0.79340   0.38734   0.30619   0.00000  Uiso   1.00
O210   O     0.75716   0.40166   0.07849   0.00000  Uiso   1.00
O211   O     0.95419   0.29581   0.20487   0.00000  Uiso   1.00
O212   O     0.70661   0.38734   0.02715   0.00000  Uiso   1.00
O213   O     0.74284   0.09834   0.25485   0.00000  Uiso   1.00
O214   O     0.79339   0.11266   0.30619   0.00000  Uiso   1.00
O215   O     0.54580   0.20419   0.12846   0.00000  Uiso   1.00
O216   O     0.95419   0.20419   0.12846   0.00000  Uiso   1.00
O217   O     0.54580   0.29581   0.20487   0.00000  Uiso   1.00
O218   O     0.54580   0.29581   0.12846   0.00000  Uiso   1.00
O219   O     0.95419   0.20419   0.20487   0.00000  Uiso   1.00
O220   O     0.79580   0.45419   0.20487   0.00000  Uiso   1.00
Zn221  Zn    0.50000   0.25000   0.21771   0.00000  Uiso   1.00
Zn222  Zn    0.50000   0.25000   0.11563   0.00000  Uiso   1.00
Zn223  Zn    0.75000   0.00000   0.21771   0.00000  Uiso   1.00
Zn224  Zn    0.75000   0.00000   0.11563   0.00000  Uiso   1.00
Br225  Br    0.38110   0.68886   0.07489   0.00000  Uiso   1.00
Br226  Br    0.36890   0.56115   0.25844   0.00000  Uiso   1.00
Br227  Br    0.35590   0.57979   0.06648   0.00000  Uiso   1.00
Br228  Br    0.14409   0.92022   0.26685   0.00000  Uiso   1.00
Br229  Br    0.36890   0.93885   0.25844   0.00000  Uiso   1.00
Br230  Br    0.13110   0.56115   0.07489   0.00000  Uiso   1.00
Br231  Br    0.14408   0.57977   0.26685   0.00000  Uiso   1.00
Br232  Br    0.35592   0.92023   0.06648   0.00000  Uiso   1.00
Br233  Br    0.11890   0.81115   0.25844   0.00000  Uiso   1.00
Br234  Br    0.10590   0.82979   0.06648   0.00000  Uiso   1.00
Br235  Br    0.39409   0.67022   0.26685   0.00000  Uiso   1.00
Br236  Br    0.11890   0.68885   0.25844   0.00000  Uiso   1.00
Br237  Br    0.38110   0.81115   0.07489   0.00000  Uiso   1.00
Br238  Br    0.39408   0.82977   0.26685   0.00000  Uiso   1.00
Br239  Br    0.10592   0.67023   0.06648   0.00000  Uiso   1.00
Br240  Br    0.13110   0.93886   0.07489   0.00000  Uiso   1.00
C241   C     0.06290   0.69343   0.16632   0.00000  Uiso   1.00
C242   C     0.00147   0.70960   0.30946   0.00000  Uiso   1.00
C243   C     0.49854   0.70960   0.02387   0.00000  Uiso   1.00
C244   C     0.00146   0.79040   0.30946   0.00000  Uiso   1.00
C245   C     0.24853   0.54040   0.02387   0.00000  Uiso   1.00
C246   C     0.25147   0.95960   0.30946   0.00000  Uiso   1.00
C247   C     0.24854   0.95960   0.02387   0.00000  Uiso   1.00
C248   C     0.25146   0.54040   0.30946   0.00000  Uiso   1.00
C249   C     0.38317   0.64923   0.12682   0.00000  Uiso   1.00
C250   C     0.11683   0.85078   0.20651   0.00000  Uiso   1.00
C251   C     0.11144   0.85829   0.12496   0.00000  Uiso   1.00
C252   C     0.43710   0.80657   0.16702   0.00000  Uiso   1.00
C253   C     0.38856   0.64172   0.20837   0.00000  Uiso   1.00
C254   C     0.11683   0.64922   0.20651   0.00000  Uiso   1.00
C255   C     0.38317   0.85078   0.12682   0.00000  Uiso   1.00
C256   C     0.38855   0.85828   0.20837   0.00000  Uiso   1.00
C257   C     0.11144   0.64172   0.12496   0.00000  Uiso   1.00
C258   C     0.13317   0.89923   0.12682   0.00000  Uiso   1.00
C259   C     0.36683   0.60078   0.20651   0.00000  Uiso   1.00
C260   C     0.36144   0.60829   0.12496   0.00000  Uiso   1.00
C261   C     0.13855   0.89172   0.20837   0.00000  Uiso   1.00
C262   C     0.36683   0.89922   0.20651   0.00000  Uiso   1.00
C263   C     0.43710   0.69343   0.16702   0.00000  Uiso   1.00
C264   C     0.13317   0.60078   0.12682   0.00000  Uiso   1.00
C265   C     0.13855   0.60828   0.20837   0.00000  Uiso   1.00
C266   C     0.36144   0.89172   0.12496   0.00000  Uiso   1.00
C267   C     0.09942   0.83668   0.16550   0.00000  Uiso   1.00
C268   C     0.40058   0.66332   0.16783   0.00000  Uiso   1.00
C269   C     0.40058   0.83668   0.16783   0.00000  Uiso   1.00
C270   C     0.09942   0.66332   0.16550   0.00000  Uiso   1.00
C271   C     0.34942   0.58668   0.16550   0.00000  Uiso   1.00
C272   C     0.15058   0.91332   0.16783   0.00000  Uiso   1.00
C273   C     0.15058   0.58668   0.16783   0.00000  Uiso   1.00
C274   C     0.06290   0.80658   0.16632   0.00000  Uiso   1.00
C275   C     0.34942   0.91332   0.16550   0.00000  Uiso   1.00
C276   C     0.48771   0.83465   0.04608   0.00000  Uiso   1.00
C277   C     0.01228   0.66535   0.28725   0.00000  Uiso   1.00
C278   C     0.48772   0.66535   0.04608   0.00000  Uiso   1.00
C279   C     0.01228   0.83465   0.28725   0.00000  Uiso   1.00
C280   C     0.23771   0.58465   0.04608   0.00000  Uiso   1.00
C281   C     0.26228   0.91535   0.28725   0.00000  Uiso   1.00
C282   C     0.23772   0.91535   0.04608   0.00000  Uiso   1.00
C283   C     0.26228   0.58465   0.28725   0.00000  Uiso   1.00
C284   C     0.31290   0.94343   0.16632   0.00000  Uiso   1.00
C285   C     0.18710   0.55657   0.16702   0.00000  Uiso   1.00
C286   C     0.18710   0.94343   0.16702   0.00000  Uiso   1.00
C287   C     0.31290   0.55658   0.16632   0.00000  Uiso   1.00
C288   C     0.49853   0.79040   0.02387   0.00000  Uiso   1.00
H289   H     0.45270   0.89252   0.04398   0.00000  Uiso   1.00
H290   H     0.04729   0.60748   0.28934   0.00000  Uiso   1.00
H291   H     0.45272   0.60748   0.04400   0.00000  Uiso   1.00
H292   H     0.04728   0.89252   0.28934   0.00000  Uiso   1.00
H293   H     0.20270   0.64252   0.04398   0.00000  Uiso   1.00
H294   H     0.29729   0.85748   0.28934   0.00000  Uiso   1.00
H295   H     0.20272   0.85748   0.04400   0.00000  Uiso   1.00
H296   H     0.29728   0.64252   0.28934   0.00000  Uiso   1.00
N297   N     0.00000   0.75000   0.28573   0.00000  Uiso   1.00
N298   N    -0.00000   0.75000   0.04760   0.00000  Uiso   1.00
N299   N     0.25000   0.50000   0.28573   0.00000  Uiso   1.00
N300   N     0.25000   0.50000   0.04760   0.00000  Uiso   1.00
O301   O     0.04580   0.70419   0.20487   0.00000  Uiso   1.00
O302   O     0.20419   0.54581   0.12846   0.00000  Uiso   1.00
O303   O     0.20419   0.54581   0.20487   0.00000  Uiso   1.00
O304   O     0.29580   0.95419   0.12846   0.00000  Uiso   1.00
O305   O     0.20419   0.95419   0.12846   0.00000  Uiso   1.00
O306   O     0.29580   0.54581   0.20487   0.00000  Uiso   1.00
O307   O     0.29580   0.54581   0.12846   0.00000  Uiso   1.00
O308   O     0.20419   0.95419   0.20487   0.00000  Uiso   1.00
O309   O     0.00713   0.84834   0.07850   0.00000  Uiso   1.00
O310   O     0.45659   0.86266   0.02713   0.00000  Uiso   1.00
O311   O     0.49285   0.65166   0.25485   0.00000  Uiso   1.00
O312   O     0.45419   0.79581   0.12846   0.00000  Uiso   1.00
O313   O     0.04340   0.63734   0.30619   0.00000  Uiso   1.00
O314   O     0.00716   0.65165   0.07849   0.00000  Uiso   1.00
O315   O     0.45661   0.63734   0.02715   0.00000  Uiso   1.00
O316   O     0.49284   0.84834   0.25485   0.00000  Uiso   1.00
O317   O     0.04339   0.86266   0.30619   0.00000  Uiso   1.00
O318   O     0.25713   0.59834   0.07850   0.00000  Uiso   1.00
O319   O     0.20659   0.61266   0.02713   0.00000  Uiso   1.00
O320   O     0.24285   0.90166   0.25485   0.00000  Uiso   1.00
O321   O     0.29340   0.88734   0.30619   0.00000  Uiso   1.00
O322   O     0.25716   0.90166   0.07849   0.00000  Uiso   1.00
O323   O     0.45419   0.79581   0.20487   0.00000  Uiso   1.00
O324   O     0.20661   0.88734   0.02715   0.00000  Uiso   1.00
O325   O     0.24284   0.59834   0.25485   0.00000  Uiso   1.00
O326   O     0.29339   0.61266   0.30619   0.00000  Uiso   1.00
O327   O     0.04580   0.70419   0.12846   0.00000  Uiso   1.00
O328   O     0.45419   0.70419   0.12846   0.00000  Uiso   1.00
O329   O     0.04580   0.79581   0.20487   0.00000  Uiso   1.00
O330   O     0.04580   0.79581   0.12846   0.00000  Uiso   1.00
O331   O     0.45419   0.70419   0.20487   0.00000  Uiso   1.00
O332   O     0.29580   0.95419   0.20487   0.00000  Uiso   1.00
Zn333  Zn   -0.00000   0.75000   0.21771   0.00000  Uiso   1.00
Zn334  Zn   -0.00000   0.75000   0.11563   0.00000  Uiso   1.00
Zn335  Zn    0.25000   0.50000   0.21771   0.00000  Uiso   1.00
Zn336  Zn    0.25000   0.50000   0.11563   0.00000  Uiso   1.00
Br337  Br    0.88110   0.68886   0.07489   0.00000  Uiso   1.00
Br338  Br    0.86890   0.56115   0.25844   0.00000  Uiso   1.00
Br339  Br    0.85590   0.57979   0.06648   0.00000  Uiso   1.00
Br340  Br    0.64409   0.92022   0.26685   0.00000  Uiso   1.00
Br341  Br    0.86890   0.93885   0.25844   0.00000  Uiso   1.00
Br342  Br    0.63110   0.56115   0.07489   0.00000  Uiso   1.00
Br343  Br    0.64408   0.57977   0.26685   0.00000  Uiso   1.00
Br344  Br    0.85592   0.92023   0.06648   0.00000  Uiso   1.00
Br345  Br    0.61890   0.81115   0.25844   0.00000  Uiso   1.00
Br346  Br    0.60590   0.82979   0.06648   0.00000  Uiso   1.00
Br347  Br    0.89409   0.67022   0.26685   0.00000  Uiso   1.00
Br348  Br    0.61890   0.68885   0.25844   0.00000  Uiso   1.00
Br349  Br    0.88110   0.81115   0.07489   0.00000  Uiso   1.00
Br350  Br    0.89408   0.82977   0.26685   0.00000  Uiso   1.00
Br351  Br    0.60592   0.67023   0.06648   0.00000  Uiso   1.00
Br352  Br    0.63110   0.93886   0.07489   0.00000  Uiso   1.00
C353   C     0.56290   0.69343   0.16632   0.00000  Uiso   1.00
C354   C     0.50147   0.70960   0.30946   0.00000  Uiso   1.00
C355   C     0.99854   0.70960   0.02387   0.00000  Uiso   1.00
C356   C     0.50146   0.79040   0.30946   0.00000  Uiso   1.00
C357   C     0.74853   0.54040   0.02387   0.00000  Uiso   1.00
C358   C     0.75147   0.95960   0.30946   0.00000  Uiso   1.00
C359   C     0.74854   0.95960   0.02387   0.00000  Uiso   1.00
C360   C     0.75146   0.54040   0.30946   0.00000  Uiso   1.00
C361   C     0.88317   0.64923   0.12682   0.00000  Uiso   1.00
C362   C     0.61683   0.85078   0.20651   0.00000  Uiso   1.00
C363   C     0.61144   0.85829   0.12496   0.00000  Uiso   1.00
C364   C     0.93710   0.80657   0.16702   0.00000  Uiso   1.00
C365   C     0.88856   0.64172   0.20837   0.00000  Uiso   1.00
C366   C     0.61683   0.64922   0.20651   0.00000  Uiso   1.00
C367   C     0.88317   0.85078   0.12682   0.00000  Uiso   1.00
C368   C     0.88855   0.85828   0.20837   0.00000  Uiso   1.00
C369   C     0.61144   0.64172   0.12496   0.00000  Uiso   1.00
C370   C     0.63317   0.89923   0.12682   0.00000  Uiso   1.00
C371   C     0.86683   0.60078   0.20651   0.00000  Uiso   1.00
C372   C     0.86144   0.60829   0.12496   0.00000  Uiso   1.00
C373   C     0.63855   0.89172   0.20837   0.00000  Uiso   1.00
C374   C     0.86683   0.89922   0.20651   0.00000  Uiso   1.00
C375   C     0.93710   0.69343   0.16702   0.00000  Uiso   1.00
C376   C     0.63317   0.60078   0.12682   0.00000  Uiso   1.00
C377   C     0.63855   0.60828   0.20837   0.00000  Uiso   1.00
C378   C     0.86144   0.89172   0.12496   0.00000  Uiso   1.00
C379   C     0.59942   0.83668   0.16550   0.00000  Uiso   1.00
C380   C     0.90058   0.66332   0.16783   0.00000  Uiso   1.00
C381   C     0.90058   0.83668   0.16783   0.00000  Uiso   1.00
C382   C     0.59942   0.66332   0.16550   0.00000  Uiso   1.00
C383   C     0.84942   0.58668   0.16550   0.00000  Uiso   1.00
C384   C     0.65058   0.91332   0.16783   0.00000  Uiso   1.00
C385   C     0.65058   0.58668   0.16783   0.00000  Uiso   1.00
C386   C     0.56290   0.80658   0.16632   0.00000  Uiso   1.00
C387   C     0.84942   0.91332   0.16550   0.00000  Uiso   1.00
C388   C     0.98771   0.83465   0.04608   0.00000  Uiso   1.00
C389   C     0.51228   0.66535   0.28725   0.00000  Uiso   1.00
C390   C     0.98772   0.66535   0.04608   0.00000  Uiso   1.00
C391   C     0.51228   0.83465   0.28725   0.00000  Uiso   1.00
C392   C     0.73771   0.58465   0.04608   0.00000  Uiso   1.00
C393   C     0.76228   0.91535   0.28725   0.00000  Uiso   1.00
C394   C     0.73772   0.91535   0.04608   0.00000  Uiso   1.00
C395   C     0.76228   0.58465   0.28725   0.00000  Uiso   1.00
C396   C     0.81290   0.94343   0.16632   0.00000  Uiso   1.00
C397   C     0.68710   0.55657   0.16702   0.00000  Uiso   1.00
C398   C     0.68710   0.94343   0.16702   0.00000  Uiso   1.00
C399   C     0.81290   0.55658   0.16632   0.00000  Uiso   1.00
C400   C     0.99853   0.79040   0.02387   0.00000  Uiso   1.00
H401   H     0.95270   0.89252   0.04398   0.00000  Uiso   1.00
H402   H     0.54729   0.60748   0.28934   0.00000  Uiso   1.00
H403   H     0.95272   0.60748   0.04400   0.00000  Uiso   1.00
H404   H     0.54728   0.89252   0.28934   0.00000  Uiso   1.00
H405   H     0.70270   0.64252   0.04398   0.00000  Uiso   1.00
H406   H     0.79729   0.85748   0.28934   0.00000  Uiso   1.00
H407   H     0.70272   0.85748   0.04400   0.00000  Uiso   1.00
H408   H     0.79728   0.64252   0.28934   0.00000  Uiso   1.00
N409   N     0.50000   0.75000   0.28573   0.00000  Uiso   1.00
N410   N     0.50000   0.75000   0.04760   0.00000  Uiso   1.00
N411   N     0.75000   0.50000   0.28573   0.00000  Uiso   1.00
N412   N     0.75000   0.50000   0.04760   0.00000  Uiso   1.00
O413   O     0.54580   0.70419   0.20487   0.00000  Uiso   1.00
O414   O     0.70419   0.54581   0.12846   0.00000  Uiso   1.00
O415   O     0.70419   0.54581   0.20487   0.00000  Uiso   1.00
O416   O     0.79580   0.95419   0.12846   0.00000  Uiso   1.00
O417   O     0.70419   0.95419   0.12846   0.00000  Uiso   1.00
O418   O     0.79580   0.54581   0.20487   0.00000  Uiso   1.00
O419   O     0.79580   0.54581   0.12846   0.00000  Uiso   1.00
O420   O     0.70419   0.95419   0.20487   0.00000  Uiso   1.00
O421   O     0.50713   0.84834   0.07850   0.00000  Uiso   1.00
O422   O     0.95659   0.86266   0.02713   0.00000  Uiso   1.00
O423   O     0.99285   0.65166   0.25485   0.00000  Uiso   1.00
O424   O     0.95419   0.79581   0.12846   0.00000  Uiso   1.00
O425   O     0.54340   0.63734   0.30619   0.00000  Uiso   1.00
O426   O     0.50716   0.65165   0.07849   0.00000  Uiso   1.00
O427   O     0.95661   0.63734   0.02715   0.00000  Uiso   1.00
O428   O     0.99284   0.84834   0.25485   0.00000  Uiso   1.00
O429   O     0.54339   0.86266   0.30619   0.00000  Uiso   1.00
O430   O     0.75713   0.59834   0.07850   0.00000  Uiso   1.00
O431   O     0.70659   0.61266   0.02713   0.00000  Uiso   1.00
O432   O     0.74285   0.90166   0.25485   0.00000  Uiso   1.00
O433   O     0.79340   0.88734   0.30619   0.00000  Uiso   1.00
O434   O     0.75716   0.90166   0.07849   0.00000  Uiso   1.00
O435   O     0.95419   0.79581   0.20487   0.00000  Uiso   1.00
O436   O     0.70661   0.88734   0.02715   0.00000  Uiso   1.00
O437   O     0.74284   0.59834   0.25485   0.00000  Uiso   1.00
O438   O     0.79339   0.61266   0.30619   0.00000  Uiso   1.00
O439   O     0.54580   0.70419   0.12846   0.00000  Uiso   1.00
O440   O     0.95419   0.70419   0.12846   0.00000  Uiso   1.00
O441   O     0.54580   0.79581   0.20487   0.00000  Uiso   1.00
O442   O     0.54580   0.79581   0.12846   0.00000  Uiso   1.00
O443   O     0.95419   0.70419   0.20487   0.00000  Uiso   1.00
O444   O     0.79580   0.95419   0.20487   0.00000  Uiso   1.00
Zn445  Zn    0.50000   0.75000   0.21771   0.00000  Uiso   1.00
Zn446  Zn    0.50000   0.75000   0.11563   0.00000  Uiso   1.00
Zn447  Zn    0.75000   0.50000   0.21771   0.00000  Uiso   1.00
Zn448  Zn    0.75000   0.50000   0.11563   0.00000  Uiso   1.00
Br449  Br    0.38110   0.18886   0.40823   0.00000  Uiso   1.00
Br450  Br    0.36890   0.06115   0.59177   0.00000  Uiso   1.00
Br451  Br    0.35590   0.07979   0.39981   0.00000  Uiso   1.00
Br452  Br    0.14409   0.42022   0.60019   0.00000  Uiso   1.00
Br453  Br    0.36890   0.43885   0.59177   0.00000  Uiso   1.00
Br454  Br    0.13110   0.06115   0.40822   0.00000  Uiso   1.00
Br455  Br    0.14408   0.07977   0.60018   0.00000  Uiso   1.00
Br456  Br    0.35592   0.42023   0.39981   0.00000  Uiso   1.00
Br457  Br    0.11890   0.31115   0.59177   0.00000  Uiso   1.00
Br458  Br    0.10590   0.32979   0.39981   0.00000  Uiso   1.00
Br459  Br    0.39409   0.17022   0.60019   0.00000  Uiso   1.00
Br460  Br    0.11890   0.18885   0.59177   0.00000  Uiso   1.00
Br461  Br    0.38110   0.31115   0.40822   0.00000  Uiso   1.00
Br462  Br    0.39408   0.32977   0.60018   0.00000  Uiso   1.00
Br463  Br    0.10592   0.17023   0.39981   0.00000  Uiso   1.00
Br464  Br    0.13110   0.43886   0.40823   0.00000  Uiso   1.00
C465   C     0.06290   0.19343   0.49965   0.00000  Uiso   1.00
C466   C     0.00147   0.20960   0.64279   0.00000  Uiso   1.00
C467   C     0.49854   0.20960   0.35721   0.00000  Uiso   1.00
C468   C     0.00146   0.29040   0.64279   0.00000  Uiso   1.00
C469   C     0.24853   0.04040   0.35721   0.00000  Uiso   1.00
C470   C     0.25147   0.45960   0.64279   0.00000  Uiso   1.00
C471   C     0.24854   0.45960   0.35721   0.00000  Uiso   1.00
C472   C     0.25146   0.04040   0.64279   0.00000  Uiso   1.00
C473   C     0.38317   0.14923   0.46016   0.00000  Uiso   1.00
C474   C     0.11683   0.35078   0.53984   0.00000  Uiso   1.00
C475   C     0.11144   0.35829   0.45829   0.00000  Uiso   1.00
C476   C     0.43710   0.30657   0.50035   0.00000  Uiso   1.00
C477   C     0.38856   0.14172   0.54171   0.00000  Uiso   1.00
C478   C     0.11683   0.14922   0.53984   0.00000  Uiso   1.00
C479   C     0.38317   0.35078   0.46016   0.00000  Uiso   1.00
C480   C     0.38855   0.35828   0.54171   0.00000  Uiso   1.00
C481   C     0.11144   0.14172   0.45829   0.00000  Uiso   1.00
C482   C     0.13317   0.39923   0.46016   0.00000  Uiso   1.00
C483   C     0.36683   0.10078   0.53984   0.00000  Uiso   1.00
C484   C     0.36144   0.10829   0.45829   0.00000  Uiso   1.00
C485   C     0.13855   0.39172   0.54171   0.00000  Uiso   1.00
C486   C     0.36683   0.39922   0.53984   0.00000  Uiso   1.00
C487   C     0.43710   0.19343   0.50035   0.00000  Uiso   1.00
C488   C     0.13317   0.10078   0.46016   0.00000  Uiso   1.00
C489   C     0.13855   0.10828   0.54171   0.00000  Uiso   1.00
C490   C     0.36144   0.39172   0.45829   0.00000  Uiso   1.00
C491   C     0.09942   0.33668   0.49883   0.00000  Uiso   1.00
C492   C     0.40058   0.16332   0.50117   0.00000  Uiso   1.00
C493   C     0.40058   0.33668   0.50117   0.00000  Uiso   1.00
C494   C     0.09942   0.16332   0.49883   0.00000  Uiso   1.00
C495   C     0.34942   0.08668   0.49883   0.00000  Uiso   1.00
C496   C     0.15058   0.41332   0.50117   0.00000  Uiso   1.00
C497   C     0.15058   0.08668   0.50117   0.00000  Uiso   1.00
C498   C     0.06290   0.30658   0.49965   0.00000  Uiso   1.00
C499   C     0.34942   0.41332   0.49883   0.00000  Uiso   1.00
C500   C     0.48771   0.33465   0.37941   0.00000  Uiso   1.00
C501   C     0.01228   0.16535   0.62059   0.00000  Uiso   1.00
C502   C     0.48772   0.16535   0.37941   0.00000  Uiso   1.00
C503   C     0.01228   0.33465   0.62059   0.00000  Uiso   1.00
C504   C     0.23771   0.08465   0.37941   0.00000  Uiso   1.00
C505   C     0.26228   0.41535   0.62059   0.00000  Uiso   1.00
C506   C     0.23772   0.41535   0.37941   0.00000  Uiso   1.00
C507   C     0.26228   0.08465   0.62059   0.00000  Uiso   1.00
C508   C     0.31290   0.44343   0.49965   0.00000  Uiso   1.00
C509   C     0.18710   0.05657   0.50035   0.00000  Uiso   1.00
C510   C     0.18710   0.44343   0.50035   0.00000  Uiso   1.00
C511   C     0.31290   0.05658   0.49965   0.00000  Uiso   1.00
C512   C     0.49853   0.29040   0.35721   0.00000  Uiso   1.00
H513   H     0.45270   0.39252   0.37732   0.00000  Uiso   1.00
H514   H     0.04729   0.10748   0.62267   0.00000  Uiso   1.00
H515   H     0.45272   0.10748   0.37734   0.00000  Uiso   1.00
H516   H     0.04728   0.39252   0.62267   0.00000  Uiso   1.00
H517   H     0.20270   0.14252   0.37732   0.00000  Uiso   1.00
H518   H     0.29729   0.35748   0.62267   0.00000  Uiso   1.00
H519   H     0.20272   0.35748   0.37734   0.00000  Uiso   1.00
H520   H     0.29728   0.14252   0.62267   0.00000  Uiso   1.00
N521   N     0.00000   0.25000   0.61907   0.00000  Uiso   1.00
N522   N    -0.00000   0.25000   0.38093   0.00000  Uiso   1.00
N523   N     0.25000   0.00000   0.61907   0.00000  Uiso   1.00
N524   N     0.25000   0.00000   0.38093   0.00000  Uiso   1.00
O525   O     0.04580   0.20419   0.53821   0.00000  Uiso   1.00
O526   O     0.20419   0.04581   0.46179   0.00000  Uiso   1.00
O527   O     0.20419   0.04581   0.53821   0.00000  Uiso   1.00
O528   O     0.29580   0.45419   0.46179   0.00000  Uiso   1.00
O529   O     0.20419   0.45419   0.46179   0.00000  Uiso   1.00
O530   O     0.29580   0.04581   0.53821   0.00000  Uiso   1.00
O531   O     0.29580   0.04581   0.46179   0.00000  Uiso   1.00
O532   O     0.20419   0.45419   0.53821   0.00000  Uiso   1.00
O533   O     0.00713   0.34834   0.41183   0.00000  Uiso   1.00
O534   O     0.45659   0.36266   0.36047   0.00000  Uiso   1.00
O535   O     0.49285   0.15166   0.58818   0.00000  Uiso   1.00
O536   O     0.45419   0.29581   0.46179   0.00000  Uiso   1.00
O537   O     0.04340   0.13734   0.63952   0.00000  Uiso   1.00
O538   O     0.00716   0.15165   0.41182   0.00000  Uiso   1.00
O539   O     0.45661   0.13734   0.36048   0.00000  Uiso   1.00
O540   O     0.49284   0.34834   0.58818   0.00000  Uiso   1.00
O541   O     0.04339   0.36266   0.63952   0.00000  Uiso   1.00
O542   O     0.25713   0.09834   0.41183   0.00000  Uiso   1.00
O543   O     0.20659   0.11266   0.36047   0.00000  Uiso   1.00
O544   O     0.24285   0.40166   0.58818   0.00000  Uiso   1.00
O545   O     0.29340   0.38734   0.63952   0.00000  Uiso   1.00
O546   O     0.25716   0.40166   0.41182   0.00000  Uiso   1.00
O547   O     0.45419   0.29581   0.53821   0.00000  Uiso   1.00
O548   O     0.20661   0.38734   0.36048   0.00000  Uiso   1.00
O549   O     0.24284   0.09834   0.58818   0.00000  Uiso   1.00
O550   O     0.29339   0.11266   0.63952   0.00000  Uiso   1.00
O551   O     0.04580   0.20419   0.46179   0.00000  Uiso   1.00
O552   O     0.45419   0.20419   0.46179   0.00000  Uiso   1.00
O553   O     0.04580   0.29581   0.53821   0.00000  Uiso   1.00
O554   O     0.04580   0.29581   0.46179   0.00000  Uiso   1.00
O555   O     0.45419   0.20419   0.53821   0.00000  Uiso   1.00
O556   O     0.29580   0.45419   0.53821   0.00000  Uiso   1.00
Zn557  Zn   -0.00000   0.25000   0.55104   0.00000  Uiso   1.00
Zn558  Zn   -0.00000   0.25000   0.44896   0.00000  Uiso   1.00
Zn559  Zn    0.25000   0.00000   0.55104   0.00000  Uiso   1.00
Zn560  Zn    0.25000   0.00000   0.44896   0.00000  Uiso   1.00
Br561  Br    0.88110   0.18886   0.40823   0.00000  Uiso   1.00
Br562  Br    0.86890   0.06115   0.59177   0.00000  Uiso   1.00
Br563  Br    0.85590   0.07979   0.39981   0.00000  Uiso   1.00
Br564  Br    0.64409   0.42022   0.60019   0.00000  Uiso   1.00
Br565  Br    0.86890   0.43885   0.59177   0.00000  Uiso   1.00
Br566  Br    0.63110   0.06115   0.40822   0.00000  Uiso   1.00
Br567  Br    0.64408   0.07977   0.60018   0.00000  Uiso   1.00
Br568  Br    0.85592   0.42023   0.39981   0.00000  Uiso   1.00
Br569  Br    0.61890   0.31115   0.59177   0.00000  Uiso   1.00
Br570  Br    0.60590   0.32979   0.39981   0.00000  Uiso   1.00
Br571  Br    0.89409   0.17022   0.60019   0.00000  Uiso   1.00
Br572  Br    0.61890   0.18885   0.59177   0.00000  Uiso   1.00
Br573  Br    0.88110   0.31115   0.40822   0.00000  Uiso   1.00
Br574  Br    0.89408   0.32977   0.60018   0.00000  Uiso   1.00
Br575  Br    0.60592   0.17023   0.39981   0.00000  Uiso   1.00
Br576  Br    0.63110   0.43886   0.40823   0.00000  Uiso   1.00
C577   C     0.56290   0.19343   0.49965   0.00000  Uiso   1.00
C578   C     0.50147   0.20960   0.64279   0.00000  Uiso   1.00
C579   C     0.99854   0.20960   0.35721   0.00000  Uiso   1.00
C580   C     0.50146   0.29040   0.64279   0.00000  Uiso   1.00
C581   C     0.74853   0.04040   0.35721   0.00000  Uiso   1.00
C582   C     0.75147   0.45960   0.64279   0.00000  Uiso   1.00
C583   C     0.74854   0.45960   0.35721   0.00000  Uiso   1.00
C584   C     0.75146   0.04040   0.64279   0.00000  Uiso   1.00
C585   C     0.88317   0.14923   0.46016   0.00000  Uiso   1.00
C586   C     0.61683   0.35078   0.53984   0.00000  Uiso   1.00
C587   C     0.61144   0.35829   0.45829   0.00000  Uiso   1.00
C588   C     0.93710   0.30657   0.50035   0.00000  Uiso   1.00
C589   C     0.88856   0.14172   0.54171   0.00000  Uiso   1.00
C590   C     0.61683   0.14922   0.53984   0.00000  Uiso   1.00
C591   C     0.88317   0.35078   0.46016   0.00000  Uiso   1.00
C592   C     0.88855   0.35828   0.54171   0.00000  Uiso   1.00
C593   C     0.61144   0.14172   0.45829   0.00000  Uiso   1.00
C594   C     0.63317   0.39923   0.46016   0.00000  Uiso   1.00
C595   C     0.86683   0.10078   0.53984   0.00000  Uiso   1.00
C596   C     0.86144   0.10829   0.45829   0.00000  Uiso   1.00
C597   C     0.63855   0.39172   0.54171   0.00000  Uiso   1.00
C598   C     0.86683   0.39922   0.53984   0.00000  Uiso   1.00
C599   C     0.93710   0.19343   0.50035   0.00000  Uiso   1.00
C600   C     0.63317   0.10078   0.46016   0.00000  Uiso   1.00
C601   C     0.63855   0.10828   0.54171   0.00000  Uiso   1.00
C602   C     0.86144   0.39172   0.45829   0.00000  Uiso   1.00
C603   C     0.59942   0.33668   0.49883   0.00000  Uiso   1.00
C604   C     0.90058   0.16332   0.50117   0.00000  Uiso   1.00
C605   C     0.90058   0.33668   0.50117   0.00000  Uiso   1.00
C606   C     0.59942   0.16332   0.49883   0.00000  Uiso   1.00
C607   C     0.84942   0.08668   0.49883   0.00000  Uiso   1.00
C608   C     0.65058   0.41332   0.50117   0.00000  Uiso   1.00
C609   C     0.65058   0.08668   0.50117   0.00000  Uiso   1.00
C610   C     0.56290   0.30658   0.49965   0.00000  Uiso   1.00
C611   C     0.84942   0.41332   0.49883   0.00000  Uiso   1.00
C612   C     0.98771   0.33465   0.37941   0.00000  Uiso   1.00
C613   C     0.51228   0.16535   0.62059   0.00000  Uiso   1.00
C614   C     0.98772   0.16535   0.37941   0.00000  Uiso   1.00
C615   C     0.51228   0.33465   0.62059   0.00000  Uiso   1.00
C616   C     0.73771   0.08465   0.37941   0.00000  Uiso   1.00
C617   C     0.76228   0.41535   0.62059   0.00000  Uiso   1.00
C618   C     0.73772   0.41535   0.37941   0.00000  Uiso   1.00
C619   C     0.76228   0.08465   0.62059   0.00000  Uiso   1.00
C620   C     0.81290   0.44343   0.49965   0.00000  Uiso   1.00
C621   C     0.68710   0.05657   0.50035   0.00000  Uiso   1.00
C622   C     0.68710   0.44343   0.50035   0.00000  Uiso   1.00
C623   C     0.81290   0.05658   0.49965   0.00000  Uiso   1.00
C624   C     0.99853   0.29040   0.35721   0.00000  Uiso   1.00
H625   H     0.95270   0.39252   0.37732   0.00000  Uiso   1.00
H626   H     0.54729   0.10748   0.62267   0.00000  Uiso   1.00
H627   H     0.95272   0.10748   0.37734   0.00000  Uiso   1.00
H628   H     0.54728   0.39252   0.62267   0.00000  Uiso   1.00
H629   H     0.70270   0.14252   0.37732   0.00000  Uiso   1.00
H630   H     0.79729   0.35748   0.62267   0.00000  Uiso   1.00
H631   H     0.70272   0.35748   0.37734   0.00000  Uiso   1.00
H632   H     0.79728   0.14252   0.62267   0.00000  Uiso   1.00
N633   N     0.50000   0.25000   0.61907   0.00000  Uiso   1.00
N634   N     0.50000   0.25000   0.38093   0.00000  Uiso   1.00
N635   N     0.75000   0.00000   0.61907   0.00000  Uiso   1.00
N636   N     0.75000   0.00000   0.38093   0.00000  Uiso   1.00
O637   O     0.54580   0.20419   0.53821   0.00000  Uiso   1.00
O638   O     0.70419   0.04581   0.46179   0.00000  Uiso   1.00
O639   O     0.70419   0.04581   0.53821   0.00000  Uiso   1.00
O640   O     0.79580   0.45419   0.46179   0.00000  Uiso   1.00
O641   O     0.70419   0.45419   0.46179   0.00000  Uiso   1.00
O642   O     0.79580   0.04581   0.53821   0.00000  Uiso   1.00
O643   O     0.79580   0.04581   0.46179   0.00000  Uiso   1.00
O644   O     0.70419   0.45419   0.53821   0.00000  Uiso   1.00
O645   O     0.50713   0.34834   0.41183   0.00000  Uiso   1.00
O646   O     0.95659   0.36266   0.36047   0.00000  Uiso   1.00
O647   O     0.99285   0.15166   0.58818   0.00000  Uiso   1.00
O648   O     0.95419   0.29581   0.46179   0.00000  Uiso   1.00
O649   O     0.54340   0.13734   0.63952   0.00000  Uiso   1.00
O650   O     0.50716   0.15165   0.41182   0.00000  Uiso   1.00
O651   O     0.95661   0.13734   0.36048   0.00000  Uiso   1.00
O652   O     0.99284   0.34834   0.58818   0.00000  Uiso   1.00
O653   O     0.54339   0.36266   0.63952   0.00000  Uiso   1.00
O654   O     0.75713   0.09834   0.41183   0.00000  Uiso   1.00
O655   O     0.70659   0.11266   0.36047   0.00000  Uiso   1.00
O656   O     0.74285   0.40166   0.58818   0.00000  Uiso   1.00
O657   O     0.79340   0.38734   0.63952   0.00000  Uiso   1.00
O658   O     0.75716   0.40166   0.41182   0.00000  Uiso   1.00
O659   O     0.95419   0.29581   0.53821   0.00000  Uiso   1.00
O660   O     0.70661   0.38734   0.36048   0.00000  Uiso   1.00
O661   O     0.74284   0.09834   0.58818   0.00000  Uiso   1.00
O662   O     0.79339   0.11266   0.63952   0.00000  Uiso   1.00
O663   O     0.54580   0.20419   0.46179   0.00000  Uiso   1.00
O664   O     0.95419   0.20419   0.46179   0.00000  Uiso   1.00
O665   O     0.54580   0.29581   0.53821   0.00000  Uiso   1.00
O666   O     0.54580   0.29581   0.46179   0.00000  Uiso   1.00
O667   O     0.95419   0.20419   0.53821   0.00000  Uiso   1.00
O668   O     0.79580   0.45419   0.53821   0.00000  Uiso   1.00
Zn669  Zn    0.50000   0.25000   0.55104   0.00000  Uiso   1.00
Zn670  Zn    0.50000   0.25000   0.44896   0.00000  Uiso   1.00
Zn671  Zn    0.75000   0.00000   0.55104   0.00000  Uiso   1.00
Zn672  Zn    0.75000   0.00000   0.44896   0.00000  Uiso   1.00
Br673  Br    0.38110   0.68886   0.40823   0.00000  Uiso   1.00
Br674  Br    0.36890   0.56115   0.59177   0.00000  Uiso   1.00
Br675  Br    0.35590   0.57979   0.39981   0.00000  Uiso   1.00
Br676  Br    0.14409   0.92022   0.60019   0.00000  Uiso   1.00
Br677  Br    0.36890   0.93885   0.59177   0.00000  Uiso   1.00
Br678  Br    0.13110   0.56115   0.40822   0.00000  Uiso   1.00
Br679  Br    0.14408   0.57977   0.60018   0.00000  Uiso   1.00
Br680  Br    0.35592   0.92023   0.39981   0.00000  Uiso   1.00
Br681  Br    0.11890   0.81115   0.59177   0.00000  Uiso   1.00
Br682  Br    0.10590   0.82979   0.39981   0.00000  Uiso   1.00
Br683  Br    0.39409   0.67022   0.60019   0.00000  Uiso   1.00
Br684  Br    0.11890   0.68885   0.59177   0.00000  Uiso   1.00
Br685  Br    0.38110   0.81115   0.40822   0.00000  Uiso   1.00
Br686  Br    0.39408   0.82977   0.60018   0.00000  Uiso   1.00
Br687  Br    0.10592   0.67023   0.39981   0.00000  Uiso   1.00
Br688  Br    0.13110   0.93886   0.40823   0.00000  Uiso   1.00
C689   C     0.06290   0.69343   0.49965   0.00000  Uiso   1.00
C690   C     0.00147   0.70960   0.64279   0.00000  Uiso   1.00
C691   C     0.49854   0.70960   0.35721   0.00000  Uiso   1.00
C692   C     0.00146   0.79040   0.64279   0.00000  Uiso   1.00
C693   C     0.24853   0.54040   0.35721   0.00000  Uiso   1.00
C694   C     0.25147   0.95960   0.64279   0.00000  Uiso   1.00
C695   C     0.24854   0.95960   0.35721   0.00000  Uiso   1.00
C696   C     0.25146   0.54040   0.64279   0.00000  Uiso   1.00
C697   C     0.38317   0.64923   0.46016   0.00000  Uiso   1.00
C698   C     0.11683   0.85078   0.53984   0.00000  Uiso   1.00
C699   C     0.11144   0.85829   0.45829   0.00000  Uiso   1.00
C700   C     0.43710   0.80657   0.50035   0.00000  Uiso   1.00
C701   C     0.38856   0.64172   0.54171   0.00000  Uiso   1.00
C702   C     0.11683   0.64922   0.53984   0.00000  Uiso   1.00
C703   C     0.38317   0.85078   0.46016   0.00000  Uiso   1.00
C704   C     0.38855   0.85828   0.54171   0.00000  Uiso   1.00
C705   C     0.11144   0.64172   0.45829   0.00000  Uiso   1.00
C706   C     0.13317   0.89923   0.46016   0.00000  Uiso   1.00
C707   C     0.36683   0.60078   0.53984   0.00000  Uiso   1.00
C708   C     0.36144   0.60829   0.45829   0.00000  Uiso   1.00
C709   C     0.13855   0.89172   0.54171   0.00000  Uiso   1.00
C710   C     0.36683   0.89922   0.53984   0.00000  Uiso   1.00
C711   C     0.43710   0.69343   0.50035   0.00000  Uiso   1.00
C712   C     0.13317   0.60078   0.46016   0.00000  Uiso   1.00
C713   C     0.13855   0.60828   0.54171   0.00000  Uiso   1.00
C714   C     0.36144   0.89172   0.45829   0.00000  Uiso   1.00
C715   C     0.09942   0.83668   0.49883   0.00000  Uiso   1.00
C716   C     0.40058   0.66332   0.50117   0.00000  Uiso   1.00
C717   C     0.40058   0.83668   0.50117   0.00000  Uiso   1.00
C718   C     0.09942   0.66332   0.49883   0.00000  Uiso   1.00
C719   C     0.34942   0.58668   0.49883   0.00000  Uiso   1.00
C720   C     0.15058   0.91332   0.50117   0.00000  Uiso   1.00
C721   C     0.15058   0.58668   0.50117   0.00000  Uiso   1.00
C722   C     0.06290   0.80658   0.49965   0.00000  Uiso   1.00
C723   C     0.34942   0.91332   0.49883   0.00000  Uiso   1.00
C724   C     0.48771   0.83465   0.37941   0.00000  Uiso   1.00
C725   C     0.01228   0.66535   0.62059   0.00000  Uiso   1.00
C726   C     0.48772   0.66535   0.37941   0.00000  Uiso   1.00
C727   C     0.01228   0.83465   0.62059   0.00000  Uiso   1.00
C728   C     0.23771   0.58465   0.37941   0.00000  Uiso   1.00
C729   C     0.26228   0.91535   0.62059   0.00000  Uiso   1.00
C730   C     0.23772   0.91535   0.37941   0.00000  Uiso   1.00
C731   C     0.26228   0.58465   0.62059   0.00000  Uiso   1.00
C732   C     0.31290   0.94343   0.49965   0.00000  Uiso   1.00
C733   C     0.18710   0.55657   0.50035   0.00000  Uiso   1.00
C734   C     0.18710   0.94343   0.50035   0.00000  Uiso   1.00
C735   C     0.31290   0.55658   0.49965   0.00000  Uiso   1.00
C736   C     0.49853   0.79040   0.35721   0.00000  Uiso   1.00
H737   H     0.45270   0.89252   0.37732   0.00000  Uiso   1.00
H738   H     0.04729   0.60748   0.62267   0.00000  Uiso   1.00
H739   H     0.45272   0.60748   0.37734   0.00000  Uiso   1.00
H740   H     0.04728   0.89252   0.62267   0.00000  Uiso   1.00
H741   H     0.20270   0.64252   0.37732   0.00000  Uiso   1.00
H742   H     0.29729   0.85748   0.62267   0.00000  Uiso   1.00
H743   H     0.20272   0.85748   0.37734   0.00000  Uiso   1.00
H744   H     0.29728   0.64252   0.62267   0.00000  Uiso   1.00
N745   N     0.00000   0.75000   0.61907   0.00000  Uiso   1.00
N746   N    -0.00000   0.75000   0.38093   0.00000  Uiso   1.00
N747   N     0.25000   0.50000   0.61907   0.00000  Uiso   1.00
N748   N     0.25000   0.50000   0.38093   0.00000  Uiso   1.00
O749   O     0.04580   0.70419   0.53821   0.00000  Uiso   1.00
O750   O     0.20419   0.54581   0.46179   0.00000  Uiso   1.00
O751   O     0.20419   0.54581   0.53821   0.00000  Uiso   1.00
O752   O     0.29580   0.95419   0.46179   0.00000  Uiso   1.00
O753   O     0.20419   0.95419   0.46179   0.00000  Uiso   1.00
O754   O     0.29580   0.54581   0.53821   0.00000  Uiso   1.00
O755   O     0.29580   0.54581   0.46179   0.00000  Uiso   1.00
O756   O     0.20419   0.95419   0.53821   0.00000  Uiso   1.00
O757   O     0.00713   0.84834   0.41183   0.00000  Uiso   1.00
O758   O     0.45659   0.86266   0.36047   0.00000  Uiso   1.00
O759   O     0.49285   0.65166   0.58818   0.00000  Uiso   1.00
O760   O     0.45419   0.79581   0.46179   0.00000  Uiso   1.00
O761   O     0.04340   0.63734   0.63952   0.00000  Uiso   1.00
O762   O     0.00716   0.65165   0.41182   0.00000  Uiso   1.00
O763   O     0.45661   0.63734   0.36048   0.00000  Uiso   1.00
O764   O     0.49284   0.84834   0.58818   0.00000  Uiso   1.00
O765   O     0.04339   0.86266   0.63952   0.00000  Uiso   1.00
O766   O     0.25713   0.59834   0.41183   0.00000  Uiso   1.00
O767   O     0.20659   0.61266   0.36047   0.00000  Uiso   1.00
O768   O     0.24285   0.90166   0.58818   0.00000  Uiso   1.00
O769   O     0.29340   0.88734   0.63952   0.00000  Uiso   1.00
O770   O     0.25716   0.90166   0.41182   0.00000  Uiso   1.00
O771   O     0.45419   0.79581   0.53821   0.00000  Uiso   1.00
O772   O     0.20661   0.88734   0.36048   0.00000  Uiso   1.00
O773   O     0.24284   0.59834   0.58818   0.00000  Uiso   1.00
O774   O     0.29339   0.61266   0.63952   0.00000  Uiso   1.00
O775   O     0.04580   0.70419   0.46179   0.00000  Uiso   1.00
O776   O     0.45419   0.70419   0.46179   0.00000  Uiso   1.00
O777   O     0.04580   0.79581   0.53821   0.00000  Uiso   1.00
O778   O     0.04580   0.79581   0.46179   0.00000  Uiso   1.00
O779   O     0.45419   0.70419   0.53821   0.00000  Uiso   1.00
O780   O     0.29580   0.95419   0.53821   0.00000  Uiso   1.00
Zn781  Zn   -0.00000   0.75000   0.55104   0.00000  Uiso   1.00
Zn782  Zn   -0.00000   0.75000   0.44896   0.00000  Uiso   1.00
Zn783  Zn    0.25000   0.50000   0.55104   0.00000  Uiso   1.00
Zn784  Zn    0.25000   0.50000   0.44896   0.00000  Uiso   1.00
Br785  Br    0.88110   0.68886   0.40823   0.00000  Uiso   1.00
Br786  Br    0.86890   0.56115   0.59177   0.00000  Uiso   1.00
Br787  Br    0.85590   0.57979   0.39981   0.00000  Uiso   1.00
Br788  Br    0.64409   0.92022   0.60019   0.00000  Uiso   1.00
Br789  Br    0.86890   0.93885   0.59177   0.00000  Uiso   1.00
Br790  Br    0.63110   0.56115   0.40822   0.00000  Uiso   1.00
Br791  Br    0.64408   0.57977   0.60018   0.00000  Uiso   1.00
Br792  Br    0.85592   0.92023   0.39981   0.00000  Uiso   1.00
Br793  Br    0.61890   0.81115   0.59177   0.00000  Uiso   1.00
Br794  Br    0.60590   0.82979   0.39981   0.00000  Uiso   1.00
Br795  Br    0.89409   0.67022   0.60019   0.00000  Uiso   1.00
Br796  Br    0.61890   0.68885   0.59177   0.00000  Uiso   1.00
Br797  Br    0.88110   0.81115   0.40822   0.00000  Uiso   1.00
Br798  Br    0.89408   0.82977   0.60018   0.00000  Uiso   1.00
Br799  Br    0.60592   0.67023   0.39981   0.00000  Uiso   1.00
Br800  Br    0.63110   0.93886   0.40823   0.00000  Uiso   1.00
C801   C     0.56290   0.69343   0.49965   0.00000  Uiso   1.00
C802   C     0.50147   0.70960   0.64279   0.00000  Uiso   1.00
C803   C     0.99854   0.70960   0.35721   0.00000  Uiso   1.00
C804   C     0.50146   0.79040   0.64279   0.00000  Uiso   1.00
C805   C     0.74853   0.54040   0.35721   0.00000  Uiso   1.00
C806   C     0.75147   0.95960   0.64279   0.00000  Uiso   1.00
C807   C     0.74854   0.95960   0.35721   0.00000  Uiso   1.00
C808   C     0.75146   0.54040   0.64279   0.00000  Uiso   1.00
C809   C     0.88317   0.64923   0.46016   0.00000  Uiso   1.00
C810   C     0.61683   0.85078   0.53984   0.00000  Uiso   1.00
C811   C     0.61144   0.85829   0.45829   0.00000  Uiso   1.00
C812   C     0.93710   0.80657   0.50035   0.00000  Uiso   1.00
C813   C     0.88856   0.64172   0.54171   0.00000  Uiso   1.00
C814   C     0.61683   0.64922   0.53984   0.00000  Uiso   1.00
C815   C     0.88317   0.85078   0.46016   0.00000  Uiso   1.00
C816   C     0.88855   0.85828   0.54171   0.00000  Uiso   1.00
C817   C     0.61144   0.64172   0.45829   0.00000  Uiso   1.00
C818   C     0.63317   0.89923   0.46016   0.00000  Uiso   1.00
C819   C     0.86683   0.60078   0.53984   0.00000  Uiso   1.00
C820   C     0.86144   0.60829   0.45829   0.00000  Uiso   1.00
C821   C     0.63855   0.89172   0.54171   0.00000  Uiso   1.00
C822   C     0.86683   0.89922   0.53984   0.00000  Uiso   1.00
C823   C     0.93710   0.69343   0.50035   0.00000  Uiso   1.00
C824   C     0.63317   0.60078   0.46016   0.00000  Uiso   1.00
C825   C     0.63855   0.60828   0.54171   0.00000  Uiso   1.00
C826   C     0.86144   0.89172   0.45829   0.00000  Uiso   1.00
C827   C     0.59942   0.83668   0.49883   0.00000  Uiso   1.00
C828   C     0.90058   0.66332   0.50117   0.00000  Uiso   1.00
C829   C     0.90058   0.83668   0.50117   0.00000  Uiso   1.00
C830   C     0.59942   0.66332   0.49883   0.00000  Uiso   1.00
C831   C     0.84942   0.58668   0.49883   0.00000  Uiso   1.00
C832   C     0.65058   0.91332   0.50117   0.00000  Uiso   1.00
C833   C     0.65058   0.58668   0.50117   0.00000  Uiso   1.00
C834   C     0.56290   0.80658   0.49965   0.00000  Uiso   1.00
C835   C     0.84942   0.91332   0.49883   0.00000  Uiso   1.00
C836   C     0.98771   0.83465   0.37941   0.00000  Uiso   1.00
C837   C     0.51228   0.66535   0.62059   0.00000  Uiso   1.00
C838   C     0.98772   0.66535   0.37941   0.00000  Uiso   1.00
C839   C     0.51228   0.83465   0.62059   0.00000  Uiso   1.00
C840   C     0.73771   0.58465   0.37941   0.00000  Uiso   1.00
C841   C     0.76228   0.91535   0.62059   0.00000  Uiso   1.00
C842   C     0.73772   0.91535   0.37941   0.00000  Uiso   1.00
C843   C     0.76228   0.58465   0.62059   0.00000  Uiso   1.00
C844   C     0.81290   0.94343   0.49965   0.00000  Uiso   1.00
C845   C     0.68710   0.55657   0.50035   0.00000  Uiso   1.00
C846   C     0.68710   0.94343   0.50035   0.00000  Uiso   1.00
C847   C     0.81290   0.55658   0.49965   0.00000  Uiso   1.00
C848   C     0.99853   0.79040   0.35721   0.00000  Uiso   1.00
H849   H     0.95270   0.89252   0.37732   0.00000  Uiso   1.00
H850   H     0.54729   0.60748   0.62267   0.00000  Uiso   1.00
H851   H     0.95272   0.60748   0.37734   0.00000  Uiso   1.00
H852   H     0.54728   0.89252   0.62267   0.00000  Uiso   1.00
H853   H     0.70270   0.64252   0.37732   0.00000  Uiso   1.00
H854   H     0.79729   0.85748   0.62267   0.00000  Uiso   1.00
H855   H     0.70272   0.85748   0.37734   0.00000  Uiso   1.00
H856   H     0.79728   0.64252   0.62267   0.00000  Uiso   1.00
N857   N     0.50000   0.75000   0.61907   0.00000  Uiso   1.00
N858   N     0.50000   0.75000   0.38093   0.00000  Uiso   1.00
N859   N     0.75000   0.50000   0.61907   0.00000  Uiso   1.00
N860   N     0.75000   0.50000   0.38093   0.00000  Uiso   1.00
O861   O     0.54580   0.70419   0.53821   0.00000  Uiso   1.00
O862   O     0.70419   0.54581   0.46179   0.00000  Uiso   1.00
O863   O     0.70419   0.54581   0.53821   0.00000  Uiso   1.00
O864   O     0.79580   0.95419   0.46179   0.00000  Uiso   1.00
O865   O     0.70419   0.95419   0.46179   0.00000  Uiso   1.00
O866   O     0.79580   0.54581   0.53821   0.00000  Uiso   1.00
O867   O     0.79580   0.54581   0.46179   0.00000  Uiso   1.00
O868   O     0.70419   0.95419   0.53821   0.00000  Uiso   1.00
O869   O     0.50713   0.84834   0.41183   0.00000  Uiso   1.00
O870   O     0.95659   0.86266   0.36047   0.00000  Uiso   1.00
O871   O     0.99285   0.65166   0.58818   0.00000  Uiso   1.00
O872   O     0.95419   0.79581   0.46179   0.00000  Uiso   1.00
O873   O     0.54340   0.63734   0.63952   0.00000  Uiso   1.00
O874   O     0.50716   0.65165   0.41182   0.00000  Uiso   1.00
O875   O     0.95661   0.63734   0.36048   0.00000  Uiso   1.00
O876   O     0.99284   0.84834   0.58818   0.00000  Uiso   1.00
O877   O     0.54339   0.86266   0.63952   0.00000  Uiso   1.00
O878   O     0.75713   0.59834   0.41183   0.00000  Uiso   1.00
O879   O     0.70659   0.61266   0.36047   0.00000  Uiso   1.00
O880   O     0.74285   0.90166   0.58818   0.00000  Uiso   1.00
O881   O     0.79340   0.88734   0.63952   0.00000  Uiso   1.00
O882   O     0.75716   0.90166   0.41182   0.00000  Uiso   1.00
O883   O     0.95419   0.79581   0.53821   0.00000  Uiso   1.00
O884   O     0.70661   0.88734   0.36048   0.00000  Uiso   1.00
O885   O     0.74284   0.59834   0.58818   0.00000  Uiso   1.00
O886   O     0.79339   0.61266   0.63952   0.00000  Uiso   1.00
O887   O     0.54580   0.70419   0.46179   0.00000  Uiso   1.00
O888   O     0.95419   0.70419   0.46179   0.00000  Uiso   1.00
O889   O     0.54580   0.79581   0.53821   0.00000  Uiso   1.00
O890   O     0.54580   0.79581   0.46179   0.00000  Uiso   1.00
O891   O     0.95419   0.70419   0.53821   0.00000  Uiso   1.00
O892   O     0.79580   0.95419   0.53821   0.00000  Uiso   1.00
Zn893  Zn    0.50000   0.75000   0.55104   0.00000  Uiso   1.00
Zn894  Zn    0.50000   0.75000   0.44896   0.00000  Uiso   1.00
Zn895  Zn    0.75000   0.50000   0.55104   0.00000  Uiso   1.00
Zn896  Zn    0.75000   0.50000   0.44896   0.00000  Uiso   1.00
Br897  Br    0.38110   0.18886   0.74156   0.00000  Uiso   1.00
Br898  Br    0.36890   0.06115   0.92511   0.00000  Uiso   1.00
Br899  Br    0.35590   0.07979   0.73315   0.00000  Uiso   1.00
Br900  Br    0.14409   0.42022   0.93352   0.00000  Uiso   1.00
Br901  Br    0.36890   0.43885   0.92511   0.00000  Uiso   1.00
Br902  Br    0.13110   0.06115   0.74156   0.00000  Uiso   1.00
Br903  Br    0.14408   0.07977   0.93352   0.00000  Uiso   1.00
Br904  Br    0.35592   0.42023   0.73315   0.00000  Uiso   1.00
Br905  Br    0.11890   0.31115   0.92511   0.00000  Uiso   1.00
Br906  Br    0.10590   0.32979   0.73315   0.00000  Uiso   1.00
Br907  Br    0.39409   0.17022   0.93352   0.00000  Uiso   1.00
Br908  Br    0.11890   0.18885   0.92511   0.00000  Uiso   1.00
Br909  Br    0.38110   0.31115   0.74156   0.00000  Uiso   1.00
Br910  Br    0.39408   0.32977   0.93352   0.00000  Uiso   1.00
Br911  Br    0.10592   0.17023   0.73315   0.00000  Uiso   1.00
Br912  Br    0.13110   0.43886   0.74156   0.00000  Uiso   1.00
C913   C     0.06290   0.19343   0.83298   0.00000  Uiso   1.00
C914   C     0.00147   0.20960   0.97613   0.00000  Uiso   1.00
C915   C     0.49854   0.20960   0.69054   0.00000  Uiso   1.00
C916   C     0.00146   0.29040   0.97613   0.00000  Uiso   1.00
C917   C     0.24853   0.04040   0.69054   0.00000  Uiso   1.00
C918   C     0.25147   0.45960   0.97613   0.00000  Uiso   1.00
C919   C     0.24854   0.45960   0.69054   0.00000  Uiso   1.00
C920   C     0.25146   0.04040   0.97613   0.00000  Uiso   1.00
C921   C     0.38317   0.14923   0.79349   0.00000  Uiso   1.00
C922   C     0.11683   0.35078   0.87318   0.00000  Uiso   1.00
C923   C     0.11144   0.35829   0.79163   0.00000  Uiso   1.00
C924   C     0.43710   0.30657   0.83368   0.00000  Uiso   1.00
C925   C     0.38856   0.14172   0.87504   0.00000  Uiso   1.00
C926   C     0.11683   0.14922   0.87318   0.00000  Uiso   1.00
C927   C     0.38317   0.35078   0.79349   0.00000  Uiso   1.00
C928   C     0.38855   0.35828   0.87504   0.00000  Uiso   1.00
C929   C     0.11144   0.14172   0.79163   0.00000  Uiso   1.00
C930   C     0.13317   0.39923   0.79349   0.00000  Uiso   1.00
C931   C     0.36683   0.10078   0.87318   0.00000  Uiso   1.00
C932   C     0.36144   0.10829   0.79163   0.00000  Uiso   1.00
C933   C     0.13855   0.39172   0.87504   0.00000  Uiso   1.00
C934   C     0.36683   0.39922   0.87318   0.00000  Uiso   1.00
C935   C     0.43710   0.19343   0.83368   0.00000  Uiso   1.00
C936   C     0.13317   0.10078   0.79349   0.00000  Uiso   1.00
C937   C     0.13855   0.10828   0.87504   0.00000  Uiso   1.00
C938   C     0.36144   0.39172   0.79163   0.00000  Uiso   1.00
C939   C     0.09942   0.33668   0.83216   0.00000  Uiso   1.00
C940   C     0.40058   0.16332   0.83450   0.00000  Uiso   1.00
C941   C     0.40058   0.33668   0.83450   0.00000  Uiso   1.00
C942   C     0.09942   0.16332   0.83217   0.00000  Uiso   1.00
C943   C     0.34942   0.08668   0.83216   0.00000  Uiso   1.00
C944   C     0.15058   0.41332   0.83450   0.00000  Uiso   1.00
C945   C     0.15058   0.08668   0.83450   0.00000  Uiso   1.00
C946   C     0.06290   0.30658   0.83298   0.00000  Uiso   1.00
C947   C     0.34942   0.41332   0.83217   0.00000  Uiso   1.00
C948   C     0.48771   0.33465   0.71274   0.00000  Uiso   1.00
C949   C     0.01228   0.16535   0.95392   0.00000  Uiso   1.00
C950   C     0.48772   0.16535   0.71275   0.00000  Uiso   1.00
C951   C     0.01228   0.33465   0.95392   0.00000  Uiso   1.00
C952   C     0.23771   0.08465   0.71274   0.00000  Uiso   1.00
C953   C     0.26228   0.41535   0.95392   0.00000  Uiso   1.00
C954   C     0.23772   0.41535   0.71275   0.00000  Uiso   1.00
C955   C     0.26228   0.08465   0.95392   0.00000  Uiso   1.00
C956   C     0.31290   0.44343   0.83298   0.00000  Uiso   1.00
C957   C     0.18710   0.05657   0.83368   0.00000  Uiso   1.00
C958   C     0.18710   0.44343   0.83368   0.00000  Uiso   1.00
C959   C     0.31290   0.05658   0.83298   0.00000  Uiso   1.00
C960   C     0.49853   0.29040   0.69054   0.00000  Uiso   1.00
H961   H     0.45270   0.39252   0.71065   0.00000  Uiso   1.00
H962   H     0.04729   0.10748   0.95601   0.00000  Uiso   1.00
H963   H     0.45272   0.10748   0.71067   0.00000  Uiso   1.00
H964   H     0.04728   0.39252   0.95600   0.00000  Uiso   1.00
H965   H     0.20270   0.14252   0.71065   0.00000  Uiso   1.00
H966   H     0.29729   0.35748   0.95601   0.00000  Uiso   1.00
H967   H     0.20272   0.35748   0.71067   0.00000  Uiso   1.00
H968   H     0.29728   0.14252   0.95600   0.00000  Uiso   1.00
N969   N     0.00000   0.25000   0.95240   0.00000  Uiso   1.00
N970   N    -0.00000   0.25000   0.71427   0.00000  Uiso   1.00
N971   N     0.25000   0.00000   0.95240   0.00000  Uiso   1.00
N972   N     0.25000   0.00000   0.71427   0.00000  Uiso   1.00
O973   O     0.04580   0.20419   0.87154   0.00000  Uiso   1.00
O974   O     0.20419   0.04581   0.79513   0.00000  Uiso   1.00
O975   O     0.20419   0.04581   0.87154   0.00000  Uiso   1.00
O976   O     0.29580   0.45419   0.79513   0.00000  Uiso   1.00
O977   O     0.20419   0.45419   0.79513   0.00000  Uiso   1.00
O978   O     0.29580   0.04581   0.87154   0.00000  Uiso   1.00
O979   O     0.29580   0.04581   0.79513   0.00000  Uiso   1.00
O980   O     0.20419   0.45419   0.87154   0.00000  Uiso   1.00
O981   O     0.00713   0.34834   0.74516   0.00000  Uiso   1.00
O982   O     0.45659   0.36266   0.69380   0.00000  Uiso   1.00
O983   O     0.49285   0.15166   0.92151   0.00000  Uiso   1.00
O984   O     0.45419   0.29581   0.79513   0.00000  Uiso   1.00
O985   O     0.04340   0.13734   0.97285   0.00000  Uiso   1.00
O986   O     0.00716   0.15165   0.74515   0.00000  Uiso   1.00
O987   O     0.45661   0.13734   0.69382   0.00000  Uiso   1.00
O988   O     0.49284   0.34834   0.92151   0.00000  Uiso   1.00
O989   O     0.04339   0.36266   0.97285   0.00000  Uiso   1.00
O990   O     0.25713   0.09834   0.74516   0.00000  Uiso   1.00
O991   O     0.20659   0.11266   0.69380   0.00000  Uiso   1.00
O992   O     0.24285   0.40166   0.92151   0.00000  Uiso   1.00
O993   O     0.29340   0.38734   0.97285   0.00000  Uiso   1.00
O994   O     0.25716   0.40166   0.74515   0.00000  Uiso   1.00
O995   O     0.45419   0.29581   0.87154   0.00000  Uiso   1.00
O996   O     0.20661   0.38734   0.69382   0.00000  Uiso   1.00
O997   O     0.24284   0.09834   0.92151   0.00000  Uiso   1.00
O998   O     0.29339   0.11266   0.97285   0.00000  Uiso   1.00
O999   O     0.04580   0.20419   0.79513   0.00000  Uiso   1.00
O1000  O     0.45419   0.20419   0.79513   0.00000  Uiso   1.00
O1001  O     0.04580   0.29581   0.87154   0.00000  Uiso   1.00
O1002  O     0.04580   0.29581   0.79513   0.00000  Uiso   1.00
O1003  O     0.45419   0.20419   0.87154   0.00000  Uiso   1.00
O1004  O     0.29580   0.45419   0.87154   0.00000  Uiso   1.00
Zn1005 Zn   -0.00000   0.25000   0.88437   0.00000  Uiso   1.00
Zn1006 Zn   -0.00000   0.25000   0.78229   0.00000  Uiso   1.00
Zn1007 Zn    0.25000   0.00000   0.88437   0.00000  Uiso   1.00
Zn1008 Zn    0.25000   0.00000   0.78229   0.00000  Uiso   1.00
Br1009 Br    0.88110   0.18886   0.74156   0.00000  Uiso   1.00
Br1010 Br    0.86890   0.06115   0.92511   0.00000  Uiso   1.00
Br1011 Br    0.85590   0.07979   0.73315   0.00000  Uiso   1.00
Br1012 Br    0.64409   0.42022   0.93352   0.00000  Uiso   1.00
Br1013 Br    0.86890   0.43885   0.92511   0.00000  Uiso   1.00
Br1014 Br    0.63110   0.06115   0.74156   0.00000  Uiso   1.00
Br1015 Br    0.64408   0.07977   0.93352   0.00000  Uiso   1.00
Br1016 Br    0.85592   0.42023   0.73315   0.00000  Uiso   1.00
Br1017 Br    0.61890   0.31115   0.92511   0.00000  Uiso   1.00
Br1018 Br    0.60590   0.32979   0.73315   0.00000  Uiso   1.00
Br1019 Br    0.89409   0.17022   0.93352   0.00000  Uiso   1.00
Br1020 Br    0.61890   0.18885   0.92511   0.00000  Uiso   1.00
Br1021 Br    0.88110   0.31115   0.74156   0.00000  Uiso   1.00
Br1022 Br    0.89408   0.32977   0.93352   0.00000  Uiso   1.00
Br1023 Br    0.60592   0.17023   0.73315   0.00000  Uiso   1.00
Br1024 Br    0.63110   0.43886   0.74156   0.00000  Uiso   1.00
C1025  C     0.56290   0.19343   0.83298   0.00000  Uiso   1.00
C1026  C     0.50147   0.20960   0.97613   0.00000  Uiso   1.00
C1027  C     0.99854   0.20960   0.69054   0.00000  Uiso   1.00
C1028  C     0.50146   0.29040   0.97613   0.00000  Uiso   1.00
C1029  C     0.74853   0.04040   0.69054   0.00000  Uiso   1.00
C1030  C     0.75147   0.45960   0.97613   0.00000  Uiso   1.00
C1031  C     0.74854   0.45960   0.69054   0.00000  Uiso   1.00
C1032  C     0.75146   0.04040   0.97613   0.00000  Uiso   1.00
C1033  C     0.88317   0.14923   0.79349   0.00000  Uiso   1.00
C1034  C     0.61683   0.35078   0.87318   0.00000  Uiso   1.00
C1035  C     0.61144   0.35829   0.79163   0.00000  Uiso   1.00
C1036  C     0.93710   0.30657   0.83368   0.00000  Uiso   1.00
C1037  C     0.88856   0.14172   0.87504   0.00000  Uiso   1.00
C1038  C     0.61683   0.14922   0.87318   0.00000  Uiso   1.00
C1039  C     0.88317   0.35078   0.79349   0.00000  Uiso   1.00
C1040  C     0.88855   0.35828   0.87504   0.00000  Uiso   1.00
C1041  C     0.61144   0.14172   0.79163   0.00000  Uiso   1.00
C1042  C     0.63317   0.39923   0.79349   0.00000  Uiso   1.00
C1043  C     0.86683   0.10078   0.87318   0.00000  Uiso   1.00
C1044  C     0.86144   0.10829   0.79163   0.00000  Uiso   1.00
C1045  C     0.63855   0.39172   0.87504   0.00000  Uiso   1.00
C1046  C     0.86683   0.39922   0.87318   0.00000  Uiso   1.00
C1047  C     0.93710   0.19343   0.83368   0.00000  Uiso   1.00
C1048  C     0.63317   0.10078   0.79349   0.00000  Uiso   1.00
C1049  C     0.63855   0.10828   0.87504   0.00000  Uiso   1.00
C1050  C     0.86144   0.39172   0.79163   0.00000  Uiso   1.00
C1051  C     0.59942   0.33668   0.83216   0.00000  Uiso   1.00
C1052  C     0.90058   0.16332   0.83450   0.00000  Uiso   1.00
C1053  C     0.90058   0.33668   0.83450   0.00000  Uiso   1.00
C1054  C     0.59942   0.16332   0.83217   0.00000  Uiso   1.00
C1055  C     0.84942   0.08668   0.83216   0.00000  Uiso   1.00
C1056  C     0.65058   0.41332   0.83450   0.00000  Uiso   1.00
C1057  C     0.65058   0.08668   0.83450   0.00000  Uiso   1.00
C1058  C     0.56290   0.30658   0.83298   0.00000  Uiso   1.00
C1059  C     0.84942   0.41332   0.83217   0.00000  Uiso   1.00
C1060  C     0.98771   0.33465   0.71274   0.00000  Uiso   1.00
C1061  C     0.51228   0.16535   0.95392   0.00000  Uiso   1.00
C1062  C     0.98772   0.16535   0.71275   0.00000  Uiso   1.00
C1063  C     0.51228   0.33465   0.95392   0.00000  Uiso   1.00
C1064  C     0.73771   0.08465   0.71274   0.00000  Uiso   1.00
C1065  C     0.76228   0.41535   0.95392   0.00000  Uiso   1.00
C1066  C     0.73772   0.41535   0.71275   0.00000  Uiso   1.00
C1067  C     0.76228   0.08465   0.95392   0.00000  Uiso   1.00
C1068  C     0.81290   0.44343   0.83298   0.00000  Uiso   1.00
C1069  C     0.68710   0.05657   0.83368   0.00000  Uiso   1.00
C1070  C     0.68710   0.44343   0.83368   0.00000  Uiso   1.00
C1071  C     0.81290   0.05658   0.83298   0.00000  Uiso   1.00
C1072  C     0.99853   0.29040   0.69054   0.00000  Uiso   1.00
H1073  H     0.95270   0.39252   0.71065   0.00000  Uiso   1.00
H1074  H     0.54729   0.10748   0.95601   0.00000  Uiso   1.00
H1075  H     0.95272   0.10748   0.71067   0.00000  Uiso   1.00
H1076  H     0.54728   0.39252   0.95600   0.00000  Uiso   1.00
H1077  H     0.70270   0.14252   0.71065   0.00000  Uiso   1.00
H1078  H     0.79729   0.35748   0.95601   0.00000  Uiso   1.00
H1079  H     0.70272   0.35748   0.71067   0.00000  Uiso   1.00
H1080  H     0.79728   0.14252   0.95600   0.00000  Uiso   1.00
N1081  N     0.50000   0.25000   0.95240   0.00000  Uiso   1.00
N1082  N     0.50000   0.25000   0.71427   0.00000  Uiso   1.00
N1083  N     0.75000   0.00000   0.95240   0.00000  Uiso   1.00
N1084  N     0.75000   0.00000   0.71427   0.00000  Uiso   1.00
O1085  O     0.54580   0.20419   0.87154   0.00000  Uiso   1.00
O1086  O     0.70419   0.04581   0.79513   0.00000  Uiso   1.00
O1087  O     0.70419   0.04581   0.87154   0.00000  Uiso   1.00
O1088  O     0.79580   0.45419   0.79513   0.00000  Uiso   1.00
O1089  O     0.70419   0.45419   0.79513   0.00000  Uiso   1.00
O1090  O     0.79580   0.04581   0.87154   0.00000  Uiso   1.00
O1091  O     0.79580   0.04581   0.79513   0.00000  Uiso   1.00
O1092  O     0.70419   0.45419   0.87154   0.00000  Uiso   1.00
O1093  O     0.50713   0.34834   0.74516   0.00000  Uiso   1.00
O1094  O     0.95659   0.36266   0.69380   0.00000  Uiso   1.00
O1095  O     0.99285   0.15166   0.92151   0.00000  Uiso   1.00
O1096  O     0.95419   0.29581   0.79513   0.00000  Uiso   1.00
O1097  O     0.54340   0.13734   0.97285   0.00000  Uiso   1.00
O1098  O     0.50716   0.15165   0.74515   0.00000  Uiso   1.00
O1099  O     0.95661   0.13734   0.69382   0.00000  Uiso   1.00
O1100  O     0.99284   0.34834   0.92151   0.00000  Uiso   1.00
O1101  O     0.54339   0.36266   0.97285   0.00000  Uiso   1.00
O1102  O     0.75713   0.09834   0.74516   0.00000  Uiso   1.00
O1103  O     0.70659   0.11266   0.69380   0.00000  Uiso   1.00
O1104  O     0.74285   0.40166   0.92151   0.00000  Uiso   1.00
O1105  O     0.79340   0.38734   0.97285   0.00000  Uiso   1.00
O1106  O     0.75716   0.40166   0.74515   0.00000  Uiso   1.00
O1107  O     0.95419   0.29581   0.87154   0.00000  Uiso   1.00
O1108  O     0.70661   0.38734   0.69382   0.00000  Uiso   1.00
O1109  O     0.74284   0.09834   0.92151   0.00000  Uiso   1.00
O1110  O     0.79339   0.11266   0.97285   0.00000  Uiso   1.00
O1111  O     0.54580   0.20419   0.79513   0.00000  Uiso   1.00
O1112  O     0.95419   0.20419   0.79513   0.00000  Uiso   1.00
O1113  O     0.54580   0.29581   0.87154   0.00000  Uiso   1.00
O1114  O     0.54580   0.29581   0.79513   0.00000  Uiso   1.00
O1115  O     0.95419   0.20419   0.87154   0.00000  Uiso   1.00
O1116  O     0.79580   0.45419   0.87154   0.00000  Uiso   1.00
Zn1117 Zn    0.50000   0.25000   0.88437   0.00000  Uiso   1.00
Zn1118 Zn    0.50000   0.25000   0.78229   0.00000  Uiso   1.00
Zn1119 Zn    0.75000   0.00000   0.88437   0.00000  Uiso   1.00
Zn1120 Zn    0.75000   0.00000   0.78229   0.00000  Uiso   1.00
Br1121 Br    0.38110   0.68886   0.74156   0.00000  Uiso   1.00
Br1122 Br    0.36890   0.56115   0.92511   0.00000  Uiso   1.00
Br1123 Br    0.35590   0.57979   0.73315   0.00000  Uiso   1.00
Br1124 Br    0.14409   0.92022   0.93352   0.00000  Uiso   1.00
Br1125 Br    0.36890   0.93885   0.92511   0.00000  Uiso   1.00
Br1126 Br    0.13110   0.56115   0.74156   0.00000  Uiso   1.00
Br1127 Br    0.14408   0.57977   0.93352   0.00000  Uiso   1.00
Br1128 Br    0.35592   0.92023   0.73315   0.00000  Uiso   1.00
Br1129 Br    0.11890   0.81115   0.92511   0.00000  Uiso   1.00
Br1130 Br    0.10590   0.82979   0.73315   0.00000  Uiso   1.00
Br1131 Br    0.39409   0.67022   0.93352   0.00000  Uiso   1.00
Br1132 Br    0.11890   0.68885   0.92511   0.00000  Uiso   1.00
Br1133 Br    0.38110   0.81115   0.74156   0.00000  Uiso   1.00
Br1134 Br    0.39408   0.82977   0.93352   0.00000  Uiso   1.00
Br1135 Br    0.10592   0.67023   0.73315   0.00000  Uiso   1.00
Br1136 Br    0.13110   0.93886   0.74156   0.00000  Uiso   1.00
C1137  C     0.06290   0.69343   0.83298   0.00000  Uiso   1.00
C1138  C     0.00147   0.70960   0.97613   0.00000  Uiso   1.00
C1139  C     0.49854   0.70960   0.69054   0.00000  Uiso   1.00
C1140  C     0.00146   0.79040   0.97613   0.00000  Uiso   1.00
C1141  C     0.24853   0.54040   0.69054   0.00000  Uiso   1.00
C1142  C     0.25147   0.95960   0.97613   0.00000  Uiso   1.00
C1143  C     0.24854   0.95960   0.69054   0.00000  Uiso   1.00
C1144  C     0.25146   0.54040   0.97613   0.00000  Uiso   1.00
C1145  C     0.38317   0.64923   0.79349   0.00000  Uiso   1.00
C1146  C     0.11683   0.85078   0.87318   0.00000  Uiso   1.00
C1147  C     0.11144   0.85829   0.79163   0.00000  Uiso   1.00
C1148  C     0.43710   0.80657   0.83368   0.00000  Uiso   1.00
C1149  C     0.38856   0.64172   0.87504   0.00000  Uiso   1.00
C1150  C     0.11683   0.64922   0.87318   0.00000  Uiso   1.00
C1151  C     0.38317   0.85078   0.79349   0.00000  Uiso   1.00
C1152  C     0.38855   0.85828   0.87504   0.00000  Uiso   1.00
C1153  C     0.11144   0.64172   0.79163   0.00000  Uiso   1.00
C1154  C     0.13317   0.89923   0.79349   0.00000  Uiso   1.00
C1155  C     0.36683   0.60078   0.87318   0.00000  Uiso   1.00
C1156  C     0.36144   0.60829   0.79163   0.00000  Uiso   1.00
C1157  C     0.13855   0.89172   0.87504   0.00000  Uiso   1.00
C1158  C     0.36683   0.89922   0.87318   0.00000  Uiso   1.00
C1159  C     0.43710   0.69343   0.83368   0.00000  Uiso   1.00
C1160  C     0.13317   0.60078   0.79349   0.00000  Uiso   1.00
C1161  C     0.13855   0.60828   0.87504   0.00000  Uiso   1.00
C1162  C     0.36144   0.89172   0.79163   0.00000  Uiso   1.00
C1163  C     0.09942   0.83668   0.83216   0.00000  Uiso   1.00
C1164  C     0.40058   0.66332   0.83450   0.00000  Uiso   1.00
C1165  C     0.40058   0.83668   0.83450   0.00000  Uiso   1.00
C1166  C     0.09942   0.66332   0.83217   0.00000  Uiso   1.00
C1167  C     0.34942   0.58668   0.83216   0.00000  Uiso   1.00
C1168  C     0.15058   0.91332   0.83450   0.00000  Uiso   1.00
C1169  C     0.15058   0.58668   0.83450   0.00000  Uiso   1.00
C1170  C     0.06290   0.80658   0.83298   0.00000  Uiso   1.00
C1171  C     0.34942   0.91332   0.83217   0.00000  Uiso   1.00
C1172  C     0.48771   0.83465   0.71274   0.00000  Uiso   1.00
C1173  C     0.01228   0.66535   0.95392   0.00000  Uiso   1.00
C1174  C     0.48772   0.66535   0.71275   0.00000  Uiso   1.00
C1175  C     0.01228   0.83465   0.95392   0.00000  Uiso   1.00
C1176  C     0.23771   0.58465   0.71274   0.00000  Uiso   1.00
C1177  C     0.26228   0.91535   0.95392   0.00000  Uiso   1.00
C1178  C     0.23772   0.91535   0.71275   0.00000  Uiso   1.00
C1179  C     0.26228   0.58465   0.95392   0.00000  Uiso   1.00
C1180  C     0.31290   0.94343   0.83298   0.00000  Uiso   1.00
C1181  C     0.18710   0.55657   0.83368   0.00000  Uiso   1.00
C1182  C     0.18710   0.94343   0.83368   0.00000  Uiso   1.00
C1183  C     0.31290   0.55658   0.83298   0.00000  Uiso   1.00
C1184  C     0.49853   0.79040   0.69054   0.00000  Uiso   1.00
H1185  H     0.45270   0.89252   0.71065   0.00000  Uiso   1.00
H1186  H     0.04729   0.60748   0.95601   0.00000  Uiso   1.00
H1187  H     0.45272   0.60748   0.71067   0.00000  Uiso   1.00
H1188  H     0.04728   0.89252   0.95600   0.00000  Uiso   1.00
H1189  H     0.20270   0.64252   0.71065   0.00000  Uiso   1.00
H1190  H     0.29729   0.85748   0.95601   0.00000  Uiso   1.00
H1191  H     0.20272   0.85748   0.71067   0.00000  Uiso   1.00
H1192  H     0.29728   0.64252   0.95600   0.00000  Uiso   1.00
N1193  N     0.00000   0.75000   0.95240   0.00000  Uiso   1.00
N1194  N    -0.00000   0.75000   0.71427   0.00000  Uiso   1.00
N1195  N     0.25000   0.50000   0.95240   0.00000  Uiso   1.00
N1196  N     0.25000   0.50000   0.71427   0.00000  Uiso   1.00
O1197  O     0.04580   0.70419   0.87154   0.00000  Uiso   1.00
O1198  O     0.20419   0.54581   0.79513   0.00000  Uiso   1.00
O1199  O     0.20419   0.54581   0.87154   0.00000  Uiso   1.00
O1200  O     0.29580   0.95419   0.79513   0.00000  Uiso   1.00
O1201  O     0.20419   0.95419   0.79513   0.00000  Uiso   1.00
O1202  O     0.29580   0.54581   0.87154   0.00000  Uiso   1.00
O1203  O     0.29580   0.54581   0.79513   0.00000  Uiso   1.00
O1204  O     0.20419   0.95419   0.87154   0.00000  Uiso   1.00
O1205  O     0.00713   0.84834   0.74516   0.00000  Uiso   1.00
O1206  O     0.45659   0.86266   0.69380   0.00000  Uiso   1.00
O1207  O     0.49285   0.65166   0.92151   0.00000  Uiso   1.00
O1208  O     0.45419   0.79581   0.79513   0.00000  Uiso   1.00
O1209  O     0.04340   0.63734   0.97285   0.00000  Uiso   1.00
O1210  O     0.00716   0.65165   0.74515   0.00000  Uiso   1.00
O1211  O     0.45661   0.63734   0.69382   0.00000  Uiso   1.00
O1212  O     0.49284   0.84834   0.92151   0.00000  Uiso   1.00
O1213  O     0.04339   0.86266   0.97285   0.00000  Uiso   1.00
O1214  O     0.25713   0.59834   0.74516   0.00000  Uiso   1.00
O1215  O     0.20659   0.61266   0.69380   0.00000  Uiso   1.00
O1216  O     0.24285   0.90166   0.92151   0.00000  Uiso   1.00
O1217  O     0.29340   0.88734   0.97285   0.00000  Uiso   1.00
O1218  O     0.25716   0.90166   0.74515   0.00000  Uiso   1.00
O1219  O     0.45419   0.79581   0.87154   0.00000  Uiso   1.00
O1220  O     0.20661   0.88734   0.69382   0.00000  Uiso   1.00
O1221  O     0.24284   0.59834   0.92151   0.00000  Uiso   1.00
O1222  O     0.29339   0.61266   0.97285   0.00000  Uiso   1.00
O1223  O     0.04580   0.70419   0.79513   0.00000  Uiso   1.00
O1224  O     0.45419   0.70419   0.79513   0.00000  Uiso   1.00
O1225  O     0.04580   0.79581   0.87154   0.00000  Uiso   1.00
O1226  O     0.04580   0.79581   0.79513   0.00000  Uiso   1.00
O1227  O     0.45419   0.70419   0.87154   0.00000  Uiso   1.00
O1228  O     0.29580   0.95419   0.87154   0.00000  Uiso   1.00
Zn1229 Zn   -0.00000   0.75000   0.88437   0.00000  Uiso   1.00
Zn1230 Zn   -0.00000   0.75000   0.78229   0.00000  Uiso   1.00
Zn1231 Zn    0.25000   0.50000   0.88437   0.00000  Uiso   1.00
Zn1232 Zn    0.25000   0.50000   0.78229   0.00000  Uiso   1.00
Br1233 Br    0.88110   0.68886   0.74156   0.00000  Uiso   1.00
Br1234 Br    0.86890   0.56115   0.92511   0.00000  Uiso   1.00
Br1235 Br    0.85590   0.57979   0.73315   0.00000  Uiso   1.00
Br1236 Br    0.64409   0.92022   0.93352   0.00000  Uiso   1.00
Br1237 Br    0.86890   0.93885   0.92511   0.00000  Uiso   1.00
Br1238 Br    0.63110   0.56115   0.74156   0.00000  Uiso   1.00
Br1239 Br    0.64408   0.57977   0.93352   0.00000  Uiso   1.00
Br1240 Br    0.85592   0.92023   0.73315   0.00000  Uiso   1.00
Br1241 Br    0.61890   0.81115   0.92511   0.00000  Uiso   1.00
Br1242 Br    0.60590   0.82979   0.73315   0.00000  Uiso   1.00
Br1243 Br    0.89409   0.67022   0.93352   0.00000  Uiso   1.00
Br1244 Br    0.61890   0.68885   0.92511   0.00000  Uiso   1.00
Br1245 Br    0.88110   0.81115   0.74156   0.00000  Uiso   1.00
Br1246 Br    0.89408   0.82977   0.93352   0.00000  Uiso   1.00
Br1247 Br    0.60592   0.67023   0.73315   0.00000  Uiso   1.00
Br1248 Br    0.63110   0.93886   0.74156   0.00000  Uiso   1.00
C1249  C     0.56290   0.69343   0.83298   0.00000  Uiso   1.00
C1250  C     0.50147   0.70960   0.97613   0.00000  Uiso   1.00
C1251  C     0.99854   0.70960   0.69054   0.00000  Uiso   1.00
C1252  C     0.50146   0.79040   0.97613   0.00000  Uiso   1.00
C1253  C     0.74853   0.54040   0.69054   0.00000  Uiso   1.00
C1254  C     0.75147   0.95960   0.97613   0.00000  Uiso   1.00
C1255  C     0.74854   0.95960   0.69054   0.00000  Uiso   1.00
C1256  C     0.75146   0.54040   0.97613   0.00000  Uiso   1.00
C1257  C     0.88317   0.64923   0.79349   0.00000  Uiso   1.00
C1258  C     0.61683   0.85078   0.87318   0.00000  Uiso   1.00
C1259  C     0.61144   0.85829   0.79163   0.00000  Uiso   1.00
C1260  C     0.93710   0.80657   0.83368   0.00000  Uiso   1.00
C1261  C     0.88856   0.64172   0.87504   0.00000  Uiso   1.00
C1262  C     0.61683   0.64922   0.87318   0.00000  Uiso   1.00
C1263  C     0.88317   0.85078   0.79349   0.00000  Uiso   1.00
C1264  C     0.88855   0.85828   0.87504   0.00000  Uiso   1.00
C1265  C     0.61144   0.64172   0.79163   0.00000  Uiso   1.00
C1266  C     0.63317   0.89923   0.79349   0.00000  Uiso   1.00
C1267  C     0.86683   0.60078   0.87318   0.00000  Uiso   1.00
C1268  C     0.86144   0.60829   0.79163   0.00000  Uiso   1.00
C1269  C     0.63855   0.89172   0.87504   0.00000  Uiso   1.00
C1270  C     0.86683   0.89922   0.87318   0.00000  Uiso   1.00
C1271  C     0.93710   0.69343   0.83368   0.00000  Uiso   1.00
C1272  C     0.63317   0.60078   0.79349   0.00000  Uiso   1.00
C1273  C     0.63855   0.60828   0.87504   0.00000  Uiso   1.00
C1274  C     0.86144   0.89172   0.79163   0.00000  Uiso   1.00
C1275  C     0.59942   0.83668   0.83216   0.00000  Uiso   1.00
C1276  C     0.90058   0.66332   0.83450   0.00000  Uiso   1.00
C1277  C     0.90058   0.83668   0.83450   0.00000  Uiso   1.00
C1278  C     0.59942   0.66332   0.83217   0.00000  Uiso   1.00
C1279  C     0.84942   0.58668   0.83216   0.00000  Uiso   1.00
C1280  C     0.65058   0.91332   0.83450   0.00000  Uiso   1.00
C1281  C     0.65058   0.58668   0.83450   0.00000  Uiso   1.00
C1282  C     0.56290   0.80658   0.83298   0.00000  Uiso   1.00
C1283  C     0.84942   0.91332   0.83217   0.00000  Uiso   1.00
C1284  C     0.98771   0.83465   0.71274   0.00000  Uiso   1.00
C1285  C     0.51228   0.66535   0.95392   0.00000  Uiso   1.00
C1286  C     0.98772   0.66535   0.71275   0.00000  Uiso   1.00
C1287  C     0.51228   0.83465   0.95392   0.00000  Uiso   1.00
C1288  C     0.73771   0.58465   0.71274   0.00000  Uiso   1.00
C1289  C     0.76228   0.91535   0.95392   0.00000  Uiso   1.00
C1290  C     0.73772   0.91535   0.71275   0.00000  Uiso   1.00
C1291  C     0.76228   0.58465   0.95392   0.00000  Uiso   1.00
C1292  C     0.81290   0.94343   0.83298   0.00000  Uiso   1.00
C1293  C     0.68710   0.55657   0.83368   0.00000  Uiso   1.00
C1294  C     0.68710   0.94343   0.83368   0.00000  Uiso   1.00
C1295  C     0.81290   0.55658   0.83298   0.00000  Uiso   1.00
C1296  C     0.99853   0.79040   0.69054   0.00000  Uiso   1.00
H1297  H     0.95270   0.89252   0.71065   0.00000  Uiso   1.00
H1298  H     0.54729   0.60748   0.95601   0.00000  Uiso   1.00
H1299  H     0.95272   0.60748   0.71067   0.00000  Uiso   1.00
H1300  H     0.54728   0.89252   0.95600   0.00000  Uiso   1.00
H1301  H     0.70270   0.64252   0.71065   0.00000  Uiso   1.00
H1302  H     0.79729   0.85748   0.95601   0.00000  Uiso   1.00
H1303  H     0.70272   0.85748   0.71067   0.00000  Uiso   1.00
H1304  H     0.79728   0.64252   0.95600   0.00000  Uiso   1.00
N1305  N     0.50000   0.75000   0.95240   0.00000  Uiso   1.00
N1306  N     0.50000   0.75000   0.71427   0.00000  Uiso   1.00
N1307  N     0.75000   0.50000   0.95240   0.00000  Uiso   1.00
N1308  N     0.75000   0.50000   0.71427   0.00000  Uiso   1.00
O1309  O     0.54580   0.70419   0.87154   0.00000  Uiso   1.00
O1310  O     0.70419   0.54581   0.79513   0.00000  Uiso   1.00
O1311  O     0.70419   0.54581   0.87154   0.00000  Uiso   1.00
O1312  O     0.79580   0.95419   0.79513   0.00000  Uiso   1.00
O1313  O     0.70419   0.95419   0.79513   0.00000  Uiso   1.00
O1314  O     0.79580   0.54581   0.87154   0.00000  Uiso   1.00
O1315  O     0.79580   0.54581   0.79513   0.00000  Uiso   1.00
O1316  O     0.70419   0.95419   0.87154   0.00000  Uiso   1.00
O1317  O     0.50713   0.84834   0.74516   0.00000  Uiso   1.00
O1318  O     0.95659   0.86266   0.69380   0.00000  Uiso   1.00
O1319  O     0.99285   0.65166   0.92151   0.00000  Uiso   1.00
O1320  O     0.95419   0.79581   0.79513   0.00000  Uiso   1.00
O1321  O     0.54340   0.63734   0.97285   0.00000  Uiso   1.00
O1322  O     0.50716   0.65165   0.74515   0.00000  Uiso   1.00
O1323  O     0.95661   0.63734   0.69382   0.00000  Uiso   1.00
O1324  O     0.99284   0.84834   0.92151   0.00000  Uiso   1.00
O1325  O     0.54339   0.86266   0.97285   0.00000  Uiso   1.00
O1326  O     0.75713   0.59834   0.74516   0.00000  Uiso   1.00
O1327  O     0.70659   0.61266   0.69380   0.00000  Uiso   1.00
O1328  O     0.74285   0.90166   0.92151   0.00000  Uiso   1.00
O1329  O     0.79340   0.88734   0.97285   0.00000  Uiso   1.00
O1330  O     0.75716   0.90166   0.74515   0.00000  Uiso   1.00
O1331  O     0.95419   0.79581   0.87154   0.00000  Uiso   1.00
O1332  O     0.70661   0.88734   0.69382   0.00000  Uiso   1.00
O1333  O     0.74284   0.59834   0.92151   0.00000  Uiso   1.00
O1334  O     0.79339   0.61266   0.97285   0.00000  Uiso   1.00
O1335  O     0.54580   0.70419   0.79513   0.00000  Uiso   1.00
O1336  O     0.95419   0.70419   0.79513   0.00000  Uiso   1.00
O1337  O     0.54580   0.79581   0.87154   0.00000  Uiso   1.00
O1338  O     0.54580   0.79581   0.79513   0.00000  Uiso   1.00
O1339  O     0.95419   0.70419   0.87154   0.00000  Uiso   1.00
O1340  O     0.79580   0.95419   0.87154   0.00000  Uiso   1.00
Zn1341 Zn    0.50000   0.75000   0.88437   0.00000  Uiso   1.00
Zn1342 Zn    0.50000   0.75000   0.78229   0.00000  Uiso   1.00
Zn1343 Zn    0.75000   0.50000   0.88437   0.00000  Uiso   1.00
Zn1344 Zn    0.75000   0.50000   0.78229   0.00000  Uiso   1.00
loop_
_geom_bond_atom_site_label_1
_geom_bond_atom_site_label_2
_geom_bond_distance
_geom_bond_site_symmetry_2
_ccdc_geom_bond_type
Br1    C25     1.934   .     S
Br2    C35     1.934   .     S
Br3    C36     1.940   .     S
Br4    C37     1.940   .     S
Br5    C38     1.934   .     S
Br6    C40     1.934   .     S
Br7    C41     1.940   .     S
Br8    C42     1.940   .     S
Br9    C26     1.934   .     S
Br10   C27     1.940   .     S
Br11   C29     1.940   .     S
Br12   C30     1.934   .     S
Br13   C31     1.934   .     S
Br14   C32     1.940   .     S
Br15   C33     1.940   .     S
Br16   C34     1.934   .     S
C17    C46     1.445   .     S
C17    O77     1.299   .     A
C17    O103    1.293   .     A
C18    C53     1.491   .     S
C18    N73     1.378   .     A
C18    C579    1.423   1_455 S
C19    C54     1.491   .     S
C19    N186    1.378   .     A
C19    C1026   1.423   1_554 S
C20    C55     1.491   .     S
C20    N73     1.378   .     A
C20    C624    1.423   1_455 S
C21    N76     1.378   .     A
C21    C56     1.491   .     S
C21    C920    1.423   1_554 S
C22    C57     1.491   .     S
C22    C471    1.423   .     S
C22    N299    1.378   .     S
C23    C58     1.491   .     S
C23    C918    1.423   1_554 S
C23    N300    1.378   .     S
C24    N75     1.378   .     A
C24    C59     1.491   .     S
C24    C469    1.423   .     S
C25    C44     1.406   .     A
C25    C36     1.380   .     A
C26    C43     1.406   .     A
C26    C37     1.380   .     A
C27    C34     1.380   .     A
C27    C43     1.409   .     A
C28    C45     1.445   .     S
C28    O88     1.299   .     A
C28    O99     1.293   .     A
C29    C44     1.409   .     A
C29    C35     1.380   .     A
C30    C41     1.380   .     A
C30    C46     1.406   .     A
C31    C42     1.380   .     A
C31    C45     1.406   .     A
C32    C45     1.409   .     A
C32    C38     1.380   .     A
C33    C46     1.409   .     A
C33    C40     1.380   .     A
C34    C48     1.406   .     A
C35    C47     1.406   .     A
C36    C47     1.409   .     A
C37    C48     1.409   .     A
C38    C51     1.406   .     A
C39    O104    1.299   .     A
C39    O107    1.293   .     A
C39    C44     1.445   .     S
C40    C49     1.406   .     A
C41    C49     1.409   .     A
C42    C51     1.409   .     A
C43    C50     1.445   .     S
C47    C63     1.445   .     S
C48    C62     1.445   .     S
C49    C61     1.445   .     S
C50    O105    1.299   .     A
C50    O106    1.293   .     A
C51    C60     1.445   .     S
C52    C64     1.491   .     S
C52    O86     1.399   .     S
C52    O197    1.216   .     S
C53    O89     1.399   .     S
C53    O199    1.216   1_455 S
C54    O91     1.399   .     S
C54    O202    1.216   .     S
C55    O93     1.399   .     S
C55    O204    1.216   1_455 S
C56    O95     1.399   .     S
C56    O94     1.216   .     D
C57    O96     1.216   .     D
C57    O97     1.399   .     S
C58    O98     1.216   .     D
C58    O100    1.399   .     S
C59    O101    1.216   .     D
C59    O102    1.399   .     S
C60    O108    1.299   .     A
C60    O80     1.293   .     A
C61    O78     1.299   .     A
C61    O79     1.293   .     A
C62    O84     1.293   .     A
C62    O81     1.299   .     A
C63    O82     1.299   .     A
C63    O83     1.293   .     A
C64    N186    1.378   .     A
C64    C1028   1.423   1_554 S
H65    O86     1.014   .     S
H66    O89     1.014   .     S
H67    O91     1.014   .     S
H68    O93     1.014   .     S
H69    O95     1.014   .     S
H70    O97     1.014   .     S
H71    O100    1.014   .     S
H72    O102    1.014   .     S
N73    Zn109   2.025   .     S
N74    C131    1.378   1_455 A
N74    Zn110   2.025   .     S
N74    C176    1.378   1_455 A
N75    C246    1.378   1_545 S
N75    Zn111   2.025   .     S
N76    Zn112   2.025   .     S
N76    C247    1.378   1_545 S
O77    Zn109   1.999   .     S
O78    Zn112   1.999   .     S
O79    Zn111   2.006   .     S
O80    Zn336   2.006   .     S
O81    Zn336   1.999   .     S
O82    Zn111   1.999   .     S
O83    Zn112   2.006   .     S
O84    Zn335   2.006   .     S
O85    C164    1.216   1_455 S
O87    C165    1.216   .     S
O88    Zn222   1.999   .     S
O90    C166    1.216   1_455 S
O92    C167    1.216   .     S
O99    Zn221   2.006   .     S
O103   Zn110   2.006   .     S
O104   Zn222   1.999   .     S
O105   Zn109   1.999   .     S
O106   Zn110   2.006   .     S
O107   Zn221   2.006   .     S
O108   Zn335   1.999   .     S
Zn109  O211    2.006   1_455 S
Zn109  O219    2.006   1_455 S
Zn110  O200    1.999   1_455 S
Zn110  O216    1.999   1_455 S
Zn111  O308    2.006   1_545 S
Zn111  O332    1.999   1_545 S
Zn112  O305    1.999   1_545 S
Zn112  O304    2.006   1_545 S
Br113  C137    1.934   .     S
Br114  C147    1.934   .     S
Br115  C148    1.940   .     S
Br116  C149    1.940   .     S
Br117  C150    1.934   .     S
Br118  C152    1.934   .     S
Br119  C153    1.940   .     S
Br120  C154    1.940   .     S
Br121  C138    1.934   .     S
Br122  C139    1.940   .     S
Br123  C141    1.940   .     S
Br124  C142    1.934   .     S
Br125  C143    1.934   .     S
Br126  C144    1.940   .     S
Br127  C145    1.940   .     S
Br128  C146    1.934   .     S
C129   C158    1.445   .     S
C129   O189    1.299   .     A
C129   O215    1.293   .     A
C130   C165    1.491   .     S
C130   N185    1.378   .     A
C130   C467    1.423   .     S
C131   C166    1.491   .     S
C131   N74     1.378   1_655 A
C131   C914    1.423   1_654 S
C132   C167    1.491   .     S
C132   N185    1.378   .     A
C132   C512    1.423   .     S
C133   N188    1.378   .     A
C133   C168    1.491   .     S
C133   C1032   1.423   1_554 S
C134   C169    1.491   .     S
C134   C583    1.423   .     S
C134   N411    1.378   .     S
C135   C170    1.491   .     S
C135   C1030   1.423   1_554 S
C135   N412    1.378   .     S
C136   N187    1.378   .     A
C136   C171    1.491   .     S
C136   C581    1.423   .     S
C137   C156    1.406   .     A
C137   C148    1.380   .     A
C138   C155    1.406   .     A
C138   C149    1.380   .     A
C139   C146    1.380   .     A
C139   C155    1.409   .     A
C140   C157    1.445   .     S
C140   O200    1.299   .     A
C140   O211    1.293   .     A
C141   C156    1.409   .     A
C141   C147    1.380   .     A
C142   C153    1.380   .     A
C142   C158    1.406   .     A
C143   C154    1.380   .     A
C143   C157    1.406   .     A
C144   C157    1.409   .     A
C144   C150    1.380   .     A
C145   C158    1.409   .     A
C145   C152    1.380   .     A
C146   C160    1.406   .     A
C147   C159    1.406   .     A
C148   C159    1.409   .     A
C149   C160    1.409   .     A
C150   C163    1.406   .     A
C151   O216    1.299   .     A
C151   O219    1.293   .     A
C151   C156    1.445   .     S
C152   C161    1.406   .     A
C153   C161    1.409   .     A
C154   C163    1.409   .     A
C155   C162    1.445   .     S
C159   C175    1.445   .     S
C160   C174    1.445   .     S
C161   C173    1.445   .     S
C162   O217    1.299   .     A
C162   O218    1.293   .     A
C163   C172    1.445   .     S
C164   C176    1.491   .     S
C164   O198    1.399   .     S
C164   O85     1.216   1_655 S
C165   O201    1.399   .     S
C166   O203    1.399   .     S
C166   O90     1.216   1_655 S
C167   O205    1.399   .     S
C168   O207    1.399   .     S
C168   O206    1.216   .     D
C169   O208    1.216   .     D
C169   O209    1.399   .     S
C170   O210    1.216   .     D
C170   O212    1.399   .     S
C171   O213    1.216   .     D
C171   O214    1.399   .     S
C172   O220    1.299   .     A
C172   O192    1.293   .     A
C173   O190    1.299   .     A
C173   O191    1.293   .     A
C174   O196    1.293   .     A
C174   O193    1.299   .     A
C175   O194    1.299   .     A
C175   O195    1.293   .     A
C176   N74     1.378   1_655 A
C176   C916    1.423   1_654 S
H177   O198    1.014   .     S
H178   O201    1.014   .     S
H179   O203    1.014   .     S
H180   O205    1.014   .     S
H181   O207    1.014   .     S
H182   O209    1.014   .     S
H183   O212    1.014   .     S
H184   O214    1.014   .     S
N185   Zn221   2.025   .     S
N186   Zn222   2.025   .     S
N187   C358    1.378   1_545 S
N187   Zn223   2.025   .     S
N188   Zn224   2.025   .     S
N188   C359    1.378   1_545 S
O189   Zn221   1.999   .     S
O190   Zn224   1.999   .     S
O191   Zn223   2.006   .     S
O192   Zn448   2.006   .     S
O193   Zn448   1.999   .     S
O194   Zn223   1.999   .     S
O195   Zn224   2.006   .     S
O196   Zn447   2.006   .     S
O199   C53     1.216   1_655 S
O200   Zn110   1.999   1_655 S
O204   C55     1.216   1_655 S
O211   Zn109   2.006   1_655 S
O215   Zn222   2.006   .     S
O216   Zn110   1.999   1_655 S
O217   Zn221   1.999   .     S
O218   Zn222   2.006   .     S
O219   Zn109   2.006   1_655 S
O220   Zn447   1.999   .     S
Zn223  O420    2.006   1_545 S
Zn223  O444    1.999   1_545 S
Zn224  O417    1.999   1_545 S
Zn224  O416    2.006   1_545 S
Br225  C249    1.934   .     S
Br226  C259    1.934   .     S
Br227  C260    1.940   .     S
Br228  C261    1.940   .     S
Br229  C262    1.934   .     S
Br230  C264    1.934   .     S
Br231  C265    1.940   .     S
Br232  C266    1.940   .     S
Br233  C250    1.934   .     S
Br234  C251    1.940   .     S
Br235  C253    1.940   .     S
Br236  C254    1.934   .     S
Br237  C255    1.934   .     S
Br238  C256    1.940   .     S
Br239  C257    1.940   .     S
Br240  C258    1.934   .     S
C241   C270    1.445   .     S
C241   O301    1.299   .     A
C241   O327    1.293   .     A
C242   C277    1.491   .     S
C242   N297    1.378   .     A
C242   C803    1.423   1_455 S
C243   C278    1.491   .     S
C243   N410    1.378   .     A
C243   C1250   1.423   1_554 S
C244   C279    1.491   .     S
C244   N297    1.378   .     A
C244   C848    1.423   1_455 S
C245   N300    1.378   .     A
C245   C280    1.491   .     S
C245   C1144   1.423   1_554 S
C246   C281    1.491   .     S
C246   C695    1.423   .     S
C246   N75     1.378   1_565 S
C247   C282    1.491   .     S
C247   C1142   1.423   1_554 S
C247   N76     1.378   1_565 S
C248   N299    1.378   .     A
C248   C283    1.491   .     S
C248   C693    1.423   .     S
C249   C268    1.406   .     A
C249   C260    1.380   .     A
C250   C267    1.406   .     A
C250   C261    1.380   .     A
C251   C258    1.380   .     A
C251   C267    1.409   .     A
C252   C269    1.445   .     S
C252   O312    1.299   .     A
C252   O323    1.293   .     A
C253   C268    1.409   .     A
C253   C259    1.380   .     A
C254   C265    1.380   .     A
C254   C270    1.406   .     A
C255   C266    1.380   .     A
C255   C269    1.406   .     A
C256   C269    1.409   .     A
C256   C262    1.380   .     A
C257   C270    1.409   .     A
C257   C264    1.380   .     A
C258   C272    1.406   .     A
C259   C271    1.406   .     A
C260   C271    1.409   .     A
C261   C272    1.409   .     A
C262   C275    1.406   .     A
C263   O328    1.299   .     A
C263   O331    1.293   .     A
C263   C268    1.445   .     S
C264   C273    1.406   .     A
C265   C273    1.409   .     A
C266   C275    1.409   .     A
C267   C274    1.445   .     S
C271   C287    1.445   .     S
C272   C286    1.445   .     S
C273   C285    1.445   .     S
C274   O329    1.299   .     A
C274   O330    1.293   .     A
C275   C284    1.445   .     S
C276   C288    1.491   .     S
C276   O310    1.399   .     S
C276   O421    1.216   .     S
C277   O313    1.399   .     S
C277   O423    1.216   1_455 S
C278   O315    1.399   .     S
C278   O426    1.216   .     S
C279   O317    1.399   .     S
C279   O428    1.216   1_455 S
C280   O319    1.399   .     S
C280   O318    1.216   .     D
C281   O320    1.216   .     D
C281   O321    1.399   .     S
C282   O322    1.216   .     D
C282   O324    1.399   .     S
C283   O325    1.216   .     D
C283   O326    1.399   .     S
C284   O332    1.299   .     A
C284   O304    1.293   .     A
C285   O302    1.299   .     A
C285   O303    1.293   .     A
C286   O308    1.293   .     A
C286   O305    1.299   .     A
C287   O306    1.299   .     A
C287   O307    1.293   .     A
C288   N410    1.378   .     A
C288   C1252   1.423   1_554 S
H289   O310    1.014   .     S
H290   O313    1.014   .     S
H291   O315    1.014   .     S
H292   O317    1.014   .     S
H293   O319    1.014   .     S
H294   O321    1.014   .     S
H295   O324    1.014   .     S
H296   O326    1.014   .     S
N297   Zn333   2.025   .     S
N298   C355    1.378   1_455 A
N298   Zn334   2.025   .     S
N298   C400    1.378   1_455 A
N299   Zn335   2.025   .     S
N300   Zn336   2.025   .     S
O301   Zn333   1.999   .     S
O302   Zn336   1.999   .     S
O303   Zn335   2.006   .     S
O304   Zn112   2.006   1_565 S
O305   Zn112   1.999   1_565 S
O306   Zn335   1.999   .     S
O307   Zn336   2.006   .     S
O308   Zn111   2.006   1_565 S
O309   C388    1.216   1_455 S
O311   C389    1.216   .     S
O312   Zn446   1.999   .     S
O314   C390    1.216   1_455 S
O316   C391    1.216   .     S
O323   Zn445   2.006   .     S
O327   Zn334   2.006   .     S
O328   Zn446   1.999   .     S
O329   Zn333   1.999   .     S
O330   Zn334   2.006   .     S
O331   Zn445   2.006   .     S
O332   Zn111   1.999   1_565 S
Zn333  O435    2.006   1_455 S
Zn333  O443    2.006   1_455 S
Zn334  O424    1.999   1_455 S
Zn334  O440    1.999   1_455 S
Br337  C361    1.934   .     S
Br338  C371    1.934   .     S
Br339  C372    1.940   .     S
Br340  C373    1.940   .     S
Br341  C374    1.934   .     S
Br342  C376    1.934   .     S
Br343  C377    1.940   .     S
Br344  C378    1.940   .     S
Br345  C362    1.934   .     S
Br346  C363    1.940   .     S
Br347  C365    1.940   .     S
Br348  C366    1.934   .     S
Br349  C367    1.934   .     S
Br350  C368    1.940   .     S
Br351  C369    1.940   .     S
Br352  C370    1.934   .     S
C353   C382    1.445   .     S
C353   O413    1.299   .     A
C353   O439    1.293   .     A
C354   C389    1.491   .     S
C354   N409    1.378   .     A
C354   C691    1.423   .     S
C355   C390    1.491   .     S
C355   N298    1.378   1_655 A
C355   C1138   1.423   1_654 S
C356   C391    1.491   .     S
C356   N409    1.378   .     A
C356   C736    1.423   .     S
C357   N412    1.378   .     A
C357   C392    1.491   .     S
C357   C1256   1.423   1_554 S
C358   C393    1.491   .     S
C358   C807    1.423   .     S
C358   N187    1.378   1_565 S
C359   C394    1.491   .     S
C359   C1254   1.423   1_554 S
C359   N188    1.378   1_565 S
C360   N411    1.378   .     A
C360   C395    1.491   .     S
C360   C805    1.423   .     S
C361   C380    1.406   .     A
C361   C372    1.380   .     A
C362   C379    1.406   .     A
C362   C373    1.380   .     A
C363   C370    1.380   .     A
C363   C379    1.409   .     A
C364   C381    1.445   .     S
C364   O424    1.299   .     A
C364   O435    1.293   .     A
C365   C380    1.409   .     A
C365   C371    1.380   .     A
C366   C377    1.380   .     A
C366   C382    1.406   .     A
C367   C378    1.380   .     A
C367   C381    1.406   .     A
C368   C381    1.409   .     A
C368   C374    1.380   .     A
C369   C382    1.409   .     A
C369   C376    1.380   .     A
C370   C384    1.406   .     A
C371   C383    1.406   .     A
C372   C383    1.409   .     A
C373   C384    1.409   .     A
C374   C387    1.406   .     A
C375   O440    1.299   .     A
C375   O443    1.293   .     A
C375   C380    1.445   .     S
C376   C385    1.406   .     A
C377   C385    1.409   .     A
C378   C387    1.409   .     A
C379   C386    1.445   .     S
C383   C399    1.445   .     S
C384   C398    1.445   .     S
C385   C397    1.445   .     S
C386   O441    1.299   .     A
C386   O442    1.293   .     A
C387   C396    1.445   .     S
C388   C400    1.491   .     S
C388   O422    1.399   .     S
C388   O309    1.216   1_655 S
C389   O425    1.399   .     S
C390   O427    1.399   .     S
C390   O314    1.216   1_655 S
C391   O429    1.399   .     S
C392   O431    1.399   .     S
C392   O430    1.216   .     D
C393   O432    1.216   .     D
C393   O433    1.399   .     S
C394   O434    1.216   .     D
C394   O436    1.399   .     S
C395   O437    1.216   .     D
C395   O438    1.399   .     S
C396   O444    1.299   .     A
C396   O416    1.293   .     A
C397   O414    1.299   .     A
C397   O415    1.293   .     A
C398   O420    1.293   .     A
C398   O417    1.299   .     A
C399   O418    1.299   .     A
C399   O419    1.293   .     A
C400   N298    1.378   1_655 A
C400   C1140   1.423   1_654 S
H401   O422    1.014   .     S
H402   O425    1.014   .     S
H403   O427    1.014   .     S
H404   O429    1.014   .     S
H405   O431    1.014   .     S
H406   O433    1.014   .     S
H407   O436    1.014   .     S
H408   O438    1.014   .     S
N409   Zn445   2.025   .     S
N410   Zn446   2.025   .     S
N411   Zn447   2.025   .     S
N412   Zn448   2.025   .     S
O413   Zn445   1.999   .     S
O414   Zn448   1.999   .     S
O415   Zn447   2.006   .     S
O416   Zn224   2.006   1_565 S
O417   Zn224   1.999   1_565 S
O418   Zn447   1.999   .     S
O419   Zn448   2.006   .     S
O420   Zn223   2.006   1_565 S
O423   C277    1.216   1_655 S
O424   Zn334   1.999   1_655 S
O428   C279    1.216   1_655 S
O435   Zn333   2.006   1_655 S
O439   Zn446   2.006   .     S
O440   Zn334   1.999   1_655 S
O441   Zn445   1.999   .     S
O442   Zn446   2.006   .     S
O443   Zn333   2.006   1_655 S
O444   Zn223   1.999   1_565 S
Br449  C473    1.934   .     S
Br450  C483    1.934   .     S
Br451  C484    1.940   .     S
Br452  C485    1.940   .     S
Br453  C486    1.934   .     S
Br454  C488    1.934   .     S
Br455  C489    1.940   .     S
Br456  C490    1.940   .     S
Br457  C474    1.934   .     S
Br458  C475    1.940   .     S
Br459  C477    1.940   .     S
Br460  C478    1.934   .     S
Br461  C479    1.934   .     S
Br462  C480    1.940   .     S
Br463  C481    1.940   .     S
Br464  C482    1.934   .     S
C465   C494    1.445   .     S
C465   O525    1.299   .     A
C465   O551    1.293   .     A
C466   C501    1.491   .     S
C466   N521    1.378   .     A
C466   C1027   1.423   1_455 S
C467   C502    1.491   .     S
C467   N634    1.378   .     A
C468   C503    1.491   .     S
C468   N521    1.378   .     A
C468   C1072   1.423   1_455 S
C469   N524    1.378   .     A
C469   C504    1.491   .     S
C470   C505    1.491   .     S
C470   C919    1.423   .     S
C470   N747    1.378   .     S
C471   C506    1.491   .     S
C471   N748    1.378   .     S
C472   N523    1.378   .     A
C472   C507    1.491   .     S
C472   C917    1.423   .     S
C473   C492    1.406   .     A
C473   C484    1.380   .     A
C474   C491    1.406   .     A
C474   C485    1.380   .     A
C475   C482    1.380   .     A
C475   C491    1.409   .     A
C476   C493    1.445   .     S
C476   O536    1.299   .     A
C476   O547    1.293   .     A
C477   C492    1.409   .     A
C477   C483    1.380   .     A
C478   C489    1.380   .     A
C478   C494    1.406   .     A
C479   C490    1.380   .     A
C479   C493    1.406   .     A
C480   C493    1.409   .     A
C480   C486    1.380   .     A
C481   C494    1.409   .     A
C481   C488    1.380   .     A
C482   C496    1.406   .     A
C483   C495    1.406   .     A
C484   C495    1.409   .     A
C485   C496    1.409   .     A
C486   C499    1.406   .     A
C487   O552    1.299   .     A
C487   O555    1.293   .     A
C487   C492    1.445   .     S
C488   C497    1.406   .     A
C489   C497    1.409   .     A
C490   C499    1.409   .     A
C491   C498    1.445   .     S
C495   C511    1.445   .     S
C496   C510    1.445   .     S
C497   C509    1.445   .     S
C498   O553    1.299   .     A
C498   O554    1.293   .     A
C499   C508    1.445   .     S
C500   C512    1.491   .     S
C500   O534    1.399   .     S
C500   O645    1.216   .     S
C501   O537    1.399   .     S
C501   O647    1.216   1_455 S
C502   O539    1.399   .     S
C502   O650    1.216   .     S
C503   O541    1.399   .     S
C503   O652    1.216   1_455 S
C504   O543    1.399   .     S
C504   O542    1.216   .     D
C505   O544    1.216   .     D
C505   O545    1.399   .     S
C506   O546    1.216   .     D
C506   O548    1.399   .     S
C507   O549    1.216   .     D
C507   O550    1.399   .     S
C508   O556    1.299   .     A
C508   O528    1.293   .     A
C509   O526    1.299   .     A
C509   O527    1.293   .     A
C510   O532    1.293   .     A
C510   O529    1.299   .     A
C511   O530    1.299   .     A
C511   O531    1.293   .     A
C512   N634    1.378   .     A
H513   O534    1.014   .     S
H514   O537    1.014   .     S
H515   O539    1.014   .     S
H516   O541    1.014   .     S
H517   O543    1.014   .     S
H518   O545    1.014   .     S
H519   O548    1.014   .     S
H520   O550    1.014   .     S
N521   Zn557   2.025   .     S
N522   C579    1.378   1_455 A
N522   Zn558   2.025   .     S
N522   C624    1.378   1_455 A
N523   C694    1.378   1_545 S
N523   Zn559   2.025   .     S
N524   Zn560   2.025   .     S
N524   C695    1.378   1_545 S
O525   Zn557   1.999   .     S
O526   Zn560   1.999   .     S
O527   Zn559   2.006   .     S
O528   Zn784   2.006   .     S
O529   Zn784   1.999   .     S
O530   Zn559   1.999   .     S
O531   Zn560   2.006   .     S
O532   Zn783   2.006   .     S
O533   C612    1.216   1_455 S
O535   C613    1.216   .     S
O536   Zn670   1.999   .     S
O538   C614    1.216   1_455 S
O540   C615    1.216   .     S
O547   Zn669   2.006   .     S
O551   Zn558   2.006   .     S
O552   Zn670   1.999   .     S
O553   Zn557   1.999   .     S
O554   Zn558   2.006   .     S
O555   Zn669   2.006   .     S
O556   Zn783   1.999   .     S
Zn557  O659    2.006   1_455 S
Zn557  O667    2.006   1_455 S
Zn558  O648    1.999   1_455 S
Zn558  O664    1.999   1_455 S
Zn559  O756    2.006   1_545 S
Zn559  O780    1.999   1_545 S
Zn560  O753    1.999   1_545 S
Zn560  O752    2.006   1_545 S
Br561  C585    1.934   .     S
Br562  C595    1.934   .     S
Br563  C596    1.940   .     S
Br564  C597    1.940   .     S
Br565  C598    1.934   .     S
Br566  C600    1.934   .     S
Br567  C601    1.940   .     S
Br568  C602    1.940   .     S
Br569  C586    1.934   .     S
Br570  C587    1.940   .     S
Br571  C589    1.940   .     S
Br572  C590    1.934   .     S
Br573  C591    1.934   .     S
Br574  C592    1.940   .     S
Br575  C593    1.940   .     S
Br576  C594    1.934   .     S
C577   C606    1.445   .     S
C577   O637    1.299   .     A
C577   O663    1.293   .     A
C578   C613    1.491   .     S
C578   N633    1.378   .     A
C578   C915    1.423   .     S
C579   C614    1.491   .     S
C579   N522    1.378   1_655 A
C579   C18     1.423   1_655 S
C580   C615    1.491   .     S
C580   N633    1.378   .     A
C580   C960    1.423   .     S
C581   N636    1.378   .     A
C581   C616    1.491   .     S
C582   C617    1.491   .     S
C582   C1031   1.423   .     S
C582   N859    1.378   .     S
C583   C618    1.491   .     S
C583   N860    1.378   .     S
C584   N635    1.378   .     A
C584   C619    1.491   .     S
C584   C1029   1.423   .     S
C585   C604    1.406   .     A
C585   C596    1.380   .     A
C586   C603    1.406   .     A
C586   C597    1.380   .     A
C587   C594    1.380   .     A
C587   C603    1.409   .     A
C588   C605    1.445   .     S
C588   O648    1.299   .     A
C588   O659    1.293   .     A
C589   C604    1.409   .     A
C589   C595    1.380   .     A
C590   C601    1.380   .     A
C590   C606    1.406   .     A
C591   C602    1.380   .     A
C591   C605    1.406   .     A
C592   C605    1.409   .     A
C592   C598    1.380   .     A
C593   C606    1.409   .     A
C593   C600    1.380   .     A
C594   C608    1.406   .     A
C595   C607    1.406   .     A
C596   C607    1.409   .     A
C597   C608    1.409   .     A
C598   C611    1.406   .     A
C599   O664    1.299   .     A
C599   O667    1.293   .     A
C599   C604    1.445   .     S
C600   C609    1.406   .     A
C601   C609    1.409   .     A
C602   C611    1.409   .     A
C603   C610    1.445   .     S
C607   C623    1.445   .     S
C608   C622    1.445   .     S
C609   C621    1.445   .     S
C610   O665    1.299   .     A
C610   O666    1.293   .     A
C611   C620    1.445   .     S
C612   C624    1.491   .     S
C612   O646    1.399   .     S
C612   O533    1.216   1_655 S
C613   O649    1.399   .     S
C614   O651    1.399   .     S
C614   O538    1.216   1_655 S
C615   O653    1.399   .     S
C616   O655    1.399   .     S
C616   O654    1.216   .     D
C617   O656    1.216   .     D
C617   O657    1.399   .     S
C618   O658    1.216   .     D
C618   O660    1.399   .     S
C619   O661    1.216   .     D
C619   O662    1.399   .     S
C620   O668    1.299   .     A
C620   O640    1.293   .     A
C621   O638    1.299   .     A
C621   O639    1.293   .     A
C622   O644    1.293   .     A
C622   O641    1.299   .     A
C623   O642    1.299   .     A
C623   O643    1.293   .     A
C624   N522    1.378   1_655 A
C624   C20     1.423   1_655 S
H625   O646    1.014   .     S
H626   O649    1.014   .     S
H627   O651    1.014   .     S
H628   O653    1.014   .     S
H629   O655    1.014   .     S
H630   O657    1.014   .     S
H631   O660    1.014   .     S
H632   O662    1.014   .     S
N633   Zn669   2.025   .     S
N634   Zn670   2.025   .     S
N635   C806    1.378   1_545 S
N635   Zn671   2.025   .     S
N636   Zn672   2.025   .     S
N636   C807    1.378   1_545 S
O637   Zn669   1.999   .     S
O638   Zn672   1.999   .     S
O639   Zn671   2.006   .     S
O640   Zn896   2.006   .     S
O641   Zn896   1.999   .     S
O642   Zn671   1.999   .     S
O643   Zn672   2.006   .     S
O644   Zn895   2.006   .     S
O647   C501    1.216   1_655 S
O648   Zn558   1.999   1_655 S
O652   C503    1.216   1_655 S
O659   Zn557   2.006   1_655 S
O663   Zn670   2.006   .     S
O664   Zn558   1.999   1_655 S
O665   Zn669   1.999   .     S
O666   Zn670   2.006   .     S
O667   Zn557   2.006   1_655 S
O668   Zn895   1.999   .     S
Zn671  O868    2.006   1_545 S
Zn671  O892    1.999   1_545 S
Zn672  O865    1.999   1_545 S
Zn672  O864    2.006   1_545 S
Br673  C697    1.934   .     S
Br674  C707    1.934   .     S
Br675  C708    1.940   .     S
Br676  C709    1.940   .     S
Br677  C710    1.934   .     S
Br678  C712    1.934   .     S
Br679  C713    1.940   .     S
Br680  C714    1.940   .     S
Br681  C698    1.934   .     S
Br682  C699    1.940   .     S
Br683  C701    1.940   .     S
Br684  C702    1.934   .     S
Br685  C703    1.934   .     S
Br686  C704    1.940   .     S
Br687  C705    1.940   .     S
Br688  C706    1.934   .     S
C689   C718    1.445   .     S
C689   O749    1.299   .     A
C689   O775    1.293   .     A
C690   C725    1.491   .     S
C690   N745    1.378   .     A
C690   C1251   1.423   1_455 S
C691   C726    1.491   .     S
C691   N858    1.378   .     A
C692   C727    1.491   .     S
C692   N745    1.378   .     A
C692   C1296   1.423   1_455 S
C693   N748    1.378   .     A
C693   C728    1.491   .     S
C694   C729    1.491   .     S
C694   C1143   1.423   .     S
C694   N523    1.378   1_565 S
C695   C730    1.491   .     S
C695   N524    1.378   1_565 S
C696   N747    1.378   .     A
C696   C731    1.491   .     S
C696   C1141   1.423   .     S
C697   C716    1.406   .     A
C697   C708    1.380   .     A
C698   C715    1.406   .     A
C698   C709    1.380   .     A
C699   C706    1.380   .     A
C699   C715    1.409   .     A
C700   C717    1.445   .     S
C700   O760    1.299   .     A
C700   O771    1.293   .     A
C701   C716    1.409   .     A
C701   C707    1.380   .     A
C702   C713    1.380   .     A
C702   C718    1.406   .     A
C703   C714    1.380   .     A
C703   C717    1.406   .     A
C704   C717    1.409   .     A
C704   C710    1.380   .     A
C705   C718    1.409   .     A
C705   C712    1.380   .     A
C706   C720    1.406   .     A
C707   C719    1.406   .     A
C708   C719    1.409   .     A
C709   C720    1.409   .     A
C710   C723    1.406   .     A
C711   O776    1.299   .     A
C711   O779    1.293   .     A
C711   C716    1.445   .     S
C712   C721    1.406   .     A
C713   C721    1.409   .     A
C714   C723    1.409   .     A
C715   C722    1.445   .     S
C719   C735    1.445   .     S
C720   C734    1.445   .     S
C721   C733    1.445   .     S
C722   O777    1.299   .     A
C722   O778    1.293   .     A
C723   C732    1.445   .     S
C724   C736    1.491   .     S
C724   O758    1.399   .     S
C724   O869    1.216   .     S
C725   O761    1.399   .     S
C725   O871    1.216   1_455 S
C726   O763    1.399   .     S
C726   O874    1.216   .     S
C727   O765    1.399   .     S
C727   O876    1.216   1_455 S
C728   O767    1.399   .     S
C728   O766    1.216   .     D
C729   O768    1.216   .     D
C729   O769    1.399   .     S
C730   O770    1.216   .     D
C730   O772    1.399   .     S
C731   O773    1.216   .     D
C731   O774    1.399   .     S
C732   O780    1.299   .     A
C732   O752    1.293   .     A
C733   O750    1.299   .     A
C733   O751    1.293   .     A
C734   O756    1.293   .     A
C734   O753    1.299   .     A
C735   O754    1.299   .     A
C735   O755    1.293   .     A
C736   N858    1.378   .     A
H737   O758    1.014   .     S
H738   O761    1.014   .     S
H739   O763    1.014   .     S
H740   O765    1.014   .     S
H741   O767    1.014   .     S
H742   O769    1.014   .     S
H743   O772    1.014   .     S
H744   O774    1.014   .     S
N745   Zn781   2.025   .     S
N746   C803    1.378   1_455 A
N746   Zn782   2.025   .     S
N746   C848    1.378   1_455 A
N747   Zn783   2.025   .     S
N748   Zn784   2.025   .     S
O749   Zn781   1.999   .     S
O750   Zn784   1.999   .     S
O751   Zn783   2.006   .     S
O752   Zn560   2.006   1_565 S
O753   Zn560   1.999   1_565 S
O754   Zn783   1.999   .     S
O755   Zn784   2.006   .     S
O756   Zn559   2.006   1_565 S
O757   C836    1.216   1_455 S
O759   C837    1.216   .     S
O760   Zn894   1.999   .     S
O762   C838    1.216   1_455 S
O764   C839    1.216   .     S
O771   Zn893   2.006   .     S
O775   Zn782   2.006   .     S
O776   Zn894   1.999   .     S
O777   Zn781   1.999   .     S
O778   Zn782   2.006   .     S
O779   Zn893   2.006   .     S
O780   Zn559   1.999   1_565 S
Zn781  O883    2.006   1_455 S
Zn781  O891    2.006   1_455 S
Zn782  O872    1.999   1_455 S
Zn782  O888    1.999   1_455 S
Br785  C809    1.934   .     S
Br786  C819    1.934   .     S
Br787  C820    1.940   .     S
Br788  C821    1.940   .     S
Br789  C822    1.934   .     S
Br790  C824    1.934   .     S
Br791  C825    1.940   .     S
Br792  C826    1.940   .     S
Br793  C810    1.934   .     S
Br794  C811    1.940   .     S
Br795  C813    1.940   .     S
Br796  C814    1.934   .     S
Br797  C815    1.934   .     S
Br798  C816    1.940   .     S
Br799  C817    1.940   .     S
Br800  C818    1.934   .     S
C801   C830    1.445   .     S
C801   O861    1.299   .     A
C801   O887    1.293   .     A
C802   C837    1.491   .     S
C802   N857    1.378   .     A
C802   C1139   1.423   .     S
C803   C838    1.491   .     S
C803   N746    1.378   1_655 A
C803   C242    1.423   1_655 S
C804   C839    1.491   .     S
C804   N857    1.378   .     A
C804   C1184   1.423   .     S
C805   N860    1.378   .     A
C805   C840    1.491   .     S
C806   C841    1.491   .     S
C806   C1255   1.423   .     S
C806   N635    1.378   1_565 S
C807   C842    1.491   .     S
C807   N636    1.378   1_565 S
C808   N859    1.378   .     A
C808   C843    1.491   .     S
C808   C1253   1.423   .     S
C809   C828    1.406   .     A
C809   C820    1.380   .     A
C810   C827    1.406   .     A
C810   C821    1.380   .     A
C811   C818    1.380   .     A
C811   C827    1.409   .     A
C812   C829    1.445   .     S
C812   O872    1.299   .     A
C812   O883    1.293   .     A
C813   C828    1.409   .     A
C813   C819    1.380   .     A
C814   C825    1.380   .     A
C814   C830    1.406   .     A
C815   C826    1.380   .     A
C815   C829    1.406   .     A
C816   C829    1.409   .     A
C816   C822    1.380   .     A
C817   C830    1.409   .     A
C817   C824    1.380   .     A
C818   C832    1.406   .     A
C819   C831    1.406   .     A
C820   C831    1.409   .     A
C821   C832    1.409   .     A
C822   C835    1.406   .     A
C823   O888    1.299   .     A
C823   O891    1.293   .     A
C823   C828    1.445   .     S
C824   C833    1.406   .     A
C825   C833    1.409   .     A
C826   C835    1.409   .     A
C827   C834    1.445   .     S
C831   C847    1.445   .     S
C832   C846    1.445   .     S
C833   C845    1.445   .     S
C834   O889    1.299   .     A
C834   O890    1.293   .     A
C835   C844    1.445   .     S
C836   C848    1.491   .     S
C836   O870    1.399   .     S
C836   O757    1.216   1_655 S
C837   O873    1.399   .     S
C838   O875    1.399   .     S
C838   O762    1.216   1_655 S
C839   O877    1.399   .     S
C840   O879    1.399   .     S
C840   O878    1.216   .     D
C841   O880    1.216   .     D
C841   O881    1.399   .     S
C842   O882    1.216   .     D
C842   O884    1.399   .     S
C843   O885    1.216   .     D
C843   O886    1.399   .     S
C844   O892    1.299   .     A
C844   O864    1.293   .     A
C845   O862    1.299   .     A
C845   O863    1.293   .     A
C846   O868    1.293   .     A
C846   O865    1.299   .     A
C847   O866    1.299   .     A
C847   O867    1.293   .     A
C848   N746    1.378   1_655 A
C848   C244    1.423   1_655 S
H849   O870    1.014   .     S
H850   O873    1.014   .     S
H851   O875    1.014   .     S
H852   O877    1.014   .     S
H853   O879    1.014   .     S
H854   O881    1.014   .     S
H855   O884    1.014   .     S
H856   O886    1.014   .     S
N857   Zn893   2.025   .     S
N858   Zn894   2.025   .     S
N859   Zn895   2.025   .     S
N860   Zn896   2.025   .     S
O861   Zn893   1.999   .     S
O862   Zn896   1.999   .     S
O863   Zn895   2.006   .     S
O864   Zn672   2.006   1_565 S
O865   Zn672   1.999   1_565 S
O866   Zn895   1.999   .     S
O867   Zn896   2.006   .     S
O868   Zn671   2.006   1_565 S
O871   C725    1.216   1_655 S
O872   Zn782   1.999   1_655 S
O876   C727    1.216   1_655 S
O883   Zn781   2.006   1_655 S
O887   Zn894   2.006   .     S
O888   Zn782   1.999   1_655 S
O889   Zn893   1.999   .     S
O890   Zn894   2.006   .     S
O891   Zn781   2.006   1_655 S
O892   Zn671   1.999   1_565 S
Br897  C921    1.934   .     S
Br898  C931    1.934   .     S
Br899  C932    1.940   .     S
Br900  C933    1.940   .     S
Br901  C934    1.934   .     S
Br902  C936    1.934   .     S
Br903  C937    1.940   .     S
Br904  C938    1.940   .     S
Br905  C922    1.934   .     S
Br906  C923    1.940   .     S
Br907  C925    1.940   .     S
Br908  C926    1.934   .     S
Br909  C927    1.934   .     S
Br910  C928    1.940   .     S
Br911  C929    1.940   .     S
Br912  C930    1.934   .     S
C913   C942    1.445   .     S
C913   O973    1.299   .     A
C913   O999    1.293   .     A
C914   C949    1.491   .     S
C914   N969    1.378   .     A
C914   C131    1.423   1_456 S
C915   C950    1.491   .     S
C915   N1082   1.378   .     A
C916   C951    1.491   .     S
C916   N969    1.378   .     A
C916   C176    1.423   1_456 S
C917   N972    1.378   .     A
C917   C952    1.491   .     S
C918   C953    1.491   .     S
C918   C23     1.423   1_556 S
C918   N1195   1.378   .     S
C919   C954    1.491   .     S
C919   N1196   1.378   .     S
C920   N971    1.378   .     A
C920   C955    1.491   .     S
C920   C21     1.423   1_556 S
C921   C940    1.406   .     A
C921   C932    1.380   .     A
C922   C939    1.406   .     A
C922   C933    1.380   .     A
C923   C930    1.380   .     A
C923   C939    1.409   .     A
C924   C941    1.445   .     S
C924   O984    1.299   .     A
C924   O995    1.293   .     A
C925   C940    1.409   .     A
C925   C931    1.380   .     A
C926   C937    1.380   .     A
C926   C942    1.406   .     A
C927   C938    1.380   .     A
C927   C941    1.406   .     A
C928   C941    1.409   .     A
C928   C934    1.380   .     A
C929   C942    1.409   .     A
C929   C936    1.380   .     A
C930   C944    1.406   .     A
C931   C943    1.406   .     A
C932   C943    1.409   .     A
C933   C944    1.409   .     A
C934   C947    1.406   .     A
C935   O1000   1.299   .     A
C935   O1003   1.293   .     A
C935   C940    1.445   .     S
C936   C945    1.406   .     A
C937   C945    1.409   .     A
C938   C947    1.409   .     A
C939   C946    1.445   .     S
C943   C959    1.445   .     S
C944   C958    1.445   .     S
C945   C957    1.445   .     S
C946   O1001   1.299   .     A
C946   O1002   1.293   .     A
C947   C956    1.445   .     S
C948   C960    1.491   .     S
C948   O982    1.399   .     S
C948   O1093   1.216   .     S
C949   O985    1.399   .     S
C949   O1095   1.216   1_455 S
C950   O987    1.399   .     S
C950   O1098   1.216   .     S
C951   O989    1.399   .     S
C951   O1100   1.216   1_455 S
C952   O991    1.399   .     S
C952   O990    1.216   .     D
C953   O992    1.216   .     D
C953   O993    1.399   .     S
C954   O994    1.216   .     D
C954   O996    1.399   .     S
C955   O997    1.216   .     D
C955   O998    1.399   .     S
C956   O1004   1.299   .     A
C956   O976    1.293   .     A
C957   O974    1.299   .     A
C957   O975    1.293   .     A
C958   O980    1.293   .     A
C958   O977    1.299   .     A
C959   O978    1.299   .     A
C959   O979    1.293   .     A
C960   N1082   1.378   .     A
H961   O982    1.014   .     S
H962   O985    1.014   .     S
H963   O987    1.014   .     S
H964   O989    1.014   .     S
H965   O991    1.014   .     S
H966   O993    1.014   .     S
H967   O996    1.014   .     S
H968   O998    1.014   .     S
N969   Zn1005  2.025   .     S
N970   C1027   1.378   1_455 A
N970   Zn1006  2.025   .     S
N970   C1072   1.378   1_455 A
N971   C1142   1.378   1_545 S
N971   Zn1007  2.025   .     S
N972   Zn1008  2.025   .     S
N972   C1143   1.378   1_545 S
O973   Zn1005  1.999   .     S
O974   Zn1008  1.999   .     S
O975   Zn1007  2.006   .     S
O976   Zn1232  2.006   .     S
O977   Zn1232  1.999   .     S
O978   Zn1007  1.999   .     S
O979   Zn1008  2.006   .     S
O980   Zn1231  2.006   .     S
O981   C1060   1.216   1_455 S
O983   C1061   1.216   .     S
O984   Zn1118  1.999   .     S
O986   C1062   1.216   1_455 S
O988   C1063   1.216   .     S
O995   Zn1117  2.006   .     S
O999   Zn1006  2.006   .     S
O1000  Zn1118  1.999   .     S
O1001  Zn1005  1.999   .     S
O1002  Zn1006  2.006   .     S
O1003  Zn1117  2.006   .     S
O1004  Zn1231  1.999   .     S
Zn1005 O1107   2.006   1_455 S
Zn1005 O1115   2.006   1_455 S
Zn1006 O1096   1.999   1_455 S
Zn1006 O1112   1.999   1_455 S
Zn1007 O1204   2.006   1_545 S
Zn1007 O1228   1.999   1_545 S
Zn1008 O1201   1.999   1_545 S
Zn1008 O1200   2.006   1_545 S
Br1009 C1033   1.934   .     S
Br1010 C1043   1.934   .     S
Br1011 C1044   1.940   .     S
Br1012 C1045   1.940   .     S
Br1013 C1046   1.934   .     S
Br1014 C1048   1.934   .     S
Br1015 C1049   1.940   .     S
Br1016 C1050   1.940   .     S
Br1017 C1034   1.934   .     S
Br1018 C1035   1.940   .     S
Br1019 C1037   1.940   .     S
Br1020 C1038   1.934   .     S
Br1021 C1039   1.934   .     S
Br1022 C1040   1.940   .     S
Br1023 C1041   1.940   .     S
Br1024 C1042   1.934   .     S
C1025  C1054   1.445   .     S
C1025  O1085   1.299   .     A
C1025  O1111   1.293   .     A
C1026  C1061   1.491   .     S
C1026  N1081   1.378   .     A
C1026  C19     1.423   1_556 S
C1027  C1062   1.491   .     S
C1027  N970    1.378   1_655 A
C1027  C466    1.423   1_655 S
C1028  C1063   1.491   .     S
C1028  N1081   1.378   .     A
C1028  C64     1.423   1_556 S
C1029  N1084   1.378   .     A
C1029  C1064   1.491   .     S
C1030  C1065   1.491   .     S
C1030  C135    1.423   1_556 S
C1030  N1307   1.378   .     S
C1031  C1066   1.491   .     S
C1031  N1308   1.378   .     S
C1032  N1083   1.378   .     A
C1032  C1067   1.491   .     S
C1032  C133    1.423   1_556 S
C1033  C1052   1.406   .     A
C1033  C1044   1.380   .     A
C1034  C1051   1.406   .     A
C1034  C1045   1.380   .     A
C1035  C1042   1.380   .     A
C1035  C1051   1.409   .     A
C1036  C1053   1.445   .     S
C1036  O1096   1.299   .     A
C1036  O1107   1.293   .     A
C1037  C1052   1.409   .     A
C1037  C1043   1.380   .     A
C1038  C1049   1.380   .     A
C1038  C1054   1.406   .     A
C1039  C1050   1.380   .     A
C1039  C1053   1.406   .     A
C1040  C1053   1.409   .     A
C1040  C1046   1.380   .     A
C1041  C1054   1.409   .     A
C1041  C1048   1.380   .     A
C1042  C1056   1.406   .     A
C1043  C1055   1.406   .     A
C1044  C1055   1.409   .     A
C1045  C1056   1.409   .     A
C1046  C1059   1.406   .     A
C1047  O1112   1.299   .     A
C1047  O1115   1.293   .     A
C1047  C1052   1.445   .     S
C1048  C1057   1.406   .     A
C1049  C1057   1.409   .     A
C1050  C1059   1.409   .     A
C1051  C1058   1.445   .     S
C1055  C1071   1.445   .     S
C1056  C1070   1.445   .     S
C1057  C1069   1.445   .     S
C1058  O1113   1.299   .     A
C1058  O1114   1.293   .     A
C1059  C1068   1.445   .     S
C1060  C1072   1.491   .     S
C1060  O1094   1.399   .     S
C1060  O981    1.216   1_655 S
C1061  O1097   1.399   .     S
C1062  O1099   1.399   .     S
C1062  O986    1.216   1_655 S
C1063  O1101   1.399   .     S
C1064  O1103   1.399   .     S
C1064  O1102   1.216   .     D
C1065  O1104   1.216   .     D
C1065  O1105   1.399   .     S
C1066  O1106   1.216   .     D
C1066  O1108   1.399   .     S
C1067  O1109   1.216   .     D
C1067  O1110   1.399   .     S
C1068  O1116   1.299   .     A
C1068  O1088   1.293   .     A
C1069  O1086   1.299   .     A
C1069  O1087   1.293   .     A
C1070  O1092   1.293   .     A
C1070  O1089   1.299   .     A
C1071  O1090   1.299   .     A
C1071  O1091   1.293   .     A
C1072  N970    1.378   1_655 A
C1072  C468    1.423   1_655 S
H1073  O1094   1.014   .     S
H1074  O1097   1.014   .     S
H1075  O1099   1.014   .     S
H1076  O1101   1.014   .     S
H1077  O1103   1.014   .     S
H1078  O1105   1.014   .     S
H1079  O1108   1.014   .     S
H1080  O1110   1.014   .     S
N1081  Zn1117  2.025   .     S
N1082  Zn1118  2.025   .     S
N1083  C1254   1.378   1_545 S
N1083  Zn1119  2.025   .     S
N1084  Zn1120  2.025   .     S
N1084  C1255   1.378   1_545 S
O1085  Zn1117  1.999   .     S
O1086  Zn1120  1.999   .     S
O1087  Zn1119  2.006   .     S
O1088  Zn1344  2.006   .     S
O1089  Zn1344  1.999   .     S
O1090  Zn1119  1.999   .     S
O1091  Zn1120  2.006   .     S
O1092  Zn1343  2.006   .     S
O1095  C949    1.216   1_655 S
O1096  Zn1006  1.999   1_655 S
O1100  C951    1.216   1_655 S
O1107  Zn1005  2.006   1_655 S
O1111  Zn1118  2.006   .     S
O1112  Zn1006  1.999   1_655 S
O1113  Zn1117  1.999   .     S
O1114  Zn1118  2.006   .     S
O1115  Zn1005  2.006   1_655 S
O1116  Zn1343  1.999   .     S
Zn1119 O1316   2.006   1_545 S
Zn1119 O1340   1.999   1_545 S
Zn1120 O1313   1.999   1_545 S
Zn1120 O1312   2.006   1_545 S
Br1121 C1145   1.934   .     S
Br1122 C1155   1.934   .     S
Br1123 C1156   1.940   .     S
Br1124 C1157   1.940   .     S
Br1125 C1158   1.934   .     S
Br1126 C1160   1.934   .     S
Br1127 C1161   1.940   .     S
Br1128 C1162   1.940   .     S
Br1129 C1146   1.934   .     S
Br1130 C1147   1.940   .     S
Br1131 C1149   1.940   .     S
Br1132 C1150   1.934   .     S
Br1133 C1151   1.934   .     S
Br1134 C1152   1.940   .     S
Br1135 C1153   1.940   .     S
Br1136 C1154   1.934   .     S
C1137  C1166   1.445   .     S
C1137  O1197   1.299   .     A
C1137  O1223   1.293   .     A
C1138  C1173   1.491   .     S
C1138  N1193   1.378   .     A
C1138  C355    1.423   1_456 S
C1139  C1174   1.491   .     S
C1139  N1306   1.378   .     A
C1140  C1175   1.491   .     S
C1140  N1193   1.378   .     A
C1140  C400    1.423   1_456 S
C1141  N1196   1.378   .     A
C1141  C1176   1.491   .     S
C1142  C1177   1.491   .     S
C1142  C247    1.423   1_556 S
C1142  N971    1.378   1_565 S
C1143  C1178   1.491   .     S
C1143  N972    1.378   1_565 S
C1144  N1195   1.378   .     A
C1144  C1179   1.491   .     S
C1144  C245    1.423   1_556 S
C1145  C1164   1.406   .     A
C1145  C1156   1.380   .     A
C1146  C1163   1.406   .     A
C1146  C1157   1.380   .     A
C1147  C1154   1.380   .     A
C1147  C1163   1.409   .     A
C1148  C1165   1.445   .     S
C1148  O1208   1.299   .     A
C1148  O1219   1.293   .     A
C1149  C1164   1.409   .     A
C1149  C1155   1.380   .     A
C1150  C1161   1.380   .     A
C1150  C1166   1.406   .     A
C1151  C1162   1.380   .     A
C1151  C1165   1.406   .     A
C1152  C1165   1.409   .     A
C1152  C1158   1.380   .     A
C1153  C1166   1.409   .     A
C1153  C1160   1.380   .     A
C1154  C1168   1.406   .     A
C1155  C1167   1.406   .     A
C1156  C1167   1.409   .     A
C1157  C1168   1.409   .     A
C1158  C1171   1.406   .     A
C1159  O1224   1.299   .     A
C1159  O1227   1.293   .     A
C1159  C1164   1.445   .     S
C1160  C1169   1.406   .     A
C1161  C1169   1.409   .     A
C1162  C1171   1.409   .     A
C1163  C1170   1.445   .     S
C1167  C1183   1.445   .     S
C1168  C1182   1.445   .     S
C1169  C1181   1.445   .     S
C1170  O1225   1.299   .     A
C1170  O1226   1.293   .     A
C1171  C1180   1.445   .     S
C1172  C1184   1.491   .     S
C1172  O1206   1.399   .     S
C1172  O1317   1.216   .     S
C1173  O1209   1.399   .     S
C1173  O1319   1.216   1_455 S
C1174  O1211   1.399   .     S
C1174  O1322   1.216   .     S
C1175  O1213   1.399   .     S
C1175  O1324   1.216   1_455 S
C1176  O1215   1.399   .     S
C1176  O1214   1.216   .     D
C1177  O1216   1.216   .     D
C1177  O1217   1.399   .     S
C1178  O1218   1.216   .     D
C1178  O1220   1.399   .     S
C1179  O1221   1.216   .     D
C1179  O1222   1.399   .     S
C1180  O1228   1.299   .     A
C1180  O1200   1.293   .     A
C1181  O1198   1.299   .     A
C1181  O1199   1.293   .     A
C1182  O1204   1.293   .     A
C1182  O1201   1.299   .     A
C1183  O1202   1.299   .     A
C1183  O1203   1.293   .     A
C1184  N1306   1.378   .     A
H1185  O1206   1.014   .     S
H1186  O1209   1.014   .     S
H1187  O1211   1.014   .     S
H1188  O1213   1.014   .     S
H1189  O1215   1.014   .     S
H1190  O1217   1.014   .     S
H1191  O1220   1.014   .     S
H1192  O1222   1.014   .     S
N1193  Zn1229  2.025   .     S
N1194  C1251   1.378   1_455 A
N1194  Zn1230  2.025   .     S
N1194  C1296   1.378   1_455 A
N1195  Zn1231  2.025   .     S
N1196  Zn1232  2.025   .     S
O1197  Zn1229  1.999   .     S
O1198  Zn1232  1.999   .     S
O1199  Zn1231  2.006   .     S
O1200  Zn1008  2.006   1_565 S
O1201  Zn1008  1.999   1_565 S
O1202  Zn1231  1.999   .     S
O1203  Zn1232  2.006   .     S
O1204  Zn1007  2.006   1_565 S
O1205  C1284   1.216   1_455 S
O1207  C1285   1.216   .     S
O1208  Zn1342  1.999   .     S
O1210  C1286   1.216   1_455 S
O1212  C1287   1.216   .     S
O1219  Zn1341  2.006   .     S
O1223  Zn1230  2.006   .     S
O1224  Zn1342  1.999   .     S
O1225  Zn1229  1.999   .     S
O1226  Zn1230  2.006   .     S
O1227  Zn1341  2.006   .     S
O1228  Zn1007  1.999   1_565 S
Zn1229 O1331   2.006   1_455 S
Zn1229 O1339   2.006   1_455 S
Zn1230 O1320   1.999   1_455 S
Zn1230 O1336   1.999   1_455 S
Br1233 C1257   1.934   .     S
Br1234 C1267   1.934   .     S
Br1235 C1268   1.940   .     S
Br1236 C1269   1.940   .     S
Br1237 C1270   1.934   .     S
Br1238 C1272   1.934   .     S
Br1239 C1273   1.940   .     S
Br1240 C1274   1.940   .     S
Br1241 C1258   1.934   .     S
Br1242 C1259   1.940   .     S
Br1243 C1261   1.940   .     S
Br1244 C1262   1.934   .     S
Br1245 C1263   1.934   .     S
Br1246 C1264   1.940   .     S
Br1247 C1265   1.940   .     S
Br1248 C1266   1.934   .     S
C1249  C1278   1.445   .     S
C1249  O1309   1.299   .     A
C1249  O1335   1.293   .     A
C1250  C1285   1.491   .     S
C1250  N1305   1.378   .     A
C1250  C243    1.423   1_556 S
C1251  C1286   1.491   .     S
C1251  N1194   1.378   1_655 A
C1251  C690    1.423   1_655 S
C1252  C1287   1.491   .     S
C1252  N1305   1.378   .     A
C1252  C288    1.423   1_556 S
C1253  N1308   1.378   .     A
C1253  C1288   1.491   .     S
C1254  C1289   1.491   .     S
C1254  C359    1.423   1_556 S
C1254  N1083   1.378   1_565 S
C1255  C1290   1.491   .     S
C1255  N1084   1.378   1_565 S
C1256  N1307   1.378   .     A
C1256  C1291   1.491   .     S
C1256  C357    1.423   1_556 S
C1257  C1276   1.406   .     A
C1257  C1268   1.380   .     A
C1258  C1275   1.406   .     A
C1258  C1269   1.380   .     A
C1259  C1266   1.380   .     A
C1259  C1275   1.409   .     A
C1260  C1277   1.445   .     S
C1260  O1320   1.299   .     A
C1260  O1331   1.293   .     A
C1261  C1276   1.409   .     A
C1261  C1267   1.380   .     A
C1262  C1273   1.380   .     A
C1262  C1278   1.406   .     A
C1263  C1274   1.380   .     A
C1263  C1277   1.406   .     A
C1264  C1277   1.409   .     A
C1264  C1270   1.380   .     A
C1265  C1278   1.409   .     A
C1265  C1272   1.380   .     A
C1266  C1280   1.406   .     A
C1267  C1279   1.406   .     A
C1268  C1279   1.409   .     A
C1269  C1280   1.409   .     A
C1270  C1283   1.406   .     A
C1271  O1336   1.299   .     A
C1271  O1339   1.293   .     A
C1271  C1276   1.445   .     S
C1272  C1281   1.406   .     A
C1273  C1281   1.409   .     A
C1274  C1283   1.409   .     A
C1275  C1282   1.445   .     S
C1279  C1295   1.445   .     S
C1280  C1294   1.445   .     S
C1281  C1293   1.445   .     S
C1282  O1337   1.299   .     A
C1282  O1338   1.293   .     A
C1283  C1292   1.445   .     S
C1284  C1296   1.491   .     S
C1284  O1318   1.399   .     S
C1284  O1205   1.216   1_655 S
C1285  O1321   1.399   .     S
C1286  O1323   1.399   .     S
C1286  O1210   1.216   1_655 S
C1287  O1325   1.399   .     S
C1288  O1327   1.399   .     S
C1288  O1326   1.216   .     D
C1289  O1328   1.216   .     D
C1289  O1329   1.399   .     S
C1290  O1330   1.216   .     D
C1290  O1332   1.399   .     S
C1291  O1333   1.216   .     D
C1291  O1334   1.399   .     S
C1292  O1340   1.299   .     A
C1292  O1312   1.293   .     A
C1293  O1310   1.299   .     A
C1293  O1311   1.293   .     A
C1294  O1316   1.293   .     A
C1294  O1313   1.299   .     A
C1295  O1314   1.299   .     A
C1295  O1315   1.293   .     A
C1296  N1194   1.378   1_655 A
C1296  C692    1.423   1_655 S
H1297  O1318   1.014   .     S
H1298  O1321   1.014   .     S
H1299  O1323   1.014   .     S
H1300  O1325   1.014   .     S
H1301  O1327   1.014   .     S
H1302  O1329   1.014   .     S
H1303  O1332   1.014   .     S
H1304  O1334   1.014   .     S
N1305  Zn1341  2.025   .     S
N1306  Zn1342  2.025   .     S
N1307  Zn1343  2.025   .     S
N1308  Zn1344  2.025   .     S
O1309  Zn1341  1.999   .     S
O1310  Zn1344  1.999   .     S
O1311  Zn1343  2.006   .     S
O1312  Zn1120  2.006   1_565 S
O1313  Zn1120  1.999   1_565 S
O1314  Zn1343  1.999   .     S
O1315  Zn1344  2.006   .     S
O1316  Zn1119  2.006   1_565 S
O1319  C1173   1.216   1_655 S
O1320  Zn1230  1.999   1_655 S
O1324  C1175   1.216   1_655 S
O1331  Zn1229  2.006   1_655 S
O1335  Zn1342  2.006   .     S
O1336  Zn1230  1.999   1_655 S
O1337  Zn1341  1.999   .     S
O1338  Zn1342  2.006   .     S
O1339  Zn1229  2.006   1_655 S
O1340  Zn1119  1.999   1_565 S
