data_str_m2_o1_o18_pcu_sym.183
_audit_creation_date              2020-01-03
_audit_creation_method            'Materials Studio'
_symmetry_space_group_name_H-M    'P1'
_symmetry_Int_Tables_number       1
_symmetry_cell_setting            triclinic
loop_
_symmetry_equiv_pos_as_xyz
  x,y,z
_cell_length_a                    28.5950
_cell_length_b                    32.4981
_cell_length_c                    30.8388
_cell_angle_alpha                 89.4340
_cell_angle_beta                  74.7663
_cell_angle_gamma                 89.6618
loop_
_atom_site_label
_atom_site_type_symbol
_atom_site_fract_x
_atom_site_fract_y
_atom_site_fract_z
_atom_site_U_iso_or_equiv
_atom_site_adp_type
_atom_site_occupancy
C1     C     0.00008   0.08738   0.25026   0.00000  Uiso   1.00
C2     C     0.00003   0.24595   0.24944   0.00000  Uiso   1.00
C3     C     0.19501   0.15772   0.04760   0.00000  Uiso   1.00
C4     C     0.13756   0.16686   0.45234   0.00000  Uiso   1.00
C5     C     0.24246   0.14801   0.02509   0.00000  Uiso   1.00
C6     C     0.09043   0.17765   0.47452   0.00000  Uiso   1.00
C7     C     0.29677   0.02199   0.23730   0.00000  Uiso   1.00
C8     C     0.03728   0.31137   0.26122   0.00000  Uiso   1.00
C9     C     0.29657   0.31278   0.23650   0.00000  Uiso   1.00
C10    C     0.03764   0.02057   0.26177   0.00000  Uiso   1.00
C11    C     0.00003   0.29058   0.24893   0.00000  Uiso   1.00
C12    C     0.00046   0.04277   0.24997   0.00000  Uiso   1.00
C13    C     0.18352   0.14132   0.27839   0.00000  Uiso   1.00
C14    C     0.14980   0.19207   0.22167   0.00000  Uiso   1.00
C15    C     0.13398   0.14136   0.27839   0.00000  Uiso   1.00
C16    C     0.19935   0.19200   0.22164   0.00000  Uiso   1.00
C17    C     0.30618   0.16633   0.33620   0.00000  Uiso   1.00
C18    C     0.02711   0.16664   0.16385   0.00000  Uiso   1.00
C19    C     0.29114   0.16291   0.38557   0.00000  Uiso   1.00
C20    C     0.04200   0.16826   0.11449   0.00000  Uiso   1.00
C21    C     0.30574   0.14102   0.45616   0.00000  Uiso   1.00
C22    C     0.02781   0.18812   0.04320   0.00000  Uiso   1.00
C23    C     0.32217   0.14622   0.40977   0.00000  Uiso   1.00
C24    C     0.01159   0.18515   0.08978   0.00000  Uiso   1.00
C25    C     0.24349   0.17405   0.40853   0.00000  Uiso   1.00
C26    C     0.08859   0.15433   0.09189   0.00000  Uiso   1.00
C27    C     0.22413   0.16151   0.45377   0.00000  Uiso   1.00
C28    C     0.10844   0.16500   0.04616   0.00000  Uiso   1.00
C29    C     0.25727   0.14918   0.47836   0.00000  Uiso   1.00
C30    C     0.07575   0.17784   0.02123   0.00000  Uiso   1.00
C31    C     0.17372   0.16362   0.47607   0.00000  Uiso   1.00
C32    C     0.15879   0.16146   0.02393   0.00000  Uiso   1.00
Cu33   Cu    0.04689   0.16667   0.25000   0.00000  Uiso   1.00
Cu34   Cu    0.28645   0.16666   0.25000   0.00000  Uiso   1.00
H35    H     0.26859   0.14254   0.04440   0.00000  Uiso   1.00
H36    H     0.06454   0.18341   0.45505   0.00000  Uiso   1.00
H37    H     0.33077   0.13009   0.47472   0.00000  Uiso   1.00
H38    H     0.00314   0.19917   0.02432   0.00000  Uiso   1.00
H39    H     0.26820   0.03865   0.22748   0.00000  Uiso   1.00
H40    H     0.06590   0.29474   0.27100   0.00000  Uiso   1.00
N41    N     0.11736   0.16668   0.24999   0.00000  Uiso   1.00
N42    N     0.21597   0.16666   0.25001   0.00000  Uiso   1.00
O43    O     0.03958   0.10655   0.25000   0.00000  Uiso   1.00
O44    O     0.29375   0.22678   0.25000   0.00000  Uiso   1.00
O45    O     0.29372   0.10654   0.25001   0.00000  Uiso   1.00
O46    O     0.03961   0.22679   0.25000   0.00000  Uiso   1.00
O47    O     0.01852   0.16668   0.31491   0.00000  Uiso   1.00
O48    O     0.31481   0.16666   0.18509   0.00000  Uiso   1.00
O49    O     0.27267   0.16667   0.31492   0.00000  Uiso   1.00
O50    O     0.06067   0.16667   0.18508   0.00000  Uiso   1.00
O51    O     0.11233   0.12745   0.11414   0.00000  Uiso   1.00
C52    C     0.10853   0.08650   0.10008   0.00000  Uiso   1.00
H53    H     0.14552   0.07289   0.09097   0.00000  Uiso   1.00
H54    H     0.09413   0.08367   0.06986   0.00000  Uiso   1.00
C55    C     0.07663   0.06164   0.13898   0.00000  Uiso   1.00
H56    H     0.09155   0.06368   0.16873   0.00000  Uiso   1.00
H57    H     0.03938   0.07476   0.14800   0.00000  Uiso   1.00
C58    C     0.07420   0.01649   0.12662   0.00000  Uiso   1.00
H59    H     0.05850   0.01363   0.09746   0.00000  Uiso   1.00
H60    H     0.05090   0.33270   0.15555   0.00000  Uiso   1.00
H61    H     0.11099   0.00250   0.11818   0.00000  Uiso   1.00
O62    O     0.21742   0.19950   0.38714   0.00000  Uiso   1.00
C63    C     0.22205   0.24063   0.39976   0.00000  Uiso   1.00
H64    H     0.25978   0.25167   0.38519   0.00000  Uiso   1.00
H65    H     0.21294   0.24383   0.43702   0.00000  Uiso   1.00
C66    C     0.18679   0.26793   0.38275   0.00000  Uiso   1.00
H67    H     0.14918   0.25660   0.39680   0.00000  Uiso   1.00
H68    H     0.18879   0.29985   0.39475   0.00000  Uiso   1.00
C69    C     0.19850   0.26855   0.33153   0.00000  Uiso   1.00
H70    H     0.23588   0.28001   0.31725   0.00000  Uiso   1.00
H71    H     0.17284   0.28938   0.32051   0.00000  Uiso   1.00
H72    H     0.19517   0.23724   0.31856   0.00000  Uiso   1.00
F73    F     0.29938   0.19808   0.11038   0.00000  Uiso   1.00
F74    F     0.03517   0.13555   0.38893   0.00000  Uiso   1.00
F75    F     0.18647   0.16698   0.09180   0.00000  Uiso   1.00
F76    F     0.14607   0.15651   0.40842   0.00000  Uiso   1.00
F77    F     0.26072   0.29363   0.22314   0.00000  Uiso   1.00
F78    F     0.07385   0.03969   0.27460   0.00000  Uiso   1.00
F79    F     0.19875   0.11564   0.30682   0.00000  Uiso   1.00
F80    F     0.13456   0.21779   0.19328   0.00000  Uiso   1.00
F81    F     0.10285   0.11588   0.30687   0.00000  Uiso   1.00
F82    F     0.23050   0.21744   0.19312   0.00000  Uiso   1.00
C83    C     0.33341   0.08738   0.25026   0.00000  Uiso   1.00
C84    C     0.33336   0.24595   0.24944   0.00000  Uiso   1.00
C85    C     0.52834   0.15772   0.04760   0.00000  Uiso   1.00
C86    C     0.47089   0.16686   0.45234   0.00000  Uiso   1.00
C87    C     0.57580   0.14801   0.02509   0.00000  Uiso   1.00
C88    C     0.42376   0.17765   0.47452   0.00000  Uiso   1.00
C89    C     0.63011   0.02199   0.23730   0.00000  Uiso   1.00
C90    C     0.37061   0.31137   0.26122   0.00000  Uiso   1.00
C91    C     0.62990   0.31278   0.23650   0.00000  Uiso   1.00
C92    C     0.37098   0.02057   0.26177   0.00000  Uiso   1.00
C93    C     0.33336   0.29058   0.24893   0.00000  Uiso   1.00
C94    C     0.33380   0.04277   0.24997   0.00000  Uiso   1.00
C95    C     0.51685   0.14132   0.27839   0.00000  Uiso   1.00
C96    C     0.48313   0.19207   0.22167   0.00000  Uiso   1.00
C97    C     0.46732   0.14136   0.27839   0.00000  Uiso   1.00
C98    C     0.53268   0.19200   0.22164   0.00000  Uiso   1.00
C99    C     0.63951   0.16633   0.33620   0.00000  Uiso   1.00
C100   C     0.36045   0.16664   0.16385   0.00000  Uiso   1.00
C101   C     0.62447   0.16291   0.38557   0.00000  Uiso   1.00
C102   C     0.37533   0.16826   0.11449   0.00000  Uiso   1.00
C103   C     0.63907   0.14102   0.45616   0.00000  Uiso   1.00
C104   C     0.36114   0.18812   0.04320   0.00000  Uiso   1.00
C105   C     0.65551   0.14622   0.40977   0.00000  Uiso   1.00
C106   C     0.34493   0.18515   0.08978   0.00000  Uiso   1.00
C107   C     0.57682   0.17405   0.40853   0.00000  Uiso   1.00
C108   C     0.42192   0.15433   0.09189   0.00000  Uiso   1.00
C109   C     0.55746   0.16151   0.45377   0.00000  Uiso   1.00
C110   C     0.44177   0.16500   0.04616   0.00000  Uiso   1.00
C111   C     0.59060   0.14918   0.47836   0.00000  Uiso   1.00
C112   C     0.40909   0.17784   0.02123   0.00000  Uiso   1.00
C113   C     0.50705   0.16362   0.47607   0.00000  Uiso   1.00
C114   C     0.49213   0.16146   0.02393   0.00000  Uiso   1.00
Cu115  Cu    0.38022   0.16667   0.25000   0.00000  Uiso   1.00
Cu116  Cu    0.61978   0.16666   0.25000   0.00000  Uiso   1.00
H117   H     0.60193   0.14254   0.04440   0.00000  Uiso   1.00
H118   H     0.39787   0.18341   0.45505   0.00000  Uiso   1.00
H119   H     0.66410   0.13009   0.47472   0.00000  Uiso   1.00
H120   H     0.33647   0.19917   0.02432   0.00000  Uiso   1.00
H121   H     0.60153   0.03865   0.22748   0.00000  Uiso   1.00
H122   H     0.39924   0.29474   0.27100   0.00000  Uiso   1.00
N123   N     0.45069   0.16668   0.24999   0.00000  Uiso   1.00
N124   N     0.54931   0.16666   0.25001   0.00000  Uiso   1.00
O125   O     0.37291   0.10655   0.25000   0.00000  Uiso   1.00
O126   O     0.62709   0.22678   0.25000   0.00000  Uiso   1.00
O127   O     0.62706   0.10654   0.25001   0.00000  Uiso   1.00
O128   O     0.37294   0.22679   0.25000   0.00000  Uiso   1.00
O129   O     0.35186   0.16668   0.31491   0.00000  Uiso   1.00
O130   O     0.64814   0.16666   0.18509   0.00000  Uiso   1.00
O131   O     0.60600   0.16667   0.31492   0.00000  Uiso   1.00
O132   O     0.39400   0.16667   0.18508   0.00000  Uiso   1.00
O133   O     0.44567   0.12745   0.11414   0.00000  Uiso   1.00
C134   C     0.44186   0.08650   0.10008   0.00000  Uiso   1.00
H135   H     0.47886   0.07289   0.09097   0.00000  Uiso   1.00
H136   H     0.42747   0.08367   0.06986   0.00000  Uiso   1.00
C137   C     0.40996   0.06164   0.13898   0.00000  Uiso   1.00
H138   H     0.42488   0.06368   0.16873   0.00000  Uiso   1.00
H139   H     0.37272   0.07476   0.14800   0.00000  Uiso   1.00
C140   C     0.40754   0.01649   0.12662   0.00000  Uiso   1.00
H141   H     0.39184   0.01363   0.09746   0.00000  Uiso   1.00
H142   H     0.38424   0.33270   0.15555   0.00000  Uiso   1.00
H143   H     0.44432   0.00250   0.11818   0.00000  Uiso   1.00
O144   O     0.55076   0.19950   0.38714   0.00000  Uiso   1.00
C145   C     0.55539   0.24063   0.39976   0.00000  Uiso   1.00
H146   H     0.59312   0.25167   0.38519   0.00000  Uiso   1.00
H147   H     0.54627   0.24383   0.43702   0.00000  Uiso   1.00
C148   C     0.52012   0.26793   0.38275   0.00000  Uiso   1.00
H149   H     0.48252   0.25660   0.39680   0.00000  Uiso   1.00
H150   H     0.52212   0.29985   0.39475   0.00000  Uiso   1.00
C151   C     0.53183   0.26855   0.33153   0.00000  Uiso   1.00
H152   H     0.56921   0.28001   0.31725   0.00000  Uiso   1.00
H153   H     0.50617   0.28938   0.32051   0.00000  Uiso   1.00
H154   H     0.52851   0.23724   0.31856   0.00000  Uiso   1.00
F155   F     0.63271   0.19808   0.11038   0.00000  Uiso   1.00
F156   F     0.36850   0.13555   0.38893   0.00000  Uiso   1.00
F157   F     0.51981   0.16698   0.09180   0.00000  Uiso   1.00
F158   F     0.47940   0.15651   0.40842   0.00000  Uiso   1.00
F159   F     0.59406   0.29363   0.22314   0.00000  Uiso   1.00
F160   F     0.40719   0.03969   0.27460   0.00000  Uiso   1.00
F161   F     0.53209   0.11564   0.30682   0.00000  Uiso   1.00
F162   F     0.46789   0.21779   0.19328   0.00000  Uiso   1.00
F163   F     0.43618   0.11588   0.30687   0.00000  Uiso   1.00
F164   F     0.56383   0.21744   0.19312   0.00000  Uiso   1.00
C165   C     0.66675   0.08738   0.25026   0.00000  Uiso   1.00
C166   C     0.66669   0.24595   0.24944   0.00000  Uiso   1.00
C167   C     0.86168   0.15772   0.04760   0.00000  Uiso   1.00
C168   C     0.80423   0.16686   0.45234   0.00000  Uiso   1.00
C169   C     0.90913   0.14801   0.02509   0.00000  Uiso   1.00
C170   C     0.75709   0.17765   0.47452   0.00000  Uiso   1.00
C171   C     0.96344   0.02199   0.23730   0.00000  Uiso   1.00
C172   C     0.70394   0.31137   0.26122   0.00000  Uiso   1.00
C173   C     0.96323   0.31278   0.23650   0.00000  Uiso   1.00
C174   C     0.70431   0.02057   0.26177   0.00000  Uiso   1.00
C175   C     0.66670   0.29058   0.24893   0.00000  Uiso   1.00
C176   C     0.66713   0.04277   0.24997   0.00000  Uiso   1.00
C177   C     0.85019   0.14132   0.27839   0.00000  Uiso   1.00
C178   C     0.81647   0.19207   0.22167   0.00000  Uiso   1.00
C179   C     0.80065   0.14136   0.27839   0.00000  Uiso   1.00
C180   C     0.86601   0.19200   0.22164   0.00000  Uiso   1.00
C181   C     0.97284   0.16633   0.33620   0.00000  Uiso   1.00
C182   C     0.69378   0.16664   0.16385   0.00000  Uiso   1.00
C183   C     0.95780   0.16291   0.38557   0.00000  Uiso   1.00
C184   C     0.70866   0.16826   0.11449   0.00000  Uiso   1.00
C185   C     0.97240   0.14102   0.45616   0.00000  Uiso   1.00
C186   C     0.69448   0.18812   0.04320   0.00000  Uiso   1.00
C187   C     0.98884   0.14622   0.40977   0.00000  Uiso   1.00
C188   C     0.67826   0.18515   0.08978   0.00000  Uiso   1.00
C189   C     0.91015   0.17405   0.40853   0.00000  Uiso   1.00
C190   C     0.75526   0.15433   0.09189   0.00000  Uiso   1.00
C191   C     0.89080   0.16151   0.45377   0.00000  Uiso   1.00
C192   C     0.77511   0.16500   0.04616   0.00000  Uiso   1.00
C193   C     0.92393   0.14918   0.47836   0.00000  Uiso   1.00
C194   C     0.74242   0.17784   0.02123   0.00000  Uiso   1.00
C195   C     0.84039   0.16362   0.47607   0.00000  Uiso   1.00
C196   C     0.82546   0.16146   0.02393   0.00000  Uiso   1.00
Cu197  Cu    0.71355   0.16667   0.25000   0.00000  Uiso   1.00
Cu198  Cu    0.95311   0.16666   0.25000   0.00000  Uiso   1.00
H199   H     0.93526   0.14254   0.04440   0.00000  Uiso   1.00
H200   H     0.73121   0.18341   0.45505   0.00000  Uiso   1.00
H201   H     0.99743   0.13009   0.47472   0.00000  Uiso   1.00
H202   H     0.66980   0.19917   0.02432   0.00000  Uiso   1.00
H203   H     0.93487   0.03865   0.22748   0.00000  Uiso   1.00
H204   H     0.73257   0.29474   0.27100   0.00000  Uiso   1.00
N205   N     0.78403   0.16668   0.24999   0.00000  Uiso   1.00
N206   N     0.88264   0.16666   0.25001   0.00000  Uiso   1.00
O207   O     0.70625   0.10655   0.25000   0.00000  Uiso   1.00
O208   O     0.96042   0.22678   0.25000   0.00000  Uiso   1.00
O209   O     0.96039   0.10654   0.25001   0.00000  Uiso   1.00
O210   O     0.70628   0.22679   0.25000   0.00000  Uiso   1.00
O211   O     0.68519   0.16668   0.31491   0.00000  Uiso   1.00
O212   O     0.98148   0.16666   0.18509   0.00000  Uiso   1.00
O213   O     0.93933   0.16667   0.31492   0.00000  Uiso   1.00
O214   O     0.72733   0.16667   0.18508   0.00000  Uiso   1.00
O215   O     0.77900   0.12745   0.11414   0.00000  Uiso   1.00
C216   C     0.77520   0.08650   0.10008   0.00000  Uiso   1.00
H217   H     0.81219   0.07289   0.09097   0.00000  Uiso   1.00
H218   H     0.76080   0.08367   0.06986   0.00000  Uiso   1.00
C219   C     0.74330   0.06164   0.13898   0.00000  Uiso   1.00
H220   H     0.75821   0.06368   0.16873   0.00000  Uiso   1.00
H221   H     0.70605   0.07476   0.14800   0.00000  Uiso   1.00
C222   C     0.74087   0.01649   0.12662   0.00000  Uiso   1.00
H223   H     0.72517   0.01363   0.09746   0.00000  Uiso   1.00
H224   H     0.71757   0.33270   0.15555   0.00000  Uiso   1.00
H225   H     0.77766   0.00250   0.11818   0.00000  Uiso   1.00
O226   O     0.88409   0.19950   0.38714   0.00000  Uiso   1.00
C227   C     0.88872   0.24063   0.39976   0.00000  Uiso   1.00
H228   H     0.92645   0.25167   0.38519   0.00000  Uiso   1.00
H229   H     0.87960   0.24383   0.43702   0.00000  Uiso   1.00
C230   C     0.85345   0.26793   0.38275   0.00000  Uiso   1.00
H231   H     0.81585   0.25660   0.39680   0.00000  Uiso   1.00
H232   H     0.85545   0.29985   0.39475   0.00000  Uiso   1.00
C233   C     0.86516   0.26855   0.33153   0.00000  Uiso   1.00
H234   H     0.90254   0.28001   0.31725   0.00000  Uiso   1.00
H235   H     0.83950   0.28938   0.32051   0.00000  Uiso   1.00
H236   H     0.86184   0.23724   0.31856   0.00000  Uiso   1.00
F237   F     0.96604   0.19808   0.11038   0.00000  Uiso   1.00
F238   F     0.70184   0.13555   0.38893   0.00000  Uiso   1.00
F239   F     0.85314   0.16698   0.09180   0.00000  Uiso   1.00
F240   F     0.81274   0.15651   0.40842   0.00000  Uiso   1.00
F241   F     0.92739   0.29363   0.22314   0.00000  Uiso   1.00
F242   F     0.74052   0.03969   0.27460   0.00000  Uiso   1.00
F243   F     0.86542   0.11564   0.30682   0.00000  Uiso   1.00
F244   F     0.80123   0.21779   0.19328   0.00000  Uiso   1.00
F245   F     0.76951   0.11588   0.30687   0.00000  Uiso   1.00
F246   F     0.89717   0.21744   0.19312   0.00000  Uiso   1.00
C247   C     0.00008   0.42072   0.25026   0.00000  Uiso   1.00
C248   C     0.00003   0.57929   0.24944   0.00000  Uiso   1.00
C249   C     0.19501   0.49105   0.04760   0.00000  Uiso   1.00
C250   C     0.13756   0.50020   0.45234   0.00000  Uiso   1.00
C251   C     0.24246   0.48135   0.02509   0.00000  Uiso   1.00
C252   C     0.09043   0.51098   0.47452   0.00000  Uiso   1.00
C253   C     0.29677   0.35533   0.23730   0.00000  Uiso   1.00
C254   C     0.03728   0.64470   0.26122   0.00000  Uiso   1.00
C255   C     0.29657   0.64612   0.23650   0.00000  Uiso   1.00
C256   C     0.03764   0.35391   0.26177   0.00000  Uiso   1.00
C257   C     0.00003   0.62391   0.24893   0.00000  Uiso   1.00
C258   C     0.00046   0.37610   0.24997   0.00000  Uiso   1.00
C259   C     0.18352   0.47465   0.27839   0.00000  Uiso   1.00
C260   C     0.14980   0.52540   0.22167   0.00000  Uiso   1.00
C261   C     0.13398   0.47470   0.27839   0.00000  Uiso   1.00
C262   C     0.19935   0.52533   0.22164   0.00000  Uiso   1.00
C263   C     0.30618   0.49967   0.33620   0.00000  Uiso   1.00
C264   C     0.02711   0.49998   0.16385   0.00000  Uiso   1.00
C265   C     0.29114   0.49624   0.38557   0.00000  Uiso   1.00
C266   C     0.04200   0.50160   0.11449   0.00000  Uiso   1.00
C267   C     0.30574   0.47435   0.45616   0.00000  Uiso   1.00
C268   C     0.02781   0.52145   0.04320   0.00000  Uiso   1.00
C269   C     0.32217   0.47956   0.40977   0.00000  Uiso   1.00
C270   C     0.01159   0.51848   0.08978   0.00000  Uiso   1.00
C271   C     0.24349   0.50738   0.40853   0.00000  Uiso   1.00
C272   C     0.08859   0.48766   0.09189   0.00000  Uiso   1.00
C273   C     0.22413   0.49485   0.45377   0.00000  Uiso   1.00
C274   C     0.10844   0.49833   0.04616   0.00000  Uiso   1.00
C275   C     0.25727   0.48251   0.47836   0.00000  Uiso   1.00
C276   C     0.07575   0.51117   0.02123   0.00000  Uiso   1.00
C277   C     0.17372   0.49696   0.47607   0.00000  Uiso   1.00
C278   C     0.15879   0.49479   0.02393   0.00000  Uiso   1.00
Cu279  Cu    0.04689   0.50001   0.25000   0.00000  Uiso   1.00
Cu280  Cu    0.28645   0.49999   0.25000   0.00000  Uiso   1.00
H281   H     0.26859   0.47587   0.04440   0.00000  Uiso   1.00
H282   H     0.06454   0.51675   0.45505   0.00000  Uiso   1.00
H283   H     0.33077   0.46343   0.47472   0.00000  Uiso   1.00
H284   H     0.00314   0.53250   0.02432   0.00000  Uiso   1.00
H285   H     0.26820   0.37198   0.22748   0.00000  Uiso   1.00
H286   H     0.06590   0.62808   0.27100   0.00000  Uiso   1.00
N287   N     0.11736   0.50001   0.24999   0.00000  Uiso   1.00
N288   N     0.21597   0.49999   0.25001   0.00000  Uiso   1.00
O289   O     0.03958   0.43989   0.25000   0.00000  Uiso   1.00
O290   O     0.29375   0.56011   0.25000   0.00000  Uiso   1.00
O291   O     0.29372   0.43988   0.25001   0.00000  Uiso   1.00
O292   O     0.03961   0.56012   0.25000   0.00000  Uiso   1.00
O293   O     0.01852   0.50001   0.31491   0.00000  Uiso   1.00
O294   O     0.31481   0.49999   0.18509   0.00000  Uiso   1.00
O295   O     0.27267   0.50000   0.31492   0.00000  Uiso   1.00
O296   O     0.06067   0.50000   0.18508   0.00000  Uiso   1.00
O297   O     0.11233   0.46078   0.11414   0.00000  Uiso   1.00
C298   C     0.10853   0.41984   0.10008   0.00000  Uiso   1.00
H299   H     0.14552   0.40622   0.09097   0.00000  Uiso   1.00
H300   H     0.09413   0.41701   0.06986   0.00000  Uiso   1.00
C301   C     0.07663   0.39497   0.13898   0.00000  Uiso   1.00
H302   H     0.09155   0.39701   0.16873   0.00000  Uiso   1.00
H303   H     0.03938   0.40809   0.14800   0.00000  Uiso   1.00
C304   C     0.07420   0.34982   0.12662   0.00000  Uiso   1.00
H305   H     0.05850   0.34697   0.09746   0.00000  Uiso   1.00
H306   H     0.05090   0.66603   0.15555   0.00000  Uiso   1.00
H307   H     0.11099   0.33584   0.11818   0.00000  Uiso   1.00
O308   O     0.21742   0.53283   0.38714   0.00000  Uiso   1.00
C309   C     0.22205   0.57396   0.39976   0.00000  Uiso   1.00
H310   H     0.25978   0.58500   0.38519   0.00000  Uiso   1.00
H311   H     0.21294   0.57716   0.43702   0.00000  Uiso   1.00
C312   C     0.18679   0.60127   0.38275   0.00000  Uiso   1.00
H313   H     0.14918   0.58993   0.39680   0.00000  Uiso   1.00
H314   H     0.18879   0.63319   0.39475   0.00000  Uiso   1.00
C315   C     0.19850   0.60188   0.33153   0.00000  Uiso   1.00
H316   H     0.23588   0.61334   0.31725   0.00000  Uiso   1.00
H317   H     0.17284   0.62271   0.32051   0.00000  Uiso   1.00
H318   H     0.19517   0.57057   0.31856   0.00000  Uiso   1.00
F319   F     0.29938   0.53141   0.11038   0.00000  Uiso   1.00
F320   F     0.03517   0.46888   0.38893   0.00000  Uiso   1.00
F321   F     0.18647   0.50031   0.09180   0.00000  Uiso   1.00
F322   F     0.14607   0.48985   0.40842   0.00000  Uiso   1.00
F323   F     0.26072   0.62697   0.22314   0.00000  Uiso   1.00
F324   F     0.07385   0.37302   0.27460   0.00000  Uiso   1.00
F325   F     0.19875   0.44897   0.30682   0.00000  Uiso   1.00
F326   F     0.13456   0.55112   0.19328   0.00000  Uiso   1.00
F327   F     0.10285   0.44921   0.30687   0.00000  Uiso   1.00
F328   F     0.23050   0.55077   0.19312   0.00000  Uiso   1.00
C329   C     0.33341   0.42072   0.25026   0.00000  Uiso   1.00
C330   C     0.33336   0.57929   0.24944   0.00000  Uiso   1.00
C331   C     0.52834   0.49105   0.04760   0.00000  Uiso   1.00
C332   C     0.47089   0.50020   0.45234   0.00000  Uiso   1.00
C333   C     0.57580   0.48135   0.02509   0.00000  Uiso   1.00
C334   C     0.42376   0.51098   0.47452   0.00000  Uiso   1.00
C335   C     0.63011   0.35533   0.23730   0.00000  Uiso   1.00
C336   C     0.37061   0.64470   0.26122   0.00000  Uiso   1.00
C337   C     0.62990   0.64612   0.23650   0.00000  Uiso   1.00
C338   C     0.37098   0.35391   0.26177   0.00000  Uiso   1.00
C339   C     0.33336   0.62391   0.24893   0.00000  Uiso   1.00
C340   C     0.33380   0.37610   0.24997   0.00000  Uiso   1.00
C341   C     0.51685   0.47465   0.27839   0.00000  Uiso   1.00
C342   C     0.48313   0.52540   0.22167   0.00000  Uiso   1.00
C343   C     0.46732   0.47470   0.27839   0.00000  Uiso   1.00
C344   C     0.53268   0.52533   0.22164   0.00000  Uiso   1.00
C345   C     0.63951   0.49967   0.33620   0.00000  Uiso   1.00
C346   C     0.36045   0.49998   0.16385   0.00000  Uiso   1.00
C347   C     0.62447   0.49624   0.38557   0.00000  Uiso   1.00
C348   C     0.37533   0.50160   0.11449   0.00000  Uiso   1.00
C349   C     0.63907   0.47435   0.45616   0.00000  Uiso   1.00
C350   C     0.36114   0.52145   0.04320   0.00000  Uiso   1.00
C351   C     0.65551   0.47956   0.40977   0.00000  Uiso   1.00
C352   C     0.34493   0.51848   0.08978   0.00000  Uiso   1.00
C353   C     0.57682   0.50738   0.40853   0.00000  Uiso   1.00
C354   C     0.42192   0.48766   0.09189   0.00000  Uiso   1.00
C355   C     0.55746   0.49485   0.45377   0.00000  Uiso   1.00
C356   C     0.44177   0.49833   0.04616   0.00000  Uiso   1.00
C357   C     0.59060   0.48251   0.47836   0.00000  Uiso   1.00
C358   C     0.40909   0.51117   0.02123   0.00000  Uiso   1.00
C359   C     0.50705   0.49696   0.47607   0.00000  Uiso   1.00
C360   C     0.49213   0.49479   0.02393   0.00000  Uiso   1.00
Cu361  Cu    0.38022   0.50001   0.25000   0.00000  Uiso   1.00
Cu362  Cu    0.61978   0.49999   0.25000   0.00000  Uiso   1.00
H363   H     0.60193   0.47587   0.04440   0.00000  Uiso   1.00
H364   H     0.39787   0.51675   0.45505   0.00000  Uiso   1.00
H365   H     0.66410   0.46343   0.47472   0.00000  Uiso   1.00
H366   H     0.33647   0.53250   0.02432   0.00000  Uiso   1.00
H367   H     0.60153   0.37198   0.22748   0.00000  Uiso   1.00
H368   H     0.39924   0.62808   0.27100   0.00000  Uiso   1.00
N369   N     0.45069   0.50001   0.24999   0.00000  Uiso   1.00
N370   N     0.54931   0.49999   0.25001   0.00000  Uiso   1.00
O371   O     0.37291   0.43989   0.25000   0.00000  Uiso   1.00
O372   O     0.62709   0.56011   0.25000   0.00000  Uiso   1.00
O373   O     0.62706   0.43988   0.25001   0.00000  Uiso   1.00
O374   O     0.37294   0.56012   0.25000   0.00000  Uiso   1.00
O375   O     0.35186   0.50001   0.31491   0.00000  Uiso   1.00
O376   O     0.64814   0.49999   0.18509   0.00000  Uiso   1.00
O377   O     0.60600   0.50000   0.31492   0.00000  Uiso   1.00
O378   O     0.39400   0.50000   0.18508   0.00000  Uiso   1.00
O379   O     0.44567   0.46078   0.11414   0.00000  Uiso   1.00
C380   C     0.44186   0.41984   0.10008   0.00000  Uiso   1.00
H381   H     0.47886   0.40622   0.09097   0.00000  Uiso   1.00
H382   H     0.42747   0.41701   0.06986   0.00000  Uiso   1.00
C383   C     0.40996   0.39497   0.13898   0.00000  Uiso   1.00
H384   H     0.42488   0.39701   0.16873   0.00000  Uiso   1.00
H385   H     0.37272   0.40809   0.14800   0.00000  Uiso   1.00
C386   C     0.40754   0.34982   0.12662   0.00000  Uiso   1.00
H387   H     0.39184   0.34697   0.09746   0.00000  Uiso   1.00
H388   H     0.38424   0.66603   0.15555   0.00000  Uiso   1.00
H389   H     0.44432   0.33584   0.11818   0.00000  Uiso   1.00
O390   O     0.55076   0.53283   0.38714   0.00000  Uiso   1.00
C391   C     0.55539   0.57396   0.39976   0.00000  Uiso   1.00
H392   H     0.59312   0.58500   0.38519   0.00000  Uiso   1.00
H393   H     0.54627   0.57716   0.43702   0.00000  Uiso   1.00
C394   C     0.52012   0.60127   0.38275   0.00000  Uiso   1.00
H395   H     0.48252   0.58993   0.39680   0.00000  Uiso   1.00
H396   H     0.52212   0.63319   0.39475   0.00000  Uiso   1.00
C397   C     0.53183   0.60188   0.33153   0.00000  Uiso   1.00
H398   H     0.56921   0.61334   0.31725   0.00000  Uiso   1.00
H399   H     0.50617   0.62271   0.32051   0.00000  Uiso   1.00
H400   H     0.52851   0.57057   0.31856   0.00000  Uiso   1.00
F401   F     0.63271   0.53141   0.11038   0.00000  Uiso   1.00
F402   F     0.36850   0.46888   0.38893   0.00000  Uiso   1.00
F403   F     0.51981   0.50031   0.09180   0.00000  Uiso   1.00
F404   F     0.47940   0.48985   0.40842   0.00000  Uiso   1.00
F405   F     0.59406   0.62697   0.22314   0.00000  Uiso   1.00
F406   F     0.40719   0.37302   0.27460   0.00000  Uiso   1.00
F407   F     0.53209   0.44897   0.30682   0.00000  Uiso   1.00
F408   F     0.46789   0.55112   0.19328   0.00000  Uiso   1.00
F409   F     0.43618   0.44921   0.30687   0.00000  Uiso   1.00
F410   F     0.56383   0.55077   0.19312   0.00000  Uiso   1.00
C411   C     0.66675   0.42072   0.25026   0.00000  Uiso   1.00
C412   C     0.66669   0.57929   0.24944   0.00000  Uiso   1.00
C413   C     0.86168   0.49105   0.04760   0.00000  Uiso   1.00
C414   C     0.80423   0.50020   0.45234   0.00000  Uiso   1.00
C415   C     0.90913   0.48135   0.02509   0.00000  Uiso   1.00
C416   C     0.75709   0.51098   0.47452   0.00000  Uiso   1.00
C417   C     0.96344   0.35533   0.23730   0.00000  Uiso   1.00
C418   C     0.70394   0.64470   0.26122   0.00000  Uiso   1.00
C419   C     0.96323   0.64612   0.23650   0.00000  Uiso   1.00
C420   C     0.70431   0.35391   0.26177   0.00000  Uiso   1.00
C421   C     0.66670   0.62391   0.24893   0.00000  Uiso   1.00
C422   C     0.66713   0.37610   0.24997   0.00000  Uiso   1.00
C423   C     0.85019   0.47465   0.27839   0.00000  Uiso   1.00
C424   C     0.81647   0.52540   0.22167   0.00000  Uiso   1.00
C425   C     0.80065   0.47470   0.27839   0.00000  Uiso   1.00
C426   C     0.86601   0.52533   0.22164   0.00000  Uiso   1.00
C427   C     0.97284   0.49967   0.33620   0.00000  Uiso   1.00
C428   C     0.69378   0.49998   0.16385   0.00000  Uiso   1.00
C429   C     0.95780   0.49624   0.38557   0.00000  Uiso   1.00
C430   C     0.70866   0.50160   0.11449   0.00000  Uiso   1.00
C431   C     0.97240   0.47435   0.45616   0.00000  Uiso   1.00
C432   C     0.69448   0.52145   0.04320   0.00000  Uiso   1.00
C433   C     0.98884   0.47956   0.40977   0.00000  Uiso   1.00
C434   C     0.67826   0.51848   0.08978   0.00000  Uiso   1.00
C435   C     0.91015   0.50738   0.40853   0.00000  Uiso   1.00
C436   C     0.75526   0.48766   0.09189   0.00000  Uiso   1.00
C437   C     0.89080   0.49485   0.45377   0.00000  Uiso   1.00
C438   C     0.77511   0.49833   0.04616   0.00000  Uiso   1.00
C439   C     0.92393   0.48251   0.47836   0.00000  Uiso   1.00
C440   C     0.74242   0.51117   0.02123   0.00000  Uiso   1.00
C441   C     0.84039   0.49696   0.47607   0.00000  Uiso   1.00
C442   C     0.82546   0.49479   0.02393   0.00000  Uiso   1.00
Cu443  Cu    0.71355   0.50001   0.25000   0.00000  Uiso   1.00
Cu444  Cu    0.95311   0.49999   0.25000   0.00000  Uiso   1.00
H445   H     0.93526   0.47587   0.04440   0.00000  Uiso   1.00
H446   H     0.73121   0.51675   0.45505   0.00000  Uiso   1.00
H447   H     0.99743   0.46343   0.47472   0.00000  Uiso   1.00
H448   H     0.66980   0.53250   0.02432   0.00000  Uiso   1.00
H449   H     0.93487   0.37198   0.22748   0.00000  Uiso   1.00
H450   H     0.73257   0.62808   0.27100   0.00000  Uiso   1.00
N451   N     0.78403   0.50001   0.24999   0.00000  Uiso   1.00
N452   N     0.88264   0.49999   0.25001   0.00000  Uiso   1.00
O453   O     0.70625   0.43989   0.25000   0.00000  Uiso   1.00
O454   O     0.96042   0.56011   0.25000   0.00000  Uiso   1.00
O455   O     0.96039   0.43988   0.25001   0.00000  Uiso   1.00
O456   O     0.70628   0.56012   0.25000   0.00000  Uiso   1.00
O457   O     0.68519   0.50001   0.31491   0.00000  Uiso   1.00
O458   O     0.98148   0.49999   0.18509   0.00000  Uiso   1.00
O459   O     0.93933   0.50000   0.31492   0.00000  Uiso   1.00
O460   O     0.72733   0.50000   0.18508   0.00000  Uiso   1.00
O461   O     0.77900   0.46078   0.11414   0.00000  Uiso   1.00
C462   C     0.77520   0.41984   0.10008   0.00000  Uiso   1.00
H463   H     0.81219   0.40622   0.09097   0.00000  Uiso   1.00
H464   H     0.76080   0.41701   0.06986   0.00000  Uiso   1.00
C465   C     0.74330   0.39497   0.13898   0.00000  Uiso   1.00
H466   H     0.75821   0.39701   0.16873   0.00000  Uiso   1.00
H467   H     0.70605   0.40809   0.14800   0.00000  Uiso   1.00
C468   C     0.74087   0.34982   0.12662   0.00000  Uiso   1.00
H469   H     0.72517   0.34697   0.09746   0.00000  Uiso   1.00
H470   H     0.71757   0.66603   0.15555   0.00000  Uiso   1.00
H471   H     0.77766   0.33584   0.11818   0.00000  Uiso   1.00
O472   O     0.88409   0.53283   0.38714   0.00000  Uiso   1.00
C473   C     0.88872   0.57396   0.39976   0.00000  Uiso   1.00
H474   H     0.92645   0.58500   0.38519   0.00000  Uiso   1.00
H475   H     0.87960   0.57716   0.43702   0.00000  Uiso   1.00
C476   C     0.85345   0.60127   0.38275   0.00000  Uiso   1.00
H477   H     0.81585   0.58993   0.39680   0.00000  Uiso   1.00
H478   H     0.85545   0.63319   0.39475   0.00000  Uiso   1.00
C479   C     0.86516   0.60188   0.33153   0.00000  Uiso   1.00
H480   H     0.90254   0.61334   0.31725   0.00000  Uiso   1.00
H481   H     0.83950   0.62271   0.32051   0.00000  Uiso   1.00
H482   H     0.86184   0.57057   0.31856   0.00000  Uiso   1.00
F483   F     0.96604   0.53141   0.11038   0.00000  Uiso   1.00
F484   F     0.70184   0.46888   0.38893   0.00000  Uiso   1.00
F485   F     0.85314   0.50031   0.09180   0.00000  Uiso   1.00
F486   F     0.81274   0.48985   0.40842   0.00000  Uiso   1.00
F487   F     0.92739   0.62697   0.22314   0.00000  Uiso   1.00
F488   F     0.74052   0.37302   0.27460   0.00000  Uiso   1.00
F489   F     0.86542   0.44897   0.30682   0.00000  Uiso   1.00
F490   F     0.80123   0.55112   0.19328   0.00000  Uiso   1.00
F491   F     0.76951   0.44921   0.30687   0.00000  Uiso   1.00
F492   F     0.89717   0.55077   0.19312   0.00000  Uiso   1.00
C493   C     0.00008   0.75405   0.25026   0.00000  Uiso   1.00
C494   C     0.00003   0.91262   0.24944   0.00000  Uiso   1.00
C495   C     0.19501   0.82439   0.04760   0.00000  Uiso   1.00
C496   C     0.13756   0.83353   0.45234   0.00000  Uiso   1.00
C497   C     0.24246   0.81468   0.02509   0.00000  Uiso   1.00
C498   C     0.09043   0.84431   0.47452   0.00000  Uiso   1.00
C499   C     0.29677   0.68866   0.23730   0.00000  Uiso   1.00
C500   C     0.03728   0.97804   0.26122   0.00000  Uiso   1.00
C501   C     0.29657   0.97945   0.23650   0.00000  Uiso   1.00
C502   C     0.03764   0.68724   0.26177   0.00000  Uiso   1.00
C503   C     0.00003   0.95725   0.24893   0.00000  Uiso   1.00
C504   C     0.00046   0.70944   0.24997   0.00000  Uiso   1.00
C505   C     0.18352   0.80798   0.27839   0.00000  Uiso   1.00
C506   C     0.14980   0.85874   0.22167   0.00000  Uiso   1.00
C507   C     0.13398   0.80803   0.27839   0.00000  Uiso   1.00
C508   C     0.19935   0.85866   0.22164   0.00000  Uiso   1.00
C509   C     0.30618   0.83300   0.33620   0.00000  Uiso   1.00
C510   C     0.02711   0.83331   0.16385   0.00000  Uiso   1.00
C511   C     0.29114   0.82957   0.38557   0.00000  Uiso   1.00
C512   C     0.04200   0.83493   0.11449   0.00000  Uiso   1.00
C513   C     0.30574   0.80768   0.45616   0.00000  Uiso   1.00
C514   C     0.02781   0.85478   0.04320   0.00000  Uiso   1.00
C515   C     0.32217   0.81289   0.40977   0.00000  Uiso   1.00
C516   C     0.01159   0.85181   0.08978   0.00000  Uiso   1.00
C517   C     0.24349   0.84072   0.40853   0.00000  Uiso   1.00
C518   C     0.08859   0.82100   0.09189   0.00000  Uiso   1.00
C519   C     0.22413   0.82818   0.45377   0.00000  Uiso   1.00
C520   C     0.10844   0.83167   0.04616   0.00000  Uiso   1.00
C521   C     0.25727   0.81585   0.47836   0.00000  Uiso   1.00
C522   C     0.07575   0.84451   0.02123   0.00000  Uiso   1.00
C523   C     0.17372   0.83029   0.47607   0.00000  Uiso   1.00
C524   C     0.15879   0.82813   0.02393   0.00000  Uiso   1.00
Cu525  Cu    0.04689   0.83334   0.25000   0.00000  Uiso   1.00
Cu526  Cu    0.28645   0.83333   0.25000   0.00000  Uiso   1.00
H527   H     0.26859   0.80920   0.04440   0.00000  Uiso   1.00
H528   H     0.06454   0.85008   0.45505   0.00000  Uiso   1.00
H529   H     0.33077   0.79676   0.47472   0.00000  Uiso   1.00
H530   H     0.00314   0.86584   0.02432   0.00000  Uiso   1.00
H531   H     0.26820   0.70532   0.22748   0.00000  Uiso   1.00
H532   H     0.06590   0.96141   0.27100   0.00000  Uiso   1.00
N533   N     0.11736   0.83334   0.24999   0.00000  Uiso   1.00
N534   N     0.21597   0.83332   0.25001   0.00000  Uiso   1.00
O535   O     0.03958   0.77322   0.25000   0.00000  Uiso   1.00
O536   O     0.29375   0.89345   0.25000   0.00000  Uiso   1.00
O537   O     0.29372   0.77321   0.25001   0.00000  Uiso   1.00
O538   O     0.03961   0.89346   0.25000   0.00000  Uiso   1.00
O539   O     0.01852   0.83334   0.31491   0.00000  Uiso   1.00
O540   O     0.31481   0.83332   0.18509   0.00000  Uiso   1.00
O541   O     0.27267   0.83333   0.31492   0.00000  Uiso   1.00
O542   O     0.06067   0.83333   0.18508   0.00000  Uiso   1.00
O543   O     0.11233   0.79412   0.11414   0.00000  Uiso   1.00
C544   C     0.10853   0.75317   0.10008   0.00000  Uiso   1.00
H545   H     0.14552   0.73956   0.09097   0.00000  Uiso   1.00
H546   H     0.09413   0.75034   0.06986   0.00000  Uiso   1.00
C547   C     0.07663   0.72830   0.13898   0.00000  Uiso   1.00
H548   H     0.09155   0.73034   0.16873   0.00000  Uiso   1.00
H549   H     0.03938   0.74143   0.14800   0.00000  Uiso   1.00
C550   C     0.07420   0.68316   0.12662   0.00000  Uiso   1.00
H551   H     0.05850   0.68030   0.09746   0.00000  Uiso   1.00
H552   H     0.05090   0.99937   0.15555   0.00000  Uiso   1.00
H553   H     0.11099   0.66917   0.11818   0.00000  Uiso   1.00
O554   O     0.21742   0.86617   0.38714   0.00000  Uiso   1.00
C555   C     0.22205   0.90729   0.39976   0.00000  Uiso   1.00
H556   H     0.25978   0.91833   0.38519   0.00000  Uiso   1.00
H557   H     0.21294   0.91050   0.43702   0.00000  Uiso   1.00
C558   C     0.18679   0.93460   0.38275   0.00000  Uiso   1.00
H559   H     0.14918   0.92326   0.39680   0.00000  Uiso   1.00
H560   H     0.18879   0.96652   0.39475   0.00000  Uiso   1.00
C561   C     0.19850   0.93522   0.33153   0.00000  Uiso   1.00
H562   H     0.23588   0.94668   0.31725   0.00000  Uiso   1.00
H563   H     0.17284   0.95604   0.32051   0.00000  Uiso   1.00
H564   H     0.19517   0.90390   0.31856   0.00000  Uiso   1.00
F565   F     0.29938   0.86475   0.11038   0.00000  Uiso   1.00
F566   F     0.03517   0.80221   0.38893   0.00000  Uiso   1.00
F567   F     0.18647   0.83364   0.09180   0.00000  Uiso   1.00
F568   F     0.14607   0.82318   0.40842   0.00000  Uiso   1.00
F569   F     0.26072   0.96030   0.22314   0.00000  Uiso   1.00
F570   F     0.07385   0.70636   0.27460   0.00000  Uiso   1.00
F571   F     0.19875   0.78230   0.30682   0.00000  Uiso   1.00
F572   F     0.13456   0.88446   0.19328   0.00000  Uiso   1.00
F573   F     0.10285   0.78255   0.30687   0.00000  Uiso   1.00
F574   F     0.23050   0.88411   0.19312   0.00000  Uiso   1.00
C575   C     0.33341   0.75405   0.25026   0.00000  Uiso   1.00
C576   C     0.33336   0.91262   0.24944   0.00000  Uiso   1.00
C577   C     0.52834   0.82439   0.04760   0.00000  Uiso   1.00
C578   C     0.47089   0.83353   0.45234   0.00000  Uiso   1.00
C579   C     0.57580   0.81468   0.02509   0.00000  Uiso   1.00
C580   C     0.42376   0.84431   0.47452   0.00000  Uiso   1.00
C581   C     0.63011   0.68866   0.23730   0.00000  Uiso   1.00
C582   C     0.37061   0.97804   0.26122   0.00000  Uiso   1.00
C583   C     0.62990   0.97945   0.23650   0.00000  Uiso   1.00
C584   C     0.37098   0.68724   0.26177   0.00000  Uiso   1.00
C585   C     0.33336   0.95725   0.24893   0.00000  Uiso   1.00
C586   C     0.33380   0.70944   0.24997   0.00000  Uiso   1.00
C587   C     0.51685   0.80798   0.27839   0.00000  Uiso   1.00
C588   C     0.48313   0.85874   0.22167   0.00000  Uiso   1.00
C589   C     0.46732   0.80803   0.27839   0.00000  Uiso   1.00
C590   C     0.53268   0.85866   0.22164   0.00000  Uiso   1.00
C591   C     0.63951   0.83300   0.33620   0.00000  Uiso   1.00
C592   C     0.36045   0.83331   0.16385   0.00000  Uiso   1.00
C593   C     0.62447   0.82957   0.38557   0.00000  Uiso   1.00
C594   C     0.37533   0.83493   0.11449   0.00000  Uiso   1.00
C595   C     0.63907   0.80768   0.45616   0.00000  Uiso   1.00
C596   C     0.36114   0.85478   0.04320   0.00000  Uiso   1.00
C597   C     0.65551   0.81289   0.40977   0.00000  Uiso   1.00
C598   C     0.34493   0.85181   0.08978   0.00000  Uiso   1.00
C599   C     0.57682   0.84072   0.40853   0.00000  Uiso   1.00
C600   C     0.42192   0.82100   0.09189   0.00000  Uiso   1.00
C601   C     0.55746   0.82818   0.45377   0.00000  Uiso   1.00
C602   C     0.44177   0.83167   0.04616   0.00000  Uiso   1.00
C603   C     0.59060   0.81585   0.47836   0.00000  Uiso   1.00
C604   C     0.40909   0.84451   0.02123   0.00000  Uiso   1.00
C605   C     0.50705   0.83029   0.47607   0.00000  Uiso   1.00
C606   C     0.49213   0.82813   0.02393   0.00000  Uiso   1.00
Cu607  Cu    0.38022   0.83334   0.25000   0.00000  Uiso   1.00
Cu608  Cu    0.61978   0.83333   0.25000   0.00000  Uiso   1.00
H609   H     0.60193   0.80920   0.04440   0.00000  Uiso   1.00
H610   H     0.39787   0.85008   0.45505   0.00000  Uiso   1.00
H611   H     0.66410   0.79676   0.47472   0.00000  Uiso   1.00
H612   H     0.33647   0.86584   0.02432   0.00000  Uiso   1.00
H613   H     0.60153   0.70532   0.22748   0.00000  Uiso   1.00
H614   H     0.39924   0.96141   0.27100   0.00000  Uiso   1.00
N615   N     0.45069   0.83334   0.24999   0.00000  Uiso   1.00
N616   N     0.54931   0.83332   0.25001   0.00000  Uiso   1.00
O617   O     0.37291   0.77322   0.25000   0.00000  Uiso   1.00
O618   O     0.62709   0.89345   0.25000   0.00000  Uiso   1.00
O619   O     0.62706   0.77321   0.25001   0.00000  Uiso   1.00
O620   O     0.37294   0.89346   0.25000   0.00000  Uiso   1.00
O621   O     0.35186   0.83334   0.31491   0.00000  Uiso   1.00
O622   O     0.64814   0.83332   0.18509   0.00000  Uiso   1.00
O623   O     0.60600   0.83333   0.31492   0.00000  Uiso   1.00
O624   O     0.39400   0.83333   0.18508   0.00000  Uiso   1.00
O625   O     0.44567   0.79412   0.11414   0.00000  Uiso   1.00
C626   C     0.44186   0.75317   0.10008   0.00000  Uiso   1.00
H627   H     0.47886   0.73956   0.09097   0.00000  Uiso   1.00
H628   H     0.42747   0.75034   0.06986   0.00000  Uiso   1.00
C629   C     0.40996   0.72830   0.13898   0.00000  Uiso   1.00
H630   H     0.42488   0.73034   0.16873   0.00000  Uiso   1.00
H631   H     0.37272   0.74143   0.14800   0.00000  Uiso   1.00
C632   C     0.40754   0.68316   0.12662   0.00000  Uiso   1.00
H633   H     0.39184   0.68030   0.09746   0.00000  Uiso   1.00
H634   H     0.38424   0.99937   0.15555   0.00000  Uiso   1.00
H635   H     0.44432   0.66917   0.11818   0.00000  Uiso   1.00
O636   O     0.55076   0.86617   0.38714   0.00000  Uiso   1.00
C637   C     0.55539   0.90729   0.39976   0.00000  Uiso   1.00
H638   H     0.59312   0.91833   0.38519   0.00000  Uiso   1.00
H639   H     0.54627   0.91050   0.43702   0.00000  Uiso   1.00
C640   C     0.52012   0.93460   0.38275   0.00000  Uiso   1.00
H641   H     0.48252   0.92326   0.39680   0.00000  Uiso   1.00
H642   H     0.52212   0.96652   0.39475   0.00000  Uiso   1.00
C643   C     0.53183   0.93522   0.33153   0.00000  Uiso   1.00
H644   H     0.56921   0.94668   0.31725   0.00000  Uiso   1.00
H645   H     0.50617   0.95604   0.32051   0.00000  Uiso   1.00
H646   H     0.52851   0.90390   0.31856   0.00000  Uiso   1.00
F647   F     0.63271   0.86475   0.11038   0.00000  Uiso   1.00
F648   F     0.36850   0.80221   0.38893   0.00000  Uiso   1.00
F649   F     0.51981   0.83364   0.09180   0.00000  Uiso   1.00
F650   F     0.47940   0.82318   0.40842   0.00000  Uiso   1.00
F651   F     0.59406   0.96030   0.22314   0.00000  Uiso   1.00
F652   F     0.40719   0.70636   0.27460   0.00000  Uiso   1.00
F653   F     0.53209   0.78230   0.30682   0.00000  Uiso   1.00
F654   F     0.46789   0.88446   0.19328   0.00000  Uiso   1.00
F655   F     0.43618   0.78255   0.30687   0.00000  Uiso   1.00
F656   F     0.56383   0.88411   0.19312   0.00000  Uiso   1.00
C657   C     0.66675   0.75405   0.25026   0.00000  Uiso   1.00
C658   C     0.66669   0.91262   0.24944   0.00000  Uiso   1.00
C659   C     0.86168   0.82439   0.04760   0.00000  Uiso   1.00
C660   C     0.80423   0.83353   0.45234   0.00000  Uiso   1.00
C661   C     0.90913   0.81468   0.02509   0.00000  Uiso   1.00
C662   C     0.75709   0.84431   0.47452   0.00000  Uiso   1.00
C663   C     0.96344   0.68866   0.23730   0.00000  Uiso   1.00
C664   C     0.70394   0.97804   0.26122   0.00000  Uiso   1.00
C665   C     0.96323   0.97945   0.23650   0.00000  Uiso   1.00
C666   C     0.70431   0.68724   0.26177   0.00000  Uiso   1.00
C667   C     0.66670   0.95725   0.24893   0.00000  Uiso   1.00
C668   C     0.66713   0.70944   0.24997   0.00000  Uiso   1.00
C669   C     0.85019   0.80798   0.27839   0.00000  Uiso   1.00
C670   C     0.81647   0.85874   0.22167   0.00000  Uiso   1.00
C671   C     0.80065   0.80803   0.27839   0.00000  Uiso   1.00
C672   C     0.86601   0.85866   0.22164   0.00000  Uiso   1.00
C673   C     0.97284   0.83300   0.33620   0.00000  Uiso   1.00
C674   C     0.69378   0.83331   0.16385   0.00000  Uiso   1.00
C675   C     0.95780   0.82957   0.38557   0.00000  Uiso   1.00
C676   C     0.70866   0.83493   0.11449   0.00000  Uiso   1.00
C677   C     0.97240   0.80768   0.45616   0.00000  Uiso   1.00
C678   C     0.69448   0.85478   0.04320   0.00000  Uiso   1.00
C679   C     0.98884   0.81289   0.40977   0.00000  Uiso   1.00
C680   C     0.67826   0.85181   0.08978   0.00000  Uiso   1.00
C681   C     0.91015   0.84072   0.40853   0.00000  Uiso   1.00
C682   C     0.75526   0.82100   0.09189   0.00000  Uiso   1.00
C683   C     0.89080   0.82818   0.45377   0.00000  Uiso   1.00
C684   C     0.77511   0.83167   0.04616   0.00000  Uiso   1.00
C685   C     0.92393   0.81585   0.47836   0.00000  Uiso   1.00
C686   C     0.74242   0.84451   0.02123   0.00000  Uiso   1.00
C687   C     0.84039   0.83029   0.47607   0.00000  Uiso   1.00
C688   C     0.82546   0.82813   0.02393   0.00000  Uiso   1.00
Cu689  Cu    0.71355   0.83334   0.25000   0.00000  Uiso   1.00
Cu690  Cu    0.95311   0.83333   0.25000   0.00000  Uiso   1.00
H691   H     0.93526   0.80920   0.04440   0.00000  Uiso   1.00
H692   H     0.73121   0.85008   0.45505   0.00000  Uiso   1.00
H693   H     0.99743   0.79676   0.47472   0.00000  Uiso   1.00
H694   H     0.66980   0.86584   0.02432   0.00000  Uiso   1.00
H695   H     0.93487   0.70532   0.22748   0.00000  Uiso   1.00
H696   H     0.73257   0.96141   0.27100   0.00000  Uiso   1.00
N697   N     0.78403   0.83334   0.24999   0.00000  Uiso   1.00
N698   N     0.88264   0.83332   0.25001   0.00000  Uiso   1.00
O699   O     0.70625   0.77322   0.25000   0.00000  Uiso   1.00
O700   O     0.96042   0.89345   0.25000   0.00000  Uiso   1.00
O701   O     0.96039   0.77321   0.25001   0.00000  Uiso   1.00
O702   O     0.70628   0.89346   0.25000   0.00000  Uiso   1.00
O703   O     0.68519   0.83334   0.31491   0.00000  Uiso   1.00
O704   O     0.98148   0.83332   0.18509   0.00000  Uiso   1.00
O705   O     0.93933   0.83333   0.31492   0.00000  Uiso   1.00
O706   O     0.72733   0.83333   0.18508   0.00000  Uiso   1.00
O707   O     0.77900   0.79412   0.11414   0.00000  Uiso   1.00
C708   C     0.77520   0.75317   0.10008   0.00000  Uiso   1.00
H709   H     0.81219   0.73956   0.09097   0.00000  Uiso   1.00
H710   H     0.76080   0.75034   0.06986   0.00000  Uiso   1.00
C711   C     0.74330   0.72830   0.13898   0.00000  Uiso   1.00
H712   H     0.75821   0.73034   0.16873   0.00000  Uiso   1.00
H713   H     0.70605   0.74143   0.14800   0.00000  Uiso   1.00
C714   C     0.74087   0.68316   0.12662   0.00000  Uiso   1.00
H715   H     0.72517   0.68030   0.09746   0.00000  Uiso   1.00
H716   H     0.71757   0.99937   0.15555   0.00000  Uiso   1.00
H717   H     0.77766   0.66917   0.11818   0.00000  Uiso   1.00
O718   O     0.88409   0.86617   0.38714   0.00000  Uiso   1.00
C719   C     0.88872   0.90729   0.39976   0.00000  Uiso   1.00
H720   H     0.92645   0.91833   0.38519   0.00000  Uiso   1.00
H721   H     0.87960   0.91050   0.43702   0.00000  Uiso   1.00
C722   C     0.85345   0.93460   0.38275   0.00000  Uiso   1.00
H723   H     0.81585   0.92326   0.39680   0.00000  Uiso   1.00
H724   H     0.85545   0.96652   0.39475   0.00000  Uiso   1.00
C725   C     0.86516   0.93522   0.33153   0.00000  Uiso   1.00
H726   H     0.90254   0.94668   0.31725   0.00000  Uiso   1.00
H727   H     0.83950   0.95604   0.32051   0.00000  Uiso   1.00
H728   H     0.86184   0.90390   0.31856   0.00000  Uiso   1.00
F729   F     0.96604   0.86475   0.11038   0.00000  Uiso   1.00
F730   F     0.70184   0.80221   0.38893   0.00000  Uiso   1.00
F731   F     0.85314   0.83364   0.09180   0.00000  Uiso   1.00
F732   F     0.81274   0.82318   0.40842   0.00000  Uiso   1.00
F733   F     0.92739   0.96030   0.22314   0.00000  Uiso   1.00
F734   F     0.74052   0.70636   0.27460   0.00000  Uiso   1.00
F735   F     0.86542   0.78230   0.30682   0.00000  Uiso   1.00
F736   F     0.80123   0.88446   0.19328   0.00000  Uiso   1.00
F737   F     0.76951   0.78255   0.30687   0.00000  Uiso   1.00
F738   F     0.89717   0.88411   0.19312   0.00000  Uiso   1.00
C739   C     0.00008   0.08738   0.75026   0.00000  Uiso   1.00
C740   C     0.00003   0.24595   0.74944   0.00000  Uiso   1.00
C741   C     0.19501   0.15772   0.54760   0.00000  Uiso   1.00
C742   C     0.13756   0.16686   0.95234   0.00000  Uiso   1.00
C743   C     0.24246   0.14801   0.52509   0.00000  Uiso   1.00
C744   C     0.09043   0.17765   0.97452   0.00000  Uiso   1.00
C745   C     0.29677   0.02199   0.73730   0.00000  Uiso   1.00
C746   C     0.03728   0.31137   0.76122   0.00000  Uiso   1.00
C747   C     0.29657   0.31278   0.73650   0.00000  Uiso   1.00
C748   C     0.03764   0.02057   0.76177   0.00000  Uiso   1.00
C749   C     0.00003   0.29058   0.74893   0.00000  Uiso   1.00
C750   C     0.00046   0.04277   0.74997   0.00000  Uiso   1.00
C751   C     0.18352   0.14132   0.77839   0.00000  Uiso   1.00
C752   C     0.14980   0.19207   0.72167   0.00000  Uiso   1.00
C753   C     0.13398   0.14136   0.77839   0.00000  Uiso   1.00
C754   C     0.19935   0.19200   0.72164   0.00000  Uiso   1.00
C755   C     0.30618   0.16633   0.83620   0.00000  Uiso   1.00
C756   C     0.02711   0.16664   0.66385   0.00000  Uiso   1.00
C757   C     0.29114   0.16291   0.88557   0.00000  Uiso   1.00
C758   C     0.04200   0.16826   0.61449   0.00000  Uiso   1.00
C759   C     0.30574   0.14102   0.95616   0.00000  Uiso   1.00
C760   C     0.02781   0.18812   0.54320   0.00000  Uiso   1.00
C761   C     0.32217   0.14622   0.90977   0.00000  Uiso   1.00
C762   C     0.01159   0.18515   0.58978   0.00000  Uiso   1.00
C763   C     0.24349   0.17405   0.90853   0.00000  Uiso   1.00
C764   C     0.08859   0.15433   0.59189   0.00000  Uiso   1.00
C765   C     0.22413   0.16151   0.95377   0.00000  Uiso   1.00
C766   C     0.10844   0.16500   0.54616   0.00000  Uiso   1.00
C767   C     0.25727   0.14918   0.97836   0.00000  Uiso   1.00
C768   C     0.07575   0.17784   0.52123   0.00000  Uiso   1.00
C769   C     0.17372   0.16362   0.97607   0.00000  Uiso   1.00
C770   C     0.15879   0.16146   0.52393   0.00000  Uiso   1.00
Cu771  Cu    0.04689   0.16667   0.75000   0.00000  Uiso   1.00
Cu772  Cu    0.28645   0.16666   0.75000   0.00000  Uiso   1.00
H773   H     0.26859   0.14254   0.54440   0.00000  Uiso   1.00
H774   H     0.06454   0.18341   0.95505   0.00000  Uiso   1.00
H775   H     0.33077   0.13009   0.97472   0.00000  Uiso   1.00
H776   H     0.00314   0.19917   0.52432   0.00000  Uiso   1.00
H777   H     0.26820   0.03865   0.72748   0.00000  Uiso   1.00
H778   H     0.06590   0.29474   0.77100   0.00000  Uiso   1.00
N779   N     0.11736   0.16668   0.74999   0.00000  Uiso   1.00
N780   N     0.21597   0.16666   0.75001   0.00000  Uiso   1.00
O781   O     0.03958   0.10655   0.75000   0.00000  Uiso   1.00
O782   O     0.29375   0.22678   0.75000   0.00000  Uiso   1.00
O783   O     0.29372   0.10654   0.75001   0.00000  Uiso   1.00
O784   O     0.03961   0.22679   0.75000   0.00000  Uiso   1.00
O785   O     0.01852   0.16668   0.81491   0.00000  Uiso   1.00
O786   O     0.31481   0.16666   0.68509   0.00000  Uiso   1.00
O787   O     0.27267   0.16667   0.81492   0.00000  Uiso   1.00
O788   O     0.06067   0.16667   0.68508   0.00000  Uiso   1.00
O789   O     0.11233   0.12745   0.61414   0.00000  Uiso   1.00
C790   C     0.10853   0.08650   0.60008   0.00000  Uiso   1.00
H791   H     0.14552   0.07289   0.59097   0.00000  Uiso   1.00
H792   H     0.09413   0.08367   0.56986   0.00000  Uiso   1.00
C793   C     0.07663   0.06164   0.63898   0.00000  Uiso   1.00
H794   H     0.09155   0.06368   0.66873   0.00000  Uiso   1.00
H795   H     0.03938   0.07476   0.64800   0.00000  Uiso   1.00
C796   C     0.07420   0.01649   0.62662   0.00000  Uiso   1.00
H797   H     0.05850   0.01363   0.59746   0.00000  Uiso   1.00
H798   H     0.05090   0.33270   0.65555   0.00000  Uiso   1.00
H799   H     0.11099   0.00250   0.61818   0.00000  Uiso   1.00
O800   O     0.21742   0.19950   0.88714   0.00000  Uiso   1.00
C801   C     0.22205   0.24063   0.89976   0.00000  Uiso   1.00
H802   H     0.25978   0.25167   0.88519   0.00000  Uiso   1.00
H803   H     0.21294   0.24383   0.93702   0.00000  Uiso   1.00
C804   C     0.18679   0.26793   0.88275   0.00000  Uiso   1.00
H805   H     0.14918   0.25660   0.89680   0.00000  Uiso   1.00
H806   H     0.18879   0.29985   0.89475   0.00000  Uiso   1.00
C807   C     0.19850   0.26855   0.83153   0.00000  Uiso   1.00
H808   H     0.23588   0.28001   0.81725   0.00000  Uiso   1.00
H809   H     0.17284   0.28938   0.82051   0.00000  Uiso   1.00
H810   H     0.19517   0.23724   0.81856   0.00000  Uiso   1.00
F811   F     0.29938   0.19808   0.61038   0.00000  Uiso   1.00
F812   F     0.03517   0.13555   0.88893   0.00000  Uiso   1.00
F813   F     0.18647   0.16698   0.59180   0.00000  Uiso   1.00
F814   F     0.14607   0.15651   0.90842   0.00000  Uiso   1.00
F815   F     0.26072   0.29363   0.72314   0.00000  Uiso   1.00
F816   F     0.07385   0.03969   0.77460   0.00000  Uiso   1.00
F817   F     0.19875   0.11564   0.80682   0.00000  Uiso   1.00
F818   F     0.13456   0.21779   0.69328   0.00000  Uiso   1.00
F819   F     0.10285   0.11588   0.80687   0.00000  Uiso   1.00
F820   F     0.23050   0.21744   0.69312   0.00000  Uiso   1.00
C821   C     0.33341   0.08738   0.75026   0.00000  Uiso   1.00
C822   C     0.33336   0.24595   0.74944   0.00000  Uiso   1.00
C823   C     0.52834   0.15772   0.54760   0.00000  Uiso   1.00
C824   C     0.47089   0.16686   0.95234   0.00000  Uiso   1.00
C825   C     0.57580   0.14801   0.52509   0.00000  Uiso   1.00
C826   C     0.42376   0.17765   0.97452   0.00000  Uiso   1.00
C827   C     0.63011   0.02199   0.73730   0.00000  Uiso   1.00
C828   C     0.37061   0.31137   0.76122   0.00000  Uiso   1.00
C829   C     0.62990   0.31278   0.73650   0.00000  Uiso   1.00
C830   C     0.37098   0.02057   0.76177   0.00000  Uiso   1.00
C831   C     0.33336   0.29058   0.74893   0.00000  Uiso   1.00
C832   C     0.33380   0.04277   0.74997   0.00000  Uiso   1.00
C833   C     0.51685   0.14132   0.77839   0.00000  Uiso   1.00
C834   C     0.48313   0.19207   0.72167   0.00000  Uiso   1.00
C835   C     0.46732   0.14136   0.77839   0.00000  Uiso   1.00
C836   C     0.53268   0.19200   0.72164   0.00000  Uiso   1.00
C837   C     0.63951   0.16633   0.83620   0.00000  Uiso   1.00
C838   C     0.36045   0.16664   0.66385   0.00000  Uiso   1.00
C839   C     0.62447   0.16291   0.88557   0.00000  Uiso   1.00
C840   C     0.37533   0.16826   0.61449   0.00000  Uiso   1.00
C841   C     0.63907   0.14102   0.95616   0.00000  Uiso   1.00
C842   C     0.36114   0.18812   0.54320   0.00000  Uiso   1.00
C843   C     0.65551   0.14622   0.90977   0.00000  Uiso   1.00
C844   C     0.34493   0.18515   0.58978   0.00000  Uiso   1.00
C845   C     0.57682   0.17405   0.90853   0.00000  Uiso   1.00
C846   C     0.42192   0.15433   0.59189   0.00000  Uiso   1.00
C847   C     0.55746   0.16151   0.95377   0.00000  Uiso   1.00
C848   C     0.44177   0.16500   0.54616   0.00000  Uiso   1.00
C849   C     0.59060   0.14918   0.97836   0.00000  Uiso   1.00
C850   C     0.40909   0.17784   0.52123   0.00000  Uiso   1.00
C851   C     0.50705   0.16362   0.97607   0.00000  Uiso   1.00
C852   C     0.49213   0.16146   0.52393   0.00000  Uiso   1.00
Cu853  Cu    0.38022   0.16667   0.75000   0.00000  Uiso   1.00
Cu854  Cu    0.61978   0.16666   0.75000   0.00000  Uiso   1.00
H855   H     0.60193   0.14254   0.54440   0.00000  Uiso   1.00
H856   H     0.39787   0.18341   0.95505   0.00000  Uiso   1.00
H857   H     0.66410   0.13009   0.97472   0.00000  Uiso   1.00
H858   H     0.33647   0.19917   0.52432   0.00000  Uiso   1.00
H859   H     0.60153   0.03865   0.72748   0.00000  Uiso   1.00
H860   H     0.39924   0.29474   0.77100   0.00000  Uiso   1.00
N861   N     0.45069   0.16668   0.74999   0.00000  Uiso   1.00
N862   N     0.54931   0.16666   0.75001   0.00000  Uiso   1.00
O863   O     0.37291   0.10655   0.75000   0.00000  Uiso   1.00
O864   O     0.62709   0.22678   0.75000   0.00000  Uiso   1.00
O865   O     0.62706   0.10654   0.75001   0.00000  Uiso   1.00
O866   O     0.37294   0.22679   0.75000   0.00000  Uiso   1.00
O867   O     0.35186   0.16668   0.81491   0.00000  Uiso   1.00
O868   O     0.64814   0.16666   0.68509   0.00000  Uiso   1.00
O869   O     0.60600   0.16667   0.81492   0.00000  Uiso   1.00
O870   O     0.39400   0.16667   0.68508   0.00000  Uiso   1.00
O871   O     0.44567   0.12745   0.61414   0.00000  Uiso   1.00
C872   C     0.44186   0.08650   0.60008   0.00000  Uiso   1.00
H873   H     0.47886   0.07289   0.59097   0.00000  Uiso   1.00
H874   H     0.42747   0.08367   0.56986   0.00000  Uiso   1.00
C875   C     0.40996   0.06164   0.63898   0.00000  Uiso   1.00
H876   H     0.42488   0.06368   0.66873   0.00000  Uiso   1.00
H877   H     0.37272   0.07476   0.64800   0.00000  Uiso   1.00
C878   C     0.40754   0.01649   0.62662   0.00000  Uiso   1.00
H879   H     0.39184   0.01363   0.59746   0.00000  Uiso   1.00
H880   H     0.38424   0.33270   0.65555   0.00000  Uiso   1.00
H881   H     0.44432   0.00250   0.61818   0.00000  Uiso   1.00
O882   O     0.55076   0.19950   0.88714   0.00000  Uiso   1.00
C883   C     0.55539   0.24063   0.89976   0.00000  Uiso   1.00
H884   H     0.59312   0.25167   0.88519   0.00000  Uiso   1.00
H885   H     0.54627   0.24383   0.93702   0.00000  Uiso   1.00
C886   C     0.52012   0.26793   0.88275   0.00000  Uiso   1.00
H887   H     0.48252   0.25660   0.89680   0.00000  Uiso   1.00
H888   H     0.52212   0.29985   0.89475   0.00000  Uiso   1.00
C889   C     0.53183   0.26855   0.83153   0.00000  Uiso   1.00
H890   H     0.56921   0.28001   0.81725   0.00000  Uiso   1.00
H891   H     0.50617   0.28938   0.82051   0.00000  Uiso   1.00
H892   H     0.52851   0.23724   0.81856   0.00000  Uiso   1.00
F893   F     0.63271   0.19808   0.61038   0.00000  Uiso   1.00
F894   F     0.36850   0.13555   0.88893   0.00000  Uiso   1.00
F895   F     0.51981   0.16698   0.59180   0.00000  Uiso   1.00
F896   F     0.47940   0.15651   0.90842   0.00000  Uiso   1.00
F897   F     0.59406   0.29363   0.72314   0.00000  Uiso   1.00
F898   F     0.40719   0.03969   0.77460   0.00000  Uiso   1.00
F899   F     0.53209   0.11564   0.80682   0.00000  Uiso   1.00
F900   F     0.46789   0.21779   0.69328   0.00000  Uiso   1.00
F901   F     0.43618   0.11588   0.80687   0.00000  Uiso   1.00
F902   F     0.56383   0.21744   0.69312   0.00000  Uiso   1.00
C903   C     0.66675   0.08738   0.75026   0.00000  Uiso   1.00
C904   C     0.66669   0.24595   0.74944   0.00000  Uiso   1.00
C905   C     0.86168   0.15772   0.54760   0.00000  Uiso   1.00
C906   C     0.80423   0.16686   0.95234   0.00000  Uiso   1.00
C907   C     0.90913   0.14801   0.52509   0.00000  Uiso   1.00
C908   C     0.75709   0.17765   0.97452   0.00000  Uiso   1.00
C909   C     0.96344   0.02199   0.73730   0.00000  Uiso   1.00
C910   C     0.70394   0.31137   0.76122   0.00000  Uiso   1.00
C911   C     0.96323   0.31278   0.73650   0.00000  Uiso   1.00
C912   C     0.70431   0.02057   0.76177   0.00000  Uiso   1.00
C913   C     0.66670   0.29058   0.74893   0.00000  Uiso   1.00
C914   C     0.66713   0.04277   0.74997   0.00000  Uiso   1.00
C915   C     0.85019   0.14132   0.77839   0.00000  Uiso   1.00
C916   C     0.81647   0.19207   0.72167   0.00000  Uiso   1.00
C917   C     0.80065   0.14136   0.77839   0.00000  Uiso   1.00
C918   C     0.86601   0.19200   0.72164   0.00000  Uiso   1.00
C919   C     0.97284   0.16633   0.83620   0.00000  Uiso   1.00
C920   C     0.69378   0.16664   0.66385   0.00000  Uiso   1.00
C921   C     0.95780   0.16291   0.88557   0.00000  Uiso   1.00
C922   C     0.70866   0.16826   0.61449   0.00000  Uiso   1.00
C923   C     0.97240   0.14102   0.95616   0.00000  Uiso   1.00
C924   C     0.69448   0.18812   0.54320   0.00000  Uiso   1.00
C925   C     0.98884   0.14622   0.90977   0.00000  Uiso   1.00
C926   C     0.67826   0.18515   0.58978   0.00000  Uiso   1.00
C927   C     0.91015   0.17405   0.90853   0.00000  Uiso   1.00
C928   C     0.75526   0.15433   0.59189   0.00000  Uiso   1.00
C929   C     0.89080   0.16151   0.95377   0.00000  Uiso   1.00
C930   C     0.77511   0.16500   0.54616   0.00000  Uiso   1.00
C931   C     0.92393   0.14918   0.97836   0.00000  Uiso   1.00
C932   C     0.74242   0.17784   0.52123   0.00000  Uiso   1.00
C933   C     0.84039   0.16362   0.97607   0.00000  Uiso   1.00
C934   C     0.82546   0.16146   0.52393   0.00000  Uiso   1.00
Cu935  Cu    0.71355   0.16667   0.75000   0.00000  Uiso   1.00
Cu936  Cu    0.95311   0.16666   0.75000   0.00000  Uiso   1.00
H937   H     0.93526   0.14254   0.54440   0.00000  Uiso   1.00
H938   H     0.73121   0.18341   0.95505   0.00000  Uiso   1.00
H939   H     0.99743   0.13009   0.97472   0.00000  Uiso   1.00
H940   H     0.66980   0.19917   0.52432   0.00000  Uiso   1.00
H941   H     0.93487   0.03865   0.72748   0.00000  Uiso   1.00
H942   H     0.73257   0.29474   0.77100   0.00000  Uiso   1.00
N943   N     0.78403   0.16668   0.74999   0.00000  Uiso   1.00
N944   N     0.88264   0.16666   0.75001   0.00000  Uiso   1.00
O945   O     0.70625   0.10655   0.75000   0.00000  Uiso   1.00
O946   O     0.96042   0.22678   0.75000   0.00000  Uiso   1.00
O947   O     0.96039   0.10654   0.75001   0.00000  Uiso   1.00
O948   O     0.70628   0.22679   0.75000   0.00000  Uiso   1.00
O949   O     0.68519   0.16668   0.81491   0.00000  Uiso   1.00
O950   O     0.98148   0.16666   0.68509   0.00000  Uiso   1.00
O951   O     0.93933   0.16667   0.81492   0.00000  Uiso   1.00
O952   O     0.72733   0.16667   0.68508   0.00000  Uiso   1.00
O953   O     0.77900   0.12745   0.61414   0.00000  Uiso   1.00
C954   C     0.77520   0.08650   0.60008   0.00000  Uiso   1.00
H955   H     0.81219   0.07289   0.59097   0.00000  Uiso   1.00
H956   H     0.76080   0.08367   0.56986   0.00000  Uiso   1.00
C957   C     0.74330   0.06164   0.63898   0.00000  Uiso   1.00
H958   H     0.75821   0.06368   0.66873   0.00000  Uiso   1.00
H959   H     0.70605   0.07476   0.64800   0.00000  Uiso   1.00
C960   C     0.74087   0.01649   0.62662   0.00000  Uiso   1.00
H961   H     0.72517   0.01363   0.59746   0.00000  Uiso   1.00
H962   H     0.71757   0.33270   0.65555   0.00000  Uiso   1.00
H963   H     0.77766   0.00250   0.61818   0.00000  Uiso   1.00
O964   O     0.88409   0.19950   0.88714   0.00000  Uiso   1.00
C965   C     0.88872   0.24063   0.89976   0.00000  Uiso   1.00
H966   H     0.92645   0.25167   0.88519   0.00000  Uiso   1.00
H967   H     0.87960   0.24383   0.93702   0.00000  Uiso   1.00
C968   C     0.85345   0.26793   0.88275   0.00000  Uiso   1.00
H969   H     0.81585   0.25660   0.89680   0.00000  Uiso   1.00
H970   H     0.85545   0.29985   0.89475   0.00000  Uiso   1.00
C971   C     0.86516   0.26855   0.83153   0.00000  Uiso   1.00
H972   H     0.90254   0.28001   0.81725   0.00000  Uiso   1.00
H973   H     0.83950   0.28938   0.82051   0.00000  Uiso   1.00
H974   H     0.86184   0.23724   0.81856   0.00000  Uiso   1.00
F975   F     0.96604   0.19808   0.61038   0.00000  Uiso   1.00
F976   F     0.70184   0.13555   0.88893   0.00000  Uiso   1.00
F977   F     0.85314   0.16698   0.59180   0.00000  Uiso   1.00
F978   F     0.81274   0.15651   0.90842   0.00000  Uiso   1.00
F979   F     0.92739   0.29363   0.72314   0.00000  Uiso   1.00
F980   F     0.74052   0.03969   0.77460   0.00000  Uiso   1.00
F981   F     0.86542   0.11564   0.80682   0.00000  Uiso   1.00
F982   F     0.80123   0.21779   0.69328   0.00000  Uiso   1.00
F983   F     0.76951   0.11588   0.80687   0.00000  Uiso   1.00
F984   F     0.89717   0.21744   0.69312   0.00000  Uiso   1.00
C985   C     0.00008   0.42072   0.75026   0.00000  Uiso   1.00
C986   C     0.00003   0.57929   0.74944   0.00000  Uiso   1.00
C987   C     0.19501   0.49105   0.54760   0.00000  Uiso   1.00
C988   C     0.13756   0.50020   0.95234   0.00000  Uiso   1.00
C989   C     0.24246   0.48135   0.52509   0.00000  Uiso   1.00
C990   C     0.09043   0.51098   0.97452   0.00000  Uiso   1.00
C991   C     0.29677   0.35533   0.73730   0.00000  Uiso   1.00
C992   C     0.03728   0.64470   0.76122   0.00000  Uiso   1.00
C993   C     0.29657   0.64612   0.73650   0.00000  Uiso   1.00
C994   C     0.03764   0.35391   0.76177   0.00000  Uiso   1.00
C995   C     0.00003   0.62391   0.74893   0.00000  Uiso   1.00
C996   C     0.00046   0.37610   0.74997   0.00000  Uiso   1.00
C997   C     0.18352   0.47465   0.77839   0.00000  Uiso   1.00
C998   C     0.14980   0.52540   0.72167   0.00000  Uiso   1.00
C999   C     0.13398   0.47470   0.77839   0.00000  Uiso   1.00
C1000  C     0.19935   0.52533   0.72164   0.00000  Uiso   1.00
C1001  C     0.30618   0.49967   0.83620   0.00000  Uiso   1.00
C1002  C     0.02711   0.49998   0.66385   0.00000  Uiso   1.00
C1003  C     0.29114   0.49624   0.88557   0.00000  Uiso   1.00
C1004  C     0.04200   0.50160   0.61449   0.00000  Uiso   1.00
C1005  C     0.30574   0.47435   0.95616   0.00000  Uiso   1.00
C1006  C     0.02781   0.52145   0.54320   0.00000  Uiso   1.00
C1007  C     0.32217   0.47956   0.90977   0.00000  Uiso   1.00
C1008  C     0.01159   0.51848   0.58978   0.00000  Uiso   1.00
C1009  C     0.24349   0.50738   0.90853   0.00000  Uiso   1.00
C1010  C     0.08859   0.48766   0.59189   0.00000  Uiso   1.00
C1011  C     0.22413   0.49485   0.95377   0.00000  Uiso   1.00
C1012  C     0.10844   0.49833   0.54616   0.00000  Uiso   1.00
C1013  C     0.25727   0.48251   0.97836   0.00000  Uiso   1.00
C1014  C     0.07575   0.51117   0.52123   0.00000  Uiso   1.00
C1015  C     0.17372   0.49696   0.97607   0.00000  Uiso   1.00
C1016  C     0.15879   0.49479   0.52393   0.00000  Uiso   1.00
Cu1017 Cu    0.04689   0.50001   0.75000   0.00000  Uiso   1.00
Cu1018 Cu    0.28645   0.49999   0.75000   0.00000  Uiso   1.00
H1019  H     0.26859   0.47587   0.54440   0.00000  Uiso   1.00
H1020  H     0.06454   0.51675   0.95505   0.00000  Uiso   1.00
H1021  H     0.33077   0.46343   0.97472   0.00000  Uiso   1.00
H1022  H     0.00314   0.53250   0.52432   0.00000  Uiso   1.00
H1023  H     0.26820   0.37198   0.72748   0.00000  Uiso   1.00
H1024  H     0.06590   0.62808   0.77100   0.00000  Uiso   1.00
N1025  N     0.11736   0.50001   0.74999   0.00000  Uiso   1.00
N1026  N     0.21597   0.49999   0.75001   0.00000  Uiso   1.00
O1027  O     0.03958   0.43989   0.75000   0.00000  Uiso   1.00
O1028  O     0.29375   0.56011   0.75000   0.00000  Uiso   1.00
O1029  O     0.29372   0.43988   0.75001   0.00000  Uiso   1.00
O1030  O     0.03961   0.56012   0.75000   0.00000  Uiso   1.00
O1031  O     0.01852   0.50001   0.81491   0.00000  Uiso   1.00
O1032  O     0.31481   0.49999   0.68509   0.00000  Uiso   1.00
O1033  O     0.27267   0.50000   0.81492   0.00000  Uiso   1.00
O1034  O     0.06067   0.50000   0.68508   0.00000  Uiso   1.00
O1035  O     0.11233   0.46078   0.61414   0.00000  Uiso   1.00
C1036  C     0.10853   0.41984   0.60008   0.00000  Uiso   1.00
H1037  H     0.14552   0.40622   0.59097   0.00000  Uiso   1.00
H1038  H     0.09413   0.41701   0.56986   0.00000  Uiso   1.00
C1039  C     0.07663   0.39497   0.63898   0.00000  Uiso   1.00
H1040  H     0.09155   0.39701   0.66873   0.00000  Uiso   1.00
H1041  H     0.03938   0.40809   0.64800   0.00000  Uiso   1.00
C1042  C     0.07420   0.34982   0.62662   0.00000  Uiso   1.00
H1043  H     0.05850   0.34697   0.59746   0.00000  Uiso   1.00
H1044  H     0.05090   0.66603   0.65555   0.00000  Uiso   1.00
H1045  H     0.11099   0.33584   0.61818   0.00000  Uiso   1.00
O1046  O     0.21742   0.53283   0.88714   0.00000  Uiso   1.00
C1047  C     0.22205   0.57396   0.89976   0.00000  Uiso   1.00
H1048  H     0.25978   0.58500   0.88519   0.00000  Uiso   1.00
H1049  H     0.21294   0.57716   0.93702   0.00000  Uiso   1.00
C1050  C     0.18679   0.60127   0.88275   0.00000  Uiso   1.00
H1051  H     0.14918   0.58993   0.89680   0.00000  Uiso   1.00
H1052  H     0.18879   0.63319   0.89475   0.00000  Uiso   1.00
C1053  C     0.19850   0.60188   0.83153   0.00000  Uiso   1.00
H1054  H     0.23588   0.61334   0.81725   0.00000  Uiso   1.00
H1055  H     0.17284   0.62271   0.82051   0.00000  Uiso   1.00
H1056  H     0.19517   0.57057   0.81856   0.00000  Uiso   1.00
F1057  F     0.29938   0.53141   0.61038   0.00000  Uiso   1.00
F1058  F     0.03517   0.46888   0.88893   0.00000  Uiso   1.00
F1059  F     0.18647   0.50031   0.59180   0.00000  Uiso   1.00
F1060  F     0.14607   0.48985   0.90842   0.00000  Uiso   1.00
F1061  F     0.26072   0.62697   0.72314   0.00000  Uiso   1.00
F1062  F     0.07385   0.37302   0.77460   0.00000  Uiso   1.00
F1063  F     0.19875   0.44897   0.80682   0.00000  Uiso   1.00
F1064  F     0.13456   0.55112   0.69328   0.00000  Uiso   1.00
F1065  F     0.10285   0.44921   0.80687   0.00000  Uiso   1.00
F1066  F     0.23050   0.55077   0.69312   0.00000  Uiso   1.00
C1067  C     0.33341   0.42072   0.75026   0.00000  Uiso   1.00
C1068  C     0.33336   0.57929   0.74944   0.00000  Uiso   1.00
C1069  C     0.52834   0.49105   0.54760   0.00000  Uiso   1.00
C1070  C     0.47089   0.50020   0.95234   0.00000  Uiso   1.00
C1071  C     0.57580   0.48135   0.52509   0.00000  Uiso   1.00
C1072  C     0.42376   0.51098   0.97452   0.00000  Uiso   1.00
C1073  C     0.63011   0.35533   0.73730   0.00000  Uiso   1.00
C1074  C     0.37061   0.64470   0.76122   0.00000  Uiso   1.00
C1075  C     0.62990   0.64612   0.73650   0.00000  Uiso   1.00
C1076  C     0.37098   0.35391   0.76177   0.00000  Uiso   1.00
C1077  C     0.33336   0.62391   0.74893   0.00000  Uiso   1.00
C1078  C     0.33380   0.37610   0.74997   0.00000  Uiso   1.00
C1079  C     0.51685   0.47465   0.77839   0.00000  Uiso   1.00
C1080  C     0.48313   0.52540   0.72167   0.00000  Uiso   1.00
C1081  C     0.46732   0.47470   0.77839   0.00000  Uiso   1.00
C1082  C     0.53268   0.52533   0.72164   0.00000  Uiso   1.00
C1083  C     0.63951   0.49967   0.83620   0.00000  Uiso   1.00
C1084  C     0.36045   0.49998   0.66385   0.00000  Uiso   1.00
C1085  C     0.62447   0.49624   0.88557   0.00000  Uiso   1.00
C1086  C     0.37533   0.50160   0.61449   0.00000  Uiso   1.00
C1087  C     0.63907   0.47435   0.95616   0.00000  Uiso   1.00
C1088  C     0.36114   0.52145   0.54320   0.00000  Uiso   1.00
C1089  C     0.65551   0.47956   0.90977   0.00000  Uiso   1.00
C1090  C     0.34493   0.51848   0.58978   0.00000  Uiso   1.00
C1091  C     0.57682   0.50738   0.90853   0.00000  Uiso   1.00
C1092  C     0.42192   0.48766   0.59189   0.00000  Uiso   1.00
C1093  C     0.55746   0.49485   0.95377   0.00000  Uiso   1.00
C1094  C     0.44177   0.49833   0.54616   0.00000  Uiso   1.00
C1095  C     0.59060   0.48251   0.97836   0.00000  Uiso   1.00
C1096  C     0.40909   0.51117   0.52123   0.00000  Uiso   1.00
C1097  C     0.50705   0.49696   0.97607   0.00000  Uiso   1.00
C1098  C     0.49213   0.49479   0.52393   0.00000  Uiso   1.00
Cu1099 Cu    0.38022   0.50001   0.75000   0.00000  Uiso   1.00
Cu1100 Cu    0.61978   0.49999   0.75000   0.00000  Uiso   1.00
H1101  H     0.60193   0.47587   0.54440   0.00000  Uiso   1.00
H1102  H     0.39787   0.51675   0.95505   0.00000  Uiso   1.00
H1103  H     0.66410   0.46343   0.97472   0.00000  Uiso   1.00
H1104  H     0.33647   0.53250   0.52432   0.00000  Uiso   1.00
H1105  H     0.60153   0.37198   0.72748   0.00000  Uiso   1.00
H1106  H     0.39924   0.62808   0.77100   0.00000  Uiso   1.00
N1107  N     0.45069   0.50001   0.74999   0.00000  Uiso   1.00
N1108  N     0.54931   0.49999   0.75001   0.00000  Uiso   1.00
O1109  O     0.37291   0.43989   0.75000   0.00000  Uiso   1.00
O1110  O     0.62709   0.56011   0.75000   0.00000  Uiso   1.00
O1111  O     0.62706   0.43988   0.75001   0.00000  Uiso   1.00
O1112  O     0.37294   0.56012   0.75000   0.00000  Uiso   1.00
O1113  O     0.35186   0.50001   0.81491   0.00000  Uiso   1.00
O1114  O     0.64814   0.49999   0.68509   0.00000  Uiso   1.00
O1115  O     0.60600   0.50000   0.81492   0.00000  Uiso   1.00
O1116  O     0.39400   0.50000   0.68508   0.00000  Uiso   1.00
O1117  O     0.44567   0.46078   0.61414   0.00000  Uiso   1.00
C1118  C     0.44186   0.41984   0.60008   0.00000  Uiso   1.00
H1119  H     0.47886   0.40622   0.59097   0.00000  Uiso   1.00
H1120  H     0.42747   0.41701   0.56986   0.00000  Uiso   1.00
C1121  C     0.40996   0.39497   0.63898   0.00000  Uiso   1.00
H1122  H     0.42488   0.39701   0.66873   0.00000  Uiso   1.00
H1123  H     0.37272   0.40809   0.64800   0.00000  Uiso   1.00
C1124  C     0.40754   0.34982   0.62662   0.00000  Uiso   1.00
H1125  H     0.39184   0.34697   0.59746   0.00000  Uiso   1.00
H1126  H     0.38424   0.66603   0.65555   0.00000  Uiso   1.00
H1127  H     0.44432   0.33584   0.61818   0.00000  Uiso   1.00
O1128  O     0.55076   0.53283   0.88714   0.00000  Uiso   1.00
C1129  C     0.55539   0.57396   0.89976   0.00000  Uiso   1.00
H1130  H     0.59312   0.58500   0.88519   0.00000  Uiso   1.00
H1131  H     0.54627   0.57716   0.93702   0.00000  Uiso   1.00
C1132  C     0.52012   0.60127   0.88275   0.00000  Uiso   1.00
H1133  H     0.48252   0.58993   0.89680   0.00000  Uiso   1.00
H1134  H     0.52212   0.63319   0.89475   0.00000  Uiso   1.00
C1135  C     0.53183   0.60188   0.83153   0.00000  Uiso   1.00
H1136  H     0.56921   0.61334   0.81725   0.00000  Uiso   1.00
H1137  H     0.50617   0.62271   0.82051   0.00000  Uiso   1.00
H1138  H     0.52851   0.57057   0.81856   0.00000  Uiso   1.00
F1139  F     0.63271   0.53141   0.61038   0.00000  Uiso   1.00
F1140  F     0.36850   0.46888   0.88893   0.00000  Uiso   1.00
F1141  F     0.51981   0.50031   0.59180   0.00000  Uiso   1.00
F1142  F     0.47940   0.48985   0.90842   0.00000  Uiso   1.00
F1143  F     0.59406   0.62697   0.72314   0.00000  Uiso   1.00
F1144  F     0.40719   0.37302   0.77460   0.00000  Uiso   1.00
F1145  F     0.53209   0.44897   0.80682   0.00000  Uiso   1.00
F1146  F     0.46789   0.55112   0.69328   0.00000  Uiso   1.00
F1147  F     0.43618   0.44921   0.80687   0.00000  Uiso   1.00
F1148  F     0.56383   0.55077   0.69312   0.00000  Uiso   1.00
C1149  C     0.66675   0.42072   0.75026   0.00000  Uiso   1.00
C1150  C     0.66669   0.57929   0.74944   0.00000  Uiso   1.00
C1151  C     0.86168   0.49105   0.54760   0.00000  Uiso   1.00
C1152  C     0.80423   0.50020   0.95234   0.00000  Uiso   1.00
C1153  C     0.90913   0.48135   0.52509   0.00000  Uiso   1.00
C1154  C     0.75709   0.51098   0.97452   0.00000  Uiso   1.00
C1155  C     0.96344   0.35533   0.73730   0.00000  Uiso   1.00
C1156  C     0.70394   0.64470   0.76122   0.00000  Uiso   1.00
C1157  C     0.96323   0.64612   0.73650   0.00000  Uiso   1.00
C1158  C     0.70431   0.35391   0.76177   0.00000  Uiso   1.00
C1159  C     0.66670   0.62391   0.74893   0.00000  Uiso   1.00
C1160  C     0.66713   0.37610   0.74997   0.00000  Uiso   1.00
C1161  C     0.85019   0.47465   0.77839   0.00000  Uiso   1.00
C1162  C     0.81647   0.52540   0.72167   0.00000  Uiso   1.00
C1163  C     0.80065   0.47470   0.77839   0.00000  Uiso   1.00
C1164  C     0.86601   0.52533   0.72164   0.00000  Uiso   1.00
C1165  C     0.97284   0.49967   0.83620   0.00000  Uiso   1.00
C1166  C     0.69378   0.49998   0.66385   0.00000  Uiso   1.00
C1167  C     0.95780   0.49624   0.88557   0.00000  Uiso   1.00
C1168  C     0.70866   0.50160   0.61449   0.00000  Uiso   1.00
C1169  C     0.97240   0.47435   0.95616   0.00000  Uiso   1.00
C1170  C     0.69448   0.52145   0.54320   0.00000  Uiso   1.00
C1171  C     0.98884   0.47956   0.90977   0.00000  Uiso   1.00
C1172  C     0.67826   0.51848   0.58978   0.00000  Uiso   1.00
C1173  C     0.91015   0.50738   0.90853   0.00000  Uiso   1.00
C1174  C     0.75526   0.48766   0.59189   0.00000  Uiso   1.00
C1175  C     0.89080   0.49485   0.95377   0.00000  Uiso   1.00
C1176  C     0.77511   0.49833   0.54616   0.00000  Uiso   1.00
C1177  C     0.92393   0.48251   0.97836   0.00000  Uiso   1.00
C1178  C     0.74242   0.51117   0.52123   0.00000  Uiso   1.00
C1179  C     0.84039   0.49696   0.97607   0.00000  Uiso   1.00
C1180  C     0.82546   0.49479   0.52393   0.00000  Uiso   1.00
Cu1181 Cu    0.71355   0.50001   0.75000   0.00000  Uiso   1.00
Cu1182 Cu    0.95311   0.49999   0.75000   0.00000  Uiso   1.00
H1183  H     0.93526   0.47587   0.54440   0.00000  Uiso   1.00
H1184  H     0.73121   0.51675   0.95505   0.00000  Uiso   1.00
H1185  H     0.99743   0.46343   0.97472   0.00000  Uiso   1.00
H1186  H     0.66980   0.53250   0.52432   0.00000  Uiso   1.00
H1187  H     0.93487   0.37198   0.72748   0.00000  Uiso   1.00
H1188  H     0.73257   0.62808   0.77100   0.00000  Uiso   1.00
N1189  N     0.78403   0.50001   0.74999   0.00000  Uiso   1.00
N1190  N     0.88264   0.49999   0.75001   0.00000  Uiso   1.00
O1191  O     0.70625   0.43989   0.75000   0.00000  Uiso   1.00
O1192  O     0.96042   0.56011   0.75000   0.00000  Uiso   1.00
O1193  O     0.96039   0.43988   0.75001   0.00000  Uiso   1.00
O1194  O     0.70628   0.56012   0.75000   0.00000  Uiso   1.00
O1195  O     0.68519   0.50001   0.81491   0.00000  Uiso   1.00
O1196  O     0.98148   0.49999   0.68509   0.00000  Uiso   1.00
O1197  O     0.93933   0.50000   0.81492   0.00000  Uiso   1.00
O1198  O     0.72733   0.50000   0.68508   0.00000  Uiso   1.00
O1199  O     0.77900   0.46078   0.61414   0.00000  Uiso   1.00
C1200  C     0.77520   0.41984   0.60008   0.00000  Uiso   1.00
H1201  H     0.81219   0.40622   0.59097   0.00000  Uiso   1.00
H1202  H     0.76080   0.41701   0.56986   0.00000  Uiso   1.00
C1203  C     0.74330   0.39497   0.63898   0.00000  Uiso   1.00
H1204  H     0.75821   0.39701   0.66873   0.00000  Uiso   1.00
H1205  H     0.70605   0.40809   0.64800   0.00000  Uiso   1.00
C1206  C     0.74087   0.34982   0.62662   0.00000  Uiso   1.00
H1207  H     0.72517   0.34697   0.59746   0.00000  Uiso   1.00
H1208  H     0.71757   0.66603   0.65555   0.00000  Uiso   1.00
H1209  H     0.77766   0.33584   0.61818   0.00000  Uiso   1.00
O1210  O     0.88409   0.53283   0.88714   0.00000  Uiso   1.00
C1211  C     0.88872   0.57396   0.89976   0.00000  Uiso   1.00
H1212  H     0.92645   0.58500   0.88519   0.00000  Uiso   1.00
H1213  H     0.87960   0.57716   0.93702   0.00000  Uiso   1.00
C1214  C     0.85345   0.60127   0.88275   0.00000  Uiso   1.00
H1215  H     0.81585   0.58993   0.89680   0.00000  Uiso   1.00
H1216  H     0.85545   0.63319   0.89475   0.00000  Uiso   1.00
C1217  C     0.86516   0.60188   0.83153   0.00000  Uiso   1.00
H1218  H     0.90254   0.61334   0.81725   0.00000  Uiso   1.00
H1219  H     0.83950   0.62271   0.82051   0.00000  Uiso   1.00
H1220  H     0.86184   0.57057   0.81856   0.00000  Uiso   1.00
F1221  F     0.96604   0.53141   0.61038   0.00000  Uiso   1.00
F1222  F     0.70184   0.46888   0.88893   0.00000  Uiso   1.00
F1223  F     0.85314   0.50031   0.59180   0.00000  Uiso   1.00
F1224  F     0.81274   0.48985   0.90842   0.00000  Uiso   1.00
F1225  F     0.92739   0.62697   0.72314   0.00000  Uiso   1.00
F1226  F     0.74052   0.37302   0.77460   0.00000  Uiso   1.00
F1227  F     0.86542   0.44897   0.80682   0.00000  Uiso   1.00
F1228  F     0.80123   0.55112   0.69328   0.00000  Uiso   1.00
F1229  F     0.76951   0.44921   0.80687   0.00000  Uiso   1.00
F1230  F     0.89717   0.55077   0.69312   0.00000  Uiso   1.00
C1231  C     0.00008   0.75405   0.75026   0.00000  Uiso   1.00
C1232  C     0.00003   0.91262   0.74944   0.00000  Uiso   1.00
C1233  C     0.19501   0.82439   0.54760   0.00000  Uiso   1.00
C1234  C     0.13756   0.83353   0.95234   0.00000  Uiso   1.00
C1235  C     0.24246   0.81468   0.52509   0.00000  Uiso   1.00
C1236  C     0.09043   0.84431   0.97452   0.00000  Uiso   1.00
C1237  C     0.29677   0.68866   0.73730   0.00000  Uiso   1.00
C1238  C     0.03728   0.97804   0.76122   0.00000  Uiso   1.00
C1239  C     0.29657   0.97945   0.73650   0.00000  Uiso   1.00
C1240  C     0.03764   0.68724   0.76177   0.00000  Uiso   1.00
C1241  C     0.00003   0.95725   0.74893   0.00000  Uiso   1.00
C1242  C     0.00046   0.70944   0.74997   0.00000  Uiso   1.00
C1243  C     0.18352   0.80798   0.77839   0.00000  Uiso   1.00
C1244  C     0.14980   0.85874   0.72167   0.00000  Uiso   1.00
C1245  C     0.13398   0.80803   0.77839   0.00000  Uiso   1.00
C1246  C     0.19935   0.85866   0.72164   0.00000  Uiso   1.00
C1247  C     0.30618   0.83300   0.83620   0.00000  Uiso   1.00
C1248  C     0.02711   0.83331   0.66385   0.00000  Uiso   1.00
C1249  C     0.29114   0.82957   0.88557   0.00000  Uiso   1.00
C1250  C     0.04200   0.83493   0.61449   0.00000  Uiso   1.00
C1251  C     0.30574   0.80768   0.95616   0.00000  Uiso   1.00
C1252  C     0.02781   0.85478   0.54320   0.00000  Uiso   1.00
C1253  C     0.32217   0.81289   0.90977   0.00000  Uiso   1.00
C1254  C     0.01159   0.85181   0.58978   0.00000  Uiso   1.00
C1255  C     0.24349   0.84072   0.90853   0.00000  Uiso   1.00
C1256  C     0.08859   0.82100   0.59189   0.00000  Uiso   1.00
C1257  C     0.22413   0.82818   0.95377   0.00000  Uiso   1.00
C1258  C     0.10844   0.83167   0.54616   0.00000  Uiso   1.00
C1259  C     0.25727   0.81585   0.97836   0.00000  Uiso   1.00
C1260  C     0.07575   0.84451   0.52123   0.00000  Uiso   1.00
C1261  C     0.17372   0.83029   0.97607   0.00000  Uiso   1.00
C1262  C     0.15879   0.82813   0.52393   0.00000  Uiso   1.00
Cu1263 Cu    0.04689   0.83334   0.75000   0.00000  Uiso   1.00
Cu1264 Cu    0.28645   0.83333   0.75000   0.00000  Uiso   1.00
H1265  H     0.26859   0.80920   0.54440   0.00000  Uiso   1.00
H1266  H     0.06454   0.85008   0.95505   0.00000  Uiso   1.00
H1267  H     0.33077   0.79676   0.97472   0.00000  Uiso   1.00
H1268  H     0.00314   0.86584   0.52432   0.00000  Uiso   1.00
H1269  H     0.26820   0.70532   0.72748   0.00000  Uiso   1.00
H1270  H     0.06590   0.96141   0.77100   0.00000  Uiso   1.00
N1271  N     0.11736   0.83334   0.74999   0.00000  Uiso   1.00
N1272  N     0.21597   0.83332   0.75001   0.00000  Uiso   1.00
O1273  O     0.03958   0.77322   0.75000   0.00000  Uiso   1.00
O1274  O     0.29375   0.89345   0.75000   0.00000  Uiso   1.00
O1275  O     0.29372   0.77321   0.75001   0.00000  Uiso   1.00
O1276  O     0.03961   0.89346   0.75000   0.00000  Uiso   1.00
O1277  O     0.01852   0.83334   0.81491   0.00000  Uiso   1.00
O1278  O     0.31481   0.83332   0.68509   0.00000  Uiso   1.00
O1279  O     0.27267   0.83333   0.81492   0.00000  Uiso   1.00
O1280  O     0.06067   0.83333   0.68508   0.00000  Uiso   1.00
O1281  O     0.11233   0.79412   0.61414   0.00000  Uiso   1.00
C1282  C     0.10853   0.75317   0.60008   0.00000  Uiso   1.00
H1283  H     0.14552   0.73956   0.59097   0.00000  Uiso   1.00
H1284  H     0.09413   0.75034   0.56986   0.00000  Uiso   1.00
C1285  C     0.07663   0.72830   0.63898   0.00000  Uiso   1.00
H1286  H     0.09155   0.73034   0.66873   0.00000  Uiso   1.00
H1287  H     0.03938   0.74143   0.64800   0.00000  Uiso   1.00
C1288  C     0.07420   0.68316   0.62662   0.00000  Uiso   1.00
H1289  H     0.05850   0.68030   0.59746   0.00000  Uiso   1.00
H1290  H     0.05090   0.99937   0.65555   0.00000  Uiso   1.00
H1291  H     0.11099   0.66917   0.61818   0.00000  Uiso   1.00
O1292  O     0.21742   0.86617   0.88714   0.00000  Uiso   1.00
C1293  C     0.22205   0.90729   0.89976   0.00000  Uiso   1.00
H1294  H     0.25978   0.91833   0.88519   0.00000  Uiso   1.00
H1295  H     0.21294   0.91050   0.93702   0.00000  Uiso   1.00
C1296  C     0.18679   0.93460   0.88275   0.00000  Uiso   1.00
H1297  H     0.14918   0.92326   0.89680   0.00000  Uiso   1.00
H1298  H     0.18879   0.96652   0.89475   0.00000  Uiso   1.00
C1299  C     0.19850   0.93522   0.83153   0.00000  Uiso   1.00
H1300  H     0.23588   0.94668   0.81725   0.00000  Uiso   1.00
H1301  H     0.17284   0.95604   0.82051   0.00000  Uiso   1.00
H1302  H     0.19517   0.90390   0.81856   0.00000  Uiso   1.00
F1303  F     0.29938   0.86475   0.61038   0.00000  Uiso   1.00
F1304  F     0.03517   0.80221   0.88893   0.00000  Uiso   1.00
F1305  F     0.18647   0.83364   0.59180   0.00000  Uiso   1.00
F1306  F     0.14607   0.82318   0.90842   0.00000  Uiso   1.00
F1307  F     0.26072   0.96030   0.72314   0.00000  Uiso   1.00
F1308  F     0.07385   0.70636   0.77460   0.00000  Uiso   1.00
F1309  F     0.19875   0.78230   0.80682   0.00000  Uiso   1.00
F1310  F     0.13456   0.88446   0.69328   0.00000  Uiso   1.00
F1311  F     0.10285   0.78255   0.80687   0.00000  Uiso   1.00
F1312  F     0.23050   0.88411   0.69312   0.00000  Uiso   1.00
C1313  C     0.33341   0.75405   0.75026   0.00000  Uiso   1.00
C1314  C     0.33336   0.91262   0.74944   0.00000  Uiso   1.00
C1315  C     0.52834   0.82439   0.54760   0.00000  Uiso   1.00
C1316  C     0.47089   0.83353   0.95234   0.00000  Uiso   1.00
C1317  C     0.57580   0.81468   0.52509   0.00000  Uiso   1.00
C1318  C     0.42376   0.84431   0.97452   0.00000  Uiso   1.00
C1319  C     0.63011   0.68866   0.73730   0.00000  Uiso   1.00
C1320  C     0.37061   0.97804   0.76122   0.00000  Uiso   1.00
C1321  C     0.62990   0.97945   0.73650   0.00000  Uiso   1.00
C1322  C     0.37098   0.68724   0.76177   0.00000  Uiso   1.00
C1323  C     0.33336   0.95725   0.74893   0.00000  Uiso   1.00
C1324  C     0.33380   0.70944   0.74997   0.00000  Uiso   1.00
C1325  C     0.51685   0.80798   0.77839   0.00000  Uiso   1.00
C1326  C     0.48313   0.85874   0.72167   0.00000  Uiso   1.00
C1327  C     0.46732   0.80803   0.77839   0.00000  Uiso   1.00
C1328  C     0.53268   0.85866   0.72164   0.00000  Uiso   1.00
C1329  C     0.63951   0.83300   0.83620   0.00000  Uiso   1.00
C1330  C     0.36045   0.83331   0.66385   0.00000  Uiso   1.00
C1331  C     0.62447   0.82957   0.88557   0.00000  Uiso   1.00
C1332  C     0.37533   0.83493   0.61449   0.00000  Uiso   1.00
C1333  C     0.63907   0.80768   0.95616   0.00000  Uiso   1.00
C1334  C     0.36114   0.85478   0.54320   0.00000  Uiso   1.00
C1335  C     0.65551   0.81289   0.90977   0.00000  Uiso   1.00
C1336  C     0.34493   0.85181   0.58978   0.00000  Uiso   1.00
C1337  C     0.57682   0.84072   0.90853   0.00000  Uiso   1.00
C1338  C     0.42192   0.82100   0.59189   0.00000  Uiso   1.00
C1339  C     0.55746   0.82818   0.95377   0.00000  Uiso   1.00
C1340  C     0.44177   0.83167   0.54616   0.00000  Uiso   1.00
C1341  C     0.59060   0.81585   0.97836   0.00000  Uiso   1.00
C1342  C     0.40909   0.84451   0.52123   0.00000  Uiso   1.00
C1343  C     0.50705   0.83029   0.97607   0.00000  Uiso   1.00
C1344  C     0.49213   0.82813   0.52393   0.00000  Uiso   1.00
Cu1345 Cu    0.38022   0.83334   0.75000   0.00000  Uiso   1.00
Cu1346 Cu    0.61978   0.83333   0.75000   0.00000  Uiso   1.00
H1347  H     0.60193   0.80920   0.54440   0.00000  Uiso   1.00
H1348  H     0.39787   0.85008   0.95505   0.00000  Uiso   1.00
H1349  H     0.66410   0.79676   0.97472   0.00000  Uiso   1.00
H1350  H     0.33647   0.86584   0.52432   0.00000  Uiso   1.00
H1351  H     0.60153   0.70532   0.72748   0.00000  Uiso   1.00
H1352  H     0.39924   0.96141   0.77100   0.00000  Uiso   1.00
N1353  N     0.45069   0.83334   0.74999   0.00000  Uiso   1.00
N1354  N     0.54931   0.83332   0.75001   0.00000  Uiso   1.00
O1355  O     0.37291   0.77322   0.75000   0.00000  Uiso   1.00
O1356  O     0.62709   0.89345   0.75000   0.00000  Uiso   1.00
O1357  O     0.62706   0.77321   0.75001   0.00000  Uiso   1.00
O1358  O     0.37294   0.89346   0.75000   0.00000  Uiso   1.00
O1359  O     0.35186   0.83334   0.81491   0.00000  Uiso   1.00
O1360  O     0.64814   0.83332   0.68509   0.00000  Uiso   1.00
O1361  O     0.60600   0.83333   0.81492   0.00000  Uiso   1.00
O1362  O     0.39400   0.83333   0.68508   0.00000  Uiso   1.00
O1363  O     0.44567   0.79412   0.61414   0.00000  Uiso   1.00
C1364  C     0.44186   0.75317   0.60008   0.00000  Uiso   1.00
H1365  H     0.47886   0.73956   0.59097   0.00000  Uiso   1.00
H1366  H     0.42747   0.75034   0.56986   0.00000  Uiso   1.00
C1367  C     0.40996   0.72830   0.63898   0.00000  Uiso   1.00
H1368  H     0.42488   0.73034   0.66873   0.00000  Uiso   1.00
H1369  H     0.37272   0.74143   0.64800   0.00000  Uiso   1.00
C1370  C     0.40754   0.68316   0.62662   0.00000  Uiso   1.00
H1371  H     0.39184   0.68030   0.59746   0.00000  Uiso   1.00
H1372  H     0.38424   0.99937   0.65555   0.00000  Uiso   1.00
H1373  H     0.44432   0.66917   0.61818   0.00000  Uiso   1.00
O1374  O     0.55076   0.86617   0.88714   0.00000  Uiso   1.00
C1375  C     0.55539   0.90729   0.89976   0.00000  Uiso   1.00
H1376  H     0.59312   0.91833   0.88519   0.00000  Uiso   1.00
H1377  H     0.54627   0.91050   0.93702   0.00000  Uiso   1.00
C1378  C     0.52012   0.93460   0.88275   0.00000  Uiso   1.00
H1379  H     0.48252   0.92326   0.89680   0.00000  Uiso   1.00
H1380  H     0.52212   0.96652   0.89475   0.00000  Uiso   1.00
C1381  C     0.53183   0.93522   0.83153   0.00000  Uiso   1.00
H1382  H     0.56921   0.94668   0.81725   0.00000  Uiso   1.00
H1383  H     0.50617   0.95604   0.82051   0.00000  Uiso   1.00
H1384  H     0.52851   0.90390   0.81856   0.00000  Uiso   1.00
F1385  F     0.63271   0.86475   0.61038   0.00000  Uiso   1.00
F1386  F     0.36850   0.80221   0.88893   0.00000  Uiso   1.00
F1387  F     0.51981   0.83364   0.59180   0.00000  Uiso   1.00
F1388  F     0.47940   0.82318   0.90842   0.00000  Uiso   1.00
F1389  F     0.59406   0.96030   0.72314   0.00000  Uiso   1.00
F1390  F     0.40719   0.70636   0.77460   0.00000  Uiso   1.00
F1391  F     0.53209   0.78230   0.80682   0.00000  Uiso   1.00
F1392  F     0.46789   0.88446   0.69328   0.00000  Uiso   1.00
F1393  F     0.43618   0.78255   0.80687   0.00000  Uiso   1.00
F1394  F     0.56383   0.88411   0.69312   0.00000  Uiso   1.00
C1395  C     0.66675   0.75405   0.75026   0.00000  Uiso   1.00
C1396  C     0.66669   0.91262   0.74944   0.00000  Uiso   1.00
C1397  C     0.86168   0.82439   0.54760   0.00000  Uiso   1.00
C1398  C     0.80423   0.83353   0.95234   0.00000  Uiso   1.00
C1399  C     0.90913   0.81468   0.52509   0.00000  Uiso   1.00
C1400  C     0.75709   0.84431   0.97452   0.00000  Uiso   1.00
C1401  C     0.96344   0.68866   0.73730   0.00000  Uiso   1.00
C1402  C     0.70394   0.97804   0.76122   0.00000  Uiso   1.00
C1403  C     0.96323   0.97945   0.73650   0.00000  Uiso   1.00
C1404  C     0.70431   0.68724   0.76177   0.00000  Uiso   1.00
C1405  C     0.66670   0.95725   0.74893   0.00000  Uiso   1.00
C1406  C     0.66713   0.70944   0.74997   0.00000  Uiso   1.00
C1407  C     0.85019   0.80798   0.77839   0.00000  Uiso   1.00
C1408  C     0.81647   0.85874   0.72167   0.00000  Uiso   1.00
C1409  C     0.80065   0.80803   0.77839   0.00000  Uiso   1.00
C1410  C     0.86601   0.85866   0.72164   0.00000  Uiso   1.00
C1411  C     0.97284   0.83300   0.83620   0.00000  Uiso   1.00
C1412  C     0.69378   0.83331   0.66385   0.00000  Uiso   1.00
C1413  C     0.95780   0.82957   0.88557   0.00000  Uiso   1.00
C1414  C     0.70866   0.83493   0.61449   0.00000  Uiso   1.00
C1415  C     0.97240   0.80768   0.95616   0.00000  Uiso   1.00
C1416  C     0.69448   0.85478   0.54320   0.00000  Uiso   1.00
C1417  C     0.98884   0.81289   0.90977   0.00000  Uiso   1.00
C1418  C     0.67826   0.85181   0.58978   0.00000  Uiso   1.00
C1419  C     0.91015   0.84072   0.90853   0.00000  Uiso   1.00
C1420  C     0.75526   0.82100   0.59189   0.00000  Uiso   1.00
C1421  C     0.89080   0.82818   0.95377   0.00000  Uiso   1.00
C1422  C     0.77511   0.83167   0.54616   0.00000  Uiso   1.00
C1423  C     0.92393   0.81585   0.97836   0.00000  Uiso   1.00
C1424  C     0.74242   0.84451   0.52123   0.00000  Uiso   1.00
C1425  C     0.84039   0.83029   0.97607   0.00000  Uiso   1.00
C1426  C     0.82546   0.82813   0.52393   0.00000  Uiso   1.00
Cu1427 Cu    0.71355   0.83334   0.75000   0.00000  Uiso   1.00
Cu1428 Cu    0.95311   0.83333   0.75000   0.00000  Uiso   1.00
H1429  H     0.93526   0.80920   0.54440   0.00000  Uiso   1.00
H1430  H     0.73121   0.85008   0.95505   0.00000  Uiso   1.00
H1431  H     0.99743   0.79676   0.97472   0.00000  Uiso   1.00
H1432  H     0.66980   0.86584   0.52432   0.00000  Uiso   1.00
H1433  H     0.93487   0.70532   0.72748   0.00000  Uiso   1.00
H1434  H     0.73257   0.96141   0.77100   0.00000  Uiso   1.00
N1435  N     0.78403   0.83334   0.74999   0.00000  Uiso   1.00
N1436  N     0.88264   0.83332   0.75001   0.00000  Uiso   1.00
O1437  O     0.70625   0.77322   0.75000   0.00000  Uiso   1.00
O1438  O     0.96042   0.89345   0.75000   0.00000  Uiso   1.00
O1439  O     0.96039   0.77321   0.75001   0.00000  Uiso   1.00
O1440  O     0.70628   0.89346   0.75000   0.00000  Uiso   1.00
O1441  O     0.68519   0.83334   0.81491   0.00000  Uiso   1.00
O1442  O     0.98148   0.83332   0.68509   0.00000  Uiso   1.00
O1443  O     0.93933   0.83333   0.81492   0.00000  Uiso   1.00
O1444  O     0.72733   0.83333   0.68508   0.00000  Uiso   1.00
O1445  O     0.77900   0.79412   0.61414   0.00000  Uiso   1.00
C1446  C     0.77520   0.75317   0.60008   0.00000  Uiso   1.00
H1447  H     0.81219   0.73956   0.59097   0.00000  Uiso   1.00
H1448  H     0.76080   0.75034   0.56986   0.00000  Uiso   1.00
C1449  C     0.74330   0.72830   0.63898   0.00000  Uiso   1.00
H1450  H     0.75821   0.73034   0.66873   0.00000  Uiso   1.00
H1451  H     0.70605   0.74143   0.64800   0.00000  Uiso   1.00
C1452  C     0.74087   0.68316   0.62662   0.00000  Uiso   1.00
H1453  H     0.72517   0.68030   0.59746   0.00000  Uiso   1.00
H1454  H     0.71757   0.99937   0.65555   0.00000  Uiso   1.00
H1455  H     0.77766   0.66917   0.61818   0.00000  Uiso   1.00
O1456  O     0.88409   0.86617   0.88714   0.00000  Uiso   1.00
C1457  C     0.88872   0.90729   0.89976   0.00000  Uiso   1.00
H1458  H     0.92645   0.91833   0.88519   0.00000  Uiso   1.00
H1459  H     0.87960   0.91050   0.93702   0.00000  Uiso   1.00
C1460  C     0.85345   0.93460   0.88275   0.00000  Uiso   1.00
H1461  H     0.81585   0.92326   0.89680   0.00000  Uiso   1.00
H1462  H     0.85545   0.96652   0.89475   0.00000  Uiso   1.00
C1463  C     0.86516   0.93522   0.83153   0.00000  Uiso   1.00
H1464  H     0.90254   0.94668   0.81725   0.00000  Uiso   1.00
H1465  H     0.83950   0.95604   0.82051   0.00000  Uiso   1.00
H1466  H     0.86184   0.90390   0.81856   0.00000  Uiso   1.00
F1467  F     0.96604   0.86475   0.61038   0.00000  Uiso   1.00
F1468  F     0.70184   0.80221   0.88893   0.00000  Uiso   1.00
F1469  F     0.85314   0.83364   0.59180   0.00000  Uiso   1.00
F1470  F     0.81274   0.82318   0.90842   0.00000  Uiso   1.00
F1471  F     0.92739   0.96030   0.72314   0.00000  Uiso   1.00
F1472  F     0.74052   0.70636   0.77460   0.00000  Uiso   1.00
F1473  F     0.86542   0.78230   0.80682   0.00000  Uiso   1.00
F1474  F     0.80123   0.88446   0.69328   0.00000  Uiso   1.00
F1475  F     0.76951   0.78255   0.80687   0.00000  Uiso   1.00
F1476  F     0.89717   0.88411   0.69312   0.00000  Uiso   1.00
loop_
_geom_bond_atom_site_label_1
_geom_bond_atom_site_label_2
_geom_bond_distance
_geom_bond_site_symmetry_2
_ccdc_geom_bond_type
C1     O43     1.291   .     A
C1     C12     1.450   .     S
C1     O209    1.293   1_455 S
C2     O46     1.293   .     A
C2     C11     1.450   .     S
C2     O208    1.292   1_455 S
C3     F75     1.356   .     S
C3     C32     1.419   .     A
C3     C5      1.388   .     A
C4     C6      1.386   .     A
C4     F76     1.357   .     S
C4     C31     1.418   .     A
C5     H35     1.084   .     S
C5     C767    1.391   1_554 S
C6     H36     1.083   .     S
C6     C768    1.391   .     S
C7     H39     1.083   .     S
C7     C501    1.383   1_545 S
C7     C94     1.400   .     S
C8     C11     1.400   .     A
C8     H40     1.084   .     S
C8     C256    1.383   .     S
C9     F77     1.357   .     S
C9     C253    1.383   .     S
C9     C93     1.404   .     S
C10    F78     1.357   .     S
C10    C12     1.404   .     A
C10    C500    1.383   1_545 S
C11    C173    1.404   1_455 S
C12    C171    1.400   1_455 S
C13    F79     1.355   .     S
C13    N42     1.369   .     A
C13    C15     1.416   .     A
C14    C16     1.417   .     A
C14    F80     1.355   .     S
C14    N41     1.369   .     A
C15    F81     1.354   .     S
C15    N41     1.367   .     A
C16    F82     1.354   .     S
C16    N42     1.367   .     A
C17    O49     1.296   .     A
C17    C19     1.473   .     S
C17    O129    1.299   .     S
C18    O50     1.296   .     A
C18    C20     1.469   .     S
C18    O212    1.297   1_455 S
C19    C23     1.405   .     A
C19    C25     1.408   .     A
C20    C24     1.404   .     A
C20    C26     1.406   .     A
C21    C29     1.400   .     A
C21    C23     1.392   .     A
C21    H37     1.084   .     S
C22    H38     1.084   .     S
C22    C24     1.391   .     A
C22    C30     1.400   .     A
C23    F156    1.357   .     S
C24    F237    1.357   1_455 S
C25    C27     1.416   .     A
C25    O62     1.384   .     S
C26    C28     1.415   .     A
C26    O51     1.386   .     S
C27    C29     1.415   .     A
C27    C31     1.426   .     A
C28    C32     1.427   .     A
C28    C30     1.416   .     A
C29    C743    1.391   .     S
C30    C744    1.391   1_554 S
C31    C770    1.426   .     S
C32    C769    1.426   1_554 S
Cu33   O46     1.964   .     S
Cu33   O43     1.966   .     S
Cu33   O47     1.952   .     S
Cu33   N41     2.015   .     S
Cu33   O50     1.936   .     S
Cu33   Cu198   2.681   1_455 S
Cu34   N42     2.015   .     S
Cu34   O44     1.966   .     S
Cu34   O45     1.964   .     S
Cu34   O48     1.952   .     S
Cu34   O49     1.936   .     S
Cu34   Cu115   2.681   .     S
O44    C84     1.292   .     S
O45    C83     1.293   .     S
O47    C181    1.299   1_455 S
O48    C100    1.297   .     S
O51    C52     1.417   .     S
C52    C55     1.529   .     S
C52    H54     1.118   .     S
C52    H53     1.111   .     S
C55    H56     1.111   .     S
C55    H57     1.111   .     S
C55    C58     1.526   .     S
C58    H61     1.111   .     S
C58    H59     1.111   .     S
C58    H552    1.110   1_545 S
H60    C304    1.110   .     S
O62    C63     1.412   .     S
C63    H65     1.115   .     S
C63    C66     1.529   .     S
C63    H64     1.114   .     S
C66    H68     1.112   .     S
C66    C69     1.526   .     S
C66    H67     1.112   .     S
C69    H71     1.110   .     S
C69    H72     1.111   .     S
C69    H70     1.109   .     S
F73    C106    1.357   .     S
F74    C187    1.357   1_455 S
C83    O125    1.291   .     A
C83    C94     1.450   .     S
C84    O128    1.293   .     A
C84    C93     1.450   .     S
C85    F157    1.356   .     S
C85    C114    1.419   .     A
C85    C87     1.388   .     A
C86    C88     1.386   .     A
C86    F158    1.357   .     S
C86    C113    1.418   .     A
C87    H117    1.084   .     S
C87    C849    1.391   1_554 S
C88    H118    1.083   .     S
C88    C850    1.391   .     S
C89    H121    1.083   .     S
C89    C583    1.383   1_545 S
C89    C176    1.400   .     S
C90    C93     1.400   .     A
C90    H122    1.084   .     S
C90    C338    1.383   .     S
C91    F159    1.357   .     S
C91    C335    1.383   .     S
C91    C175    1.404   .     S
C92    F160    1.357   .     S
C92    C94     1.404   .     A
C92    C582    1.383   1_545 S
C95    F161    1.355   .     S
C95    N124    1.369   .     A
C95    C97     1.416   .     A
C96    C98     1.417   .     A
C96    F162    1.355   .     S
C96    N123    1.369   .     A
C97    F163    1.354   .     S
C97    N123    1.367   .     A
C98    F164    1.354   .     S
C98    N124    1.367   .     A
C99    O131    1.296   .     A
C99    C101    1.473   .     S
C99    O211    1.299   .     S
C100   O132    1.296   .     A
C100   C102    1.469   .     S
C101   C105    1.405   .     A
C101   C107    1.408   .     A
C102   C106    1.404   .     A
C102   C108    1.406   .     A
C103   C111    1.400   .     A
C103   C105    1.392   .     A
C103   H119    1.084   .     S
C104   H120    1.084   .     S
C104   C106    1.391   .     A
C104   C112    1.400   .     A
C105   F238    1.357   .     S
C107   C109    1.416   .     A
C107   O144    1.384   .     S
C108   C110    1.415   .     A
C108   O133    1.386   .     S
C109   C111    1.415   .     A
C109   C113    1.426   .     A
C110   C114    1.427   .     A
C110   C112    1.416   .     A
C111   C825    1.391   .     S
C112   C826    1.391   1_554 S
C113   C852    1.426   .     S
C114   C851    1.426   1_554 S
Cu115  O128    1.964   .     S
Cu115  O125    1.966   .     S
Cu115  O129    1.952   .     S
Cu115  N123    2.015   .     S
Cu115  O132    1.936   .     S
Cu116  N124    2.015   .     S
Cu116  O126    1.966   .     S
Cu116  O127    1.964   .     S
Cu116  O130    1.952   .     S
Cu116  O131    1.936   .     S
Cu116  Cu197   2.681   .     S
O126   C166    1.292   .     S
O127   C165    1.293   .     S
O130   C182    1.297   .     S
O133   C134    1.417   .     S
C134   C137    1.529   .     S
C134   H136    1.118   .     S
C134   H135    1.111   .     S
C137   H138    1.111   .     S
C137   H139    1.111   .     S
C137   C140    1.526   .     S
C140   H143    1.111   .     S
C140   H141    1.111   .     S
C140   H634    1.110   1_545 S
H142   C386    1.110   .     S
O144   C145    1.412   .     S
C145   H147    1.115   .     S
C145   C148    1.529   .     S
C145   H146    1.114   .     S
C148   H150    1.112   .     S
C148   C151    1.526   .     S
C148   H149    1.112   .     S
C151   H153    1.110   .     S
C151   H154    1.111   .     S
C151   H152    1.109   .     S
F155   C188    1.357   .     S
C165   O207    1.291   .     A
C165   C176    1.450   .     S
C166   O210    1.293   .     A
C166   C175    1.450   .     S
C167   F239    1.356   .     S
C167   C196    1.419   .     A
C167   C169    1.388   .     A
C168   C170    1.386   .     A
C168   F240    1.357   .     S
C168   C195    1.418   .     A
C169   H199    1.084   .     S
C169   C931    1.391   1_554 S
C170   H200    1.083   .     S
C170   C932    1.391   .     S
C171   H203    1.083   .     S
C171   C665    1.383   1_545 S
C171   C12     1.400   1_655 S
C172   C175    1.400   .     A
C172   H204    1.084   .     S
C172   C420    1.383   .     S
C173   F241    1.357   .     S
C173   C417    1.383   .     S
C173   C11     1.404   1_655 S
C174   F242    1.357   .     S
C174   C176    1.404   .     A
C174   C664    1.383   1_545 S
C177   F243    1.355   .     S
C177   N206    1.369   .     A
C177   C179    1.416   .     A
C178   C180    1.417   .     A
C178   F244    1.355   .     S
C178   N205    1.369   .     A
C179   F245    1.354   .     S
C179   N205    1.367   .     A
C180   F246    1.354   .     S
C180   N206    1.367   .     A
C181   O213    1.296   .     A
C181   C183    1.473   .     S
C181   O47     1.299   1_655 S
C182   O214    1.296   .     A
C182   C184    1.469   .     S
C183   C187    1.405   .     A
C183   C189    1.408   .     A
C184   C188    1.404   .     A
C184   C190    1.406   .     A
C185   C193    1.400   .     A
C185   C187    1.392   .     A
C185   H201    1.084   .     S
C186   H202    1.084   .     S
C186   C188    1.391   .     A
C186   C194    1.400   .     A
C187   F74     1.357   1_655 S
C189   C191    1.416   .     A
C189   O226    1.384   .     S
C190   C192    1.415   .     A
C190   O215    1.386   .     S
C191   C193    1.415   .     A
C191   C195    1.426   .     A
C192   C196    1.427   .     A
C192   C194    1.416   .     A
C193   C907    1.391   .     S
C194   C908    1.391   1_554 S
C195   C934    1.426   .     S
C196   C933    1.426   1_554 S
Cu197  O210    1.964   .     S
Cu197  O207    1.966   .     S
Cu197  O211    1.952   .     S
Cu197  N205    2.015   .     S
Cu197  O214    1.936   .     S
Cu198  N206    2.015   .     S
Cu198  O208    1.966   .     S
Cu198  O209    1.964   .     S
Cu198  O212    1.952   .     S
Cu198  O213    1.936   .     S
Cu198  Cu33    2.681   1_655 S
O208   C2      1.292   1_655 S
O209   C1      1.293   1_655 S
O212   C18     1.297   1_655 S
O215   C216    1.417   .     S
C216   C219    1.529   .     S
C216   H218    1.118   .     S
C216   H217    1.111   .     S
C219   H220    1.111   .     S
C219   H221    1.111   .     S
C219   C222    1.526   .     S
C222   H225    1.111   .     S
C222   H223    1.111   .     S
C222   H716    1.110   1_545 S
H224   C468    1.110   .     S
O226   C227    1.412   .     S
C227   H229    1.115   .     S
C227   C230    1.529   .     S
C227   H228    1.114   .     S
C230   H232    1.112   .     S
C230   C233    1.526   .     S
C230   H231    1.112   .     S
C233   H235    1.110   .     S
C233   H236    1.111   .     S
C233   H234    1.109   .     S
F237   C24     1.357   1_655 S
C247   O289    1.291   .     A
C247   C258    1.450   .     S
C247   O455    1.293   1_455 S
C248   O292    1.293   .     A
C248   C257    1.450   .     S
C248   O454    1.292   1_455 S
C249   F321    1.356   .     S
C249   C278    1.419   .     A
C249   C251    1.388   .     A
C250   C252    1.386   .     A
C250   F322    1.357   .     S
C250   C277    1.418   .     A
C251   H281    1.084   .     S
C251   C1013   1.391   1_554 S
C252   H282    1.083   .     S
C252   C1014   1.391   .     S
C253   H285    1.083   .     S
C253   C340    1.400   .     S
C254   C257    1.400   .     A
C254   H286    1.084   .     S
C254   C502    1.383   .     S
C255   F323    1.357   .     S
C255   C499    1.383   .     S
C255   C339    1.404   .     S
C256   F324    1.357   .     S
C256   C258    1.404   .     A
C257   C419    1.404   1_455 S
C258   C417    1.400   1_455 S
C259   F325    1.355   .     S
C259   N288    1.369   .     A
C259   C261    1.416   .     A
C260   C262    1.417   .     A
C260   F326    1.355   .     S
C260   N287    1.369   .     A
C261   F327    1.354   .     S
C261   N287    1.367   .     A
C262   F328    1.354   .     S
C262   N288    1.367   .     A
C263   O295    1.296   .     A
C263   C265    1.473   .     S
C263   O375    1.299   .     S
C264   O296    1.296   .     A
C264   C266    1.469   .     S
C264   O458    1.297   1_455 S
C265   C269    1.405   .     A
C265   C271    1.408   .     A
C266   C270    1.404   .     A
C266   C272    1.406   .     A
C267   C275    1.400   .     A
C267   C269    1.392   .     A
C267   H283    1.084   .     S
C268   H284    1.084   .     S
C268   C270    1.391   .     A
C268   C276    1.400   .     A
C269   F402    1.357   .     S
C270   F483    1.357   1_455 S
C271   C273    1.416   .     A
C271   O308    1.384   .     S
C272   C274    1.415   .     A
C272   O297    1.386   .     S
C273   C275    1.415   .     A
C273   C277    1.426   .     A
C274   C278    1.427   .     A
C274   C276    1.416   .     A
C275   C989    1.391   .     S
C276   C990    1.391   1_554 S
C277   C1016   1.426   .     S
C278   C1015   1.426   1_554 S
Cu279  O292    1.964   .     S
Cu279  O289    1.966   .     S
Cu279  O293    1.952   .     S
Cu279  N287    2.015   .     S
Cu279  O296    1.936   .     S
Cu279  Cu444   2.681   1_455 S
Cu280  N288    2.015   .     S
Cu280  O290    1.966   .     S
Cu280  O291    1.964   .     S
Cu280  O294    1.952   .     S
Cu280  O295    1.936   .     S
Cu280  Cu361   2.681   .     S
O290   C330    1.292   .     S
O291   C329    1.293   .     S
O293   C427    1.299   1_455 S
O294   C346    1.297   .     S
O297   C298    1.417   .     S
C298   C301    1.529   .     S
C298   H300    1.118   .     S
C298   H299    1.111   .     S
C301   H302    1.111   .     S
C301   H303    1.111   .     S
C301   C304    1.526   .     S
C304   H307    1.111   .     S
C304   H305    1.111   .     S
H306   C550    1.110   .     S
O308   C309    1.412   .     S
C309   H311    1.115   .     S
C309   C312    1.529   .     S
C309   H310    1.114   .     S
C312   H314    1.112   .     S
C312   C315    1.526   .     S
C312   H313    1.112   .     S
C315   H317    1.110   .     S
C315   H318    1.111   .     S
C315   H316    1.109   .     S
F319   C352    1.357   .     S
F320   C433    1.357   1_455 S
C329   O371    1.291   .     A
C329   C340    1.450   .     S
C330   O374    1.293   .     A
C330   C339    1.450   .     S
C331   F403    1.356   .     S
C331   C360    1.419   .     A
C331   C333    1.388   .     A
C332   C334    1.386   .     A
C332   F404    1.357   .     S
C332   C359    1.418   .     A
C333   H363    1.084   .     S
C333   C1095   1.391   1_554 S
C334   H364    1.083   .     S
C334   C1096   1.391   .     S
C335   H367    1.083   .     S
C335   C422    1.400   .     S
C336   C339    1.400   .     A
C336   H368    1.084   .     S
C336   C584    1.383   .     S
C337   F405    1.357   .     S
C337   C581    1.383   .     S
C337   C421    1.404   .     S
C338   F406    1.357   .     S
C338   C340    1.404   .     A
C341   F407    1.355   .     S
C341   N370    1.369   .     A
C341   C343    1.416   .     A
C342   C344    1.417   .     A
C342   F408    1.355   .     S
C342   N369    1.369   .     A
C343   F409    1.354   .     S
C343   N369    1.367   .     A
C344   F410    1.354   .     S
C344   N370    1.367   .     A
C345   O377    1.296   .     A
C345   C347    1.473   .     S
C345   O457    1.299   .     S
C346   O378    1.296   .     A
C346   C348    1.469   .     S
C347   C351    1.405   .     A
C347   C353    1.408   .     A
C348   C352    1.404   .     A
C348   C354    1.406   .     A
C349   C357    1.400   .     A
C349   C351    1.392   .     A
C349   H365    1.084   .     S
C350   H366    1.084   .     S
C350   C352    1.391   .     A
C350   C358    1.400   .     A
C351   F484    1.357   .     S
C353   C355    1.416   .     A
C353   O390    1.384   .     S
C354   C356    1.415   .     A
C354   O379    1.386   .     S
C355   C357    1.415   .     A
C355   C359    1.426   .     A
C356   C360    1.427   .     A
C356   C358    1.416   .     A
C357   C1071   1.391   .     S
C358   C1072   1.391   1_554 S
C359   C1098   1.426   .     S
C360   C1097   1.426   1_554 S
Cu361  O374    1.964   .     S
Cu361  O371    1.966   .     S
Cu361  O375    1.952   .     S
Cu361  N369    2.015   .     S
Cu361  O378    1.936   .     S
Cu362  N370    2.015   .     S
Cu362  O372    1.966   .     S
Cu362  O373    1.964   .     S
Cu362  O376    1.952   .     S
Cu362  O377    1.936   .     S
Cu362  Cu443   2.681   .     S
O372   C412    1.292   .     S
O373   C411    1.293   .     S
O376   C428    1.297   .     S
O379   C380    1.417   .     S
C380   C383    1.529   .     S
C380   H382    1.118   .     S
C380   H381    1.111   .     S
C383   H384    1.111   .     S
C383   H385    1.111   .     S
C383   C386    1.526   .     S
C386   H389    1.111   .     S
C386   H387    1.111   .     S
H388   C632    1.110   .     S
O390   C391    1.412   .     S
C391   H393    1.115   .     S
C391   C394    1.529   .     S
C391   H392    1.114   .     S
C394   H396    1.112   .     S
C394   C397    1.526   .     S
C394   H395    1.112   .     S
C397   H399    1.110   .     S
C397   H400    1.111   .     S
C397   H398    1.109   .     S
F401   C434    1.357   .     S
C411   O453    1.291   .     A
C411   C422    1.450   .     S
C412   O456    1.293   .     A
C412   C421    1.450   .     S
C413   F485    1.356   .     S
C413   C442    1.419   .     A
C413   C415    1.388   .     A
C414   C416    1.386   .     A
C414   F486    1.357   .     S
C414   C441    1.418   .     A
C415   H445    1.084   .     S
C415   C1177   1.391   1_554 S
C416   H446    1.083   .     S
C416   C1178   1.391   .     S
C417   H449    1.083   .     S
C417   C258    1.400   1_655 S
C418   C421    1.400   .     A
C418   H450    1.084   .     S
C418   C666    1.383   .     S
C419   F487    1.357   .     S
C419   C663    1.383   .     S
C419   C257    1.404   1_655 S
C420   F488    1.357   .     S
C420   C422    1.404   .     A
C423   F489    1.355   .     S
C423   N452    1.369   .     A
C423   C425    1.416   .     A
C424   C426    1.417   .     A
C424   F490    1.355   .     S
C424   N451    1.369   .     A
C425   F491    1.354   .     S
C425   N451    1.367   .     A
C426   F492    1.354   .     S
C426   N452    1.367   .     A
C427   O459    1.296   .     A
C427   C429    1.473   .     S
C427   O293    1.299   1_655 S
C428   O460    1.296   .     A
C428   C430    1.469   .     S
C429   C433    1.405   .     A
C429   C435    1.408   .     A
C430   C434    1.404   .     A
C430   C436    1.406   .     A
C431   C439    1.400   .     A
C431   C433    1.392   .     A
C431   H447    1.084   .     S
C432   H448    1.084   .     S
C432   C434    1.391   .     A
C432   C440    1.400   .     A
C433   F320    1.357   1_655 S
C435   C437    1.416   .     A
C435   O472    1.384   .     S
C436   C438    1.415   .     A
C436   O461    1.386   .     S
C437   C439    1.415   .     A
C437   C441    1.426   .     A
C438   C442    1.427   .     A
C438   C440    1.416   .     A
C439   C1153   1.391   .     S
C440   C1154   1.391   1_554 S
C441   C1180   1.426   .     S
C442   C1179   1.426   1_554 S
Cu443  O456    1.964   .     S
Cu443  O453    1.966   .     S
Cu443  O457    1.952   .     S
Cu443  N451    2.015   .     S
Cu443  O460    1.936   .     S
Cu444  N452    2.015   .     S
Cu444  O454    1.966   .     S
Cu444  O455    1.964   .     S
Cu444  O458    1.952   .     S
Cu444  O459    1.936   .     S
Cu444  Cu279   2.681   1_655 S
O454   C248    1.292   1_655 S
O455   C247    1.293   1_655 S
O458   C264    1.297   1_655 S
O461   C462    1.417   .     S
C462   C465    1.529   .     S
C462   H464    1.118   .     S
C462   H463    1.111   .     S
C465   H466    1.111   .     S
C465   H467    1.111   .     S
C465   C468    1.526   .     S
C468   H471    1.111   .     S
C468   H469    1.111   .     S
H470   C714    1.110   .     S
O472   C473    1.412   .     S
C473   H475    1.115   .     S
C473   C476    1.529   .     S
C473   H474    1.114   .     S
C476   H478    1.112   .     S
C476   C479    1.526   .     S
C476   H477    1.112   .     S
C479   H481    1.110   .     S
C479   H482    1.111   .     S
C479   H480    1.109   .     S
F483   C270    1.357   1_655 S
C493   O535    1.291   .     A
C493   C504    1.450   .     S
C493   O701    1.293   1_455 S
C494   O538    1.293   .     A
C494   C503    1.450   .     S
C494   O700    1.292   1_455 S
C495   F567    1.356   .     S
C495   C524    1.419   .     A
C495   C497    1.388   .     A
C496   C498    1.386   .     A
C496   F568    1.357   .     S
C496   C523    1.418   .     A
C497   H527    1.084   .     S
C497   C1259   1.391   1_554 S
C498   H528    1.083   .     S
C498   C1260   1.391   .     S
C499   H531    1.083   .     S
C499   C586    1.400   .     S
C500   C503    1.400   .     A
C500   H532    1.084   .     S
C500   C10     1.383   1_565 S
C501   F569    1.357   .     S
C501   C7      1.383   1_565 S
C501   C585    1.404   .     S
C502   F570    1.357   .     S
C502   C504    1.404   .     A
C503   C665    1.404   1_455 S
C504   C663    1.400   1_455 S
C505   F571    1.355   .     S
C505   N534    1.369   .     A
C505   C507    1.416   .     A
C506   C508    1.417   .     A
C506   F572    1.355   .     S
C506   N533    1.369   .     A
C507   F573    1.354   .     S
C507   N533    1.367   .     A
C508   F574    1.354   .     S
C508   N534    1.367   .     A
C509   O541    1.296   .     A
C509   C511    1.473   .     S
C509   O621    1.299   .     S
C510   O542    1.296   .     A
C510   C512    1.469   .     S
C510   O704    1.297   1_455 S
C511   C515    1.405   .     A
C511   C517    1.408   .     A
C512   C516    1.404   .     A
C512   C518    1.406   .     A
C513   C521    1.400   .     A
C513   C515    1.392   .     A
C513   H529    1.084   .     S
C514   H530    1.084   .     S
C514   C516    1.391   .     A
C514   C522    1.400   .     A
C515   F648    1.357   .     S
C516   F729    1.357   1_455 S
C517   C519    1.416   .     A
C517   O554    1.384   .     S
C518   C520    1.415   .     A
C518   O543    1.386   .     S
C519   C521    1.415   .     A
C519   C523    1.426   .     A
C520   C524    1.427   .     A
C520   C522    1.416   .     A
C521   C1235   1.391   .     S
C522   C1236   1.391   1_554 S
C523   C1262   1.426   .     S
C524   C1261   1.426   1_554 S
Cu525  O538    1.964   .     S
Cu525  O535    1.966   .     S
Cu525  O539    1.952   .     S
Cu525  N533    2.015   .     S
Cu525  O542    1.936   .     S
Cu525  Cu690   2.681   1_455 S
Cu526  N534    2.015   .     S
Cu526  O536    1.966   .     S
Cu526  O537    1.964   .     S
Cu526  O540    1.952   .     S
Cu526  O541    1.936   .     S
Cu526  Cu607   2.681   .     S
O536   C576    1.292   .     S
O537   C575    1.293   .     S
O539   C673    1.299   1_455 S
O540   C592    1.297   .     S
O543   C544    1.417   .     S
C544   C547    1.529   .     S
C544   H546    1.118   .     S
C544   H545    1.111   .     S
C547   H548    1.111   .     S
C547   H549    1.111   .     S
C547   C550    1.526   .     S
C550   H553    1.111   .     S
C550   H551    1.111   .     S
H552   C58     1.110   1_565 S
O554   C555    1.412   .     S
C555   H557    1.115   .     S
C555   C558    1.529   .     S
C555   H556    1.114   .     S
C558   H560    1.112   .     S
C558   C561    1.526   .     S
C558   H559    1.112   .     S
C561   H563    1.110   .     S
C561   H564    1.111   .     S
C561   H562    1.109   .     S
F565   C598    1.357   .     S
F566   C679    1.357   1_455 S
C575   O617    1.291   .     A
C575   C586    1.450   .     S
C576   O620    1.293   .     A
C576   C585    1.450   .     S
C577   F649    1.356   .     S
C577   C606    1.419   .     A
C577   C579    1.388   .     A
C578   C580    1.386   .     A
C578   F650    1.357   .     S
C578   C605    1.418   .     A
C579   H609    1.084   .     S
C579   C1341   1.391   1_554 S
C580   H610    1.083   .     S
C580   C1342   1.391   .     S
C581   H613    1.083   .     S
C581   C668    1.400   .     S
C582   C585    1.400   .     A
C582   H614    1.084   .     S
C582   C92     1.383   1_565 S
C583   F651    1.357   .     S
C583   C89     1.383   1_565 S
C583   C667    1.404   .     S
C584   F652    1.357   .     S
C584   C586    1.404   .     A
C587   F653    1.355   .     S
C587   N616    1.369   .     A
C587   C589    1.416   .     A
C588   C590    1.417   .     A
C588   F654    1.355   .     S
C588   N615    1.369   .     A
C589   F655    1.354   .     S
C589   N615    1.367   .     A
C590   F656    1.354   .     S
C590   N616    1.367   .     A
C591   O623    1.296   .     A
C591   C593    1.473   .     S
C591   O703    1.299   .     S
C592   O624    1.296   .     A
C592   C594    1.469   .     S
C593   C597    1.405   .     A
C593   C599    1.408   .     A
C594   C598    1.404   .     A
C594   C600    1.406   .     A
C595   C603    1.400   .     A
C595   C597    1.392   .     A
C595   H611    1.084   .     S
C596   H612    1.084   .     S
C596   C598    1.391   .     A
C596   C604    1.400   .     A
C597   F730    1.357   .     S
C599   C601    1.416   .     A
C599   O636    1.384   .     S
C600   C602    1.415   .     A
C600   O625    1.386   .     S
C601   C603    1.415   .     A
C601   C605    1.426   .     A
C602   C606    1.427   .     A
C602   C604    1.416   .     A
C603   C1317   1.391   .     S
C604   C1318   1.391   1_554 S
C605   C1344   1.426   .     S
C606   C1343   1.426   1_554 S
Cu607  O620    1.964   .     S
Cu607  O617    1.966   .     S
Cu607  O621    1.952   .     S
Cu607  N615    2.015   .     S
Cu607  O624    1.936   .     S
Cu608  N616    2.015   .     S
Cu608  O618    1.966   .     S
Cu608  O619    1.964   .     S
Cu608  O622    1.952   .     S
Cu608  O623    1.936   .     S
Cu608  Cu689   2.681   .     S
O618   C658    1.292   .     S
O619   C657    1.293   .     S
O622   C674    1.297   .     S
O625   C626    1.417   .     S
C626   C629    1.529   .     S
C626   H628    1.118   .     S
C626   H627    1.111   .     S
C629   H630    1.111   .     S
C629   H631    1.111   .     S
C629   C632    1.526   .     S
C632   H635    1.111   .     S
C632   H633    1.111   .     S
H634   C140    1.110   1_565 S
O636   C637    1.412   .     S
C637   H639    1.115   .     S
C637   C640    1.529   .     S
C637   H638    1.114   .     S
C640   H642    1.112   .     S
C640   C643    1.526   .     S
C640   H641    1.112   .     S
C643   H645    1.110   .     S
C643   H646    1.111   .     S
C643   H644    1.109   .     S
F647   C680    1.357   .     S
C657   O699    1.291   .     A
C657   C668    1.450   .     S
C658   O702    1.293   .     A
C658   C667    1.450   .     S
C659   F731    1.356   .     S
C659   C688    1.419   .     A
C659   C661    1.388   .     A
C660   C662    1.386   .     A
C660   F732    1.357   .     S
C660   C687    1.418   .     A
C661   H691    1.084   .     S
C661   C1423   1.391   1_554 S
C662   H692    1.083   .     S
C662   C1424   1.391   .     S
C663   H695    1.083   .     S
C663   C504    1.400   1_655 S
C664   C667    1.400   .     A
C664   H696    1.084   .     S
C664   C174    1.383   1_565 S
C665   F733    1.357   .     S
C665   C171    1.383   1_565 S
C665   C503    1.404   1_655 S
C666   F734    1.357   .     S
C666   C668    1.404   .     A
C669   F735    1.355   .     S
C669   N698    1.369   .     A
C669   C671    1.416   .     A
C670   C672    1.417   .     A
C670   F736    1.355   .     S
C670   N697    1.369   .     A
C671   F737    1.354   .     S
C671   N697    1.367   .     A
C672   F738    1.354   .     S
C672   N698    1.367   .     A
C673   O705    1.296   .     A
C673   C675    1.473   .     S
C673   O539    1.299   1_655 S
C674   O706    1.296   .     A
C674   C676    1.469   .     S
C675   C679    1.405   .     A
C675   C681    1.408   .     A
C676   C680    1.404   .     A
C676   C682    1.406   .     A
C677   C685    1.400   .     A
C677   C679    1.392   .     A
C677   H693    1.084   .     S
C678   H694    1.084   .     S
C678   C680    1.391   .     A
C678   C686    1.400   .     A
C679   F566    1.357   1_655 S
C681   C683    1.416   .     A
C681   O718    1.384   .     S
C682   C684    1.415   .     A
C682   O707    1.386   .     S
C683   C685    1.415   .     A
C683   C687    1.426   .     A
C684   C688    1.427   .     A
C684   C686    1.416   .     A
C685   C1399   1.391   .     S
C686   C1400   1.391   1_554 S
C687   C1426   1.426   .     S
C688   C1425   1.426   1_554 S
Cu689  O702    1.964   .     S
Cu689  O699    1.966   .     S
Cu689  O703    1.952   .     S
Cu689  N697    2.015   .     S
Cu689  O706    1.936   .     S
Cu690  N698    2.015   .     S
Cu690  O700    1.966   .     S
Cu690  O701    1.964   .     S
Cu690  O704    1.952   .     S
Cu690  O705    1.936   .     S
Cu690  Cu525   2.681   1_655 S
O700   C494    1.292   1_655 S
O701   C493    1.293   1_655 S
O704   C510    1.297   1_655 S
O707   C708    1.417   .     S
C708   C711    1.529   .     S
C708   H710    1.118   .     S
C708   H709    1.111   .     S
C711   H712    1.111   .     S
C711   H713    1.111   .     S
C711   C714    1.526   .     S
C714   H717    1.111   .     S
C714   H715    1.111   .     S
H716   C222    1.110   1_565 S
O718   C719    1.412   .     S
C719   H721    1.115   .     S
C719   C722    1.529   .     S
C719   H720    1.114   .     S
C722   H724    1.112   .     S
C722   C725    1.526   .     S
C722   H723    1.112   .     S
C725   H727    1.110   .     S
C725   H728    1.111   .     S
C725   H726    1.109   .     S
F729   C516    1.357   1_655 S
C739   O781    1.291   .     A
C739   C750    1.450   .     S
C739   O947    1.293   1_455 S
C740   O784    1.293   .     A
C740   C749    1.450   .     S
C740   O946    1.292   1_455 S
C741   F813    1.356   .     S
C741   C770    1.419   .     A
C741   C743    1.388   .     A
C742   C744    1.386   .     A
C742   F814    1.357   .     S
C742   C769    1.418   .     A
C743   H773    1.084   .     S
C744   H774    1.083   .     S
C744   C30     1.391   1_556 S
C745   H777    1.083   .     S
C745   C1239   1.383   1_545 S
C745   C832    1.400   .     S
C746   C749    1.400   .     A
C746   H778    1.084   .     S
C746   C994    1.383   .     S
C747   F815    1.357   .     S
C747   C991    1.383   .     S
C747   C831    1.404   .     S
C748   F816    1.357   .     S
C748   C750    1.404   .     A
C748   C1238   1.383   1_545 S
C749   C911    1.404   1_455 S
C750   C909    1.400   1_455 S
C751   F817    1.355   .     S
C751   N780    1.369   .     A
C751   C753    1.416   .     A
C752   C754    1.417   .     A
C752   F818    1.355   .     S
C752   N779    1.369   .     A
C753   F819    1.354   .     S
C753   N779    1.367   .     A
C754   F820    1.354   .     S
C754   N780    1.367   .     A
C755   O787    1.296   .     A
C755   C757    1.473   .     S
C755   O867    1.299   .     S
C756   O788    1.296   .     A
C756   C758    1.469   .     S
C756   O950    1.297   1_455 S
C757   C761    1.405   .     A
C757   C763    1.408   .     A
C758   C762    1.404   .     A
C758   C764    1.406   .     A
C759   C767    1.400   .     A
C759   C761    1.392   .     A
C759   H775    1.084   .     S
C760   H776    1.084   .     S
C760   C762    1.391   .     A
C760   C768    1.400   .     A
C761   F894    1.357   .     S
C762   F975    1.357   1_455 S
C763   C765    1.416   .     A
C763   O800    1.384   .     S
C764   C766    1.415   .     A
C764   O789    1.386   .     S
C765   C767    1.415   .     A
C765   C769    1.426   .     A
C766   C770    1.427   .     A
C766   C768    1.416   .     A
C767   C5      1.391   1_556 S
C769   C32     1.426   1_556 S
Cu771  O784    1.964   .     S
Cu771  O781    1.966   .     S
Cu771  O785    1.952   .     S
Cu771  N779    2.015   .     S
Cu771  O788    1.936   .     S
Cu771  Cu936   2.681   1_455 S
Cu772  N780    2.015   .     S
Cu772  O782    1.966   .     S
Cu772  O783    1.964   .     S
Cu772  O786    1.952   .     S
Cu772  O787    1.936   .     S
Cu772  Cu853   2.681   .     S
O782   C822    1.292   .     S
O783   C821    1.293   .     S
O785   C919    1.299   1_455 S
O786   C838    1.297   .     S
O789   C790    1.417   .     S
C790   C793    1.529   .     S
C790   H792    1.118   .     S
C790   H791    1.111   .     S
C793   H794    1.111   .     S
C793   H795    1.111   .     S
C793   C796    1.526   .     S
C796   H799    1.111   .     S
C796   H797    1.111   .     S
C796   H1290   1.110   1_545 S
H798   C1042   1.110   .     S
O800   C801    1.412   .     S
C801   H803    1.115   .     S
C801   C804    1.529   .     S
C801   H802    1.114   .     S
C804   H806    1.112   .     S
C804   C807    1.526   .     S
C804   H805    1.112   .     S
C807   H809    1.110   .     S
C807   H810    1.111   .     S
C807   H808    1.109   .     S
F811   C844    1.357   .     S
F812   C925    1.357   1_455 S
C821   O863    1.291   .     A
C821   C832    1.450   .     S
C822   O866    1.293   .     A
C822   C831    1.450   .     S
C823   F895    1.356   .     S
C823   C852    1.419   .     A
C823   C825    1.388   .     A
C824   C826    1.386   .     A
C824   F896    1.357   .     S
C824   C851    1.418   .     A
C825   H855    1.084   .     S
C826   H856    1.083   .     S
C826   C112    1.391   1_556 S
C827   H859    1.083   .     S
C827   C1321   1.383   1_545 S
C827   C914    1.400   .     S
C828   C831    1.400   .     A
C828   H860    1.084   .     S
C828   C1076   1.383   .     S
C829   F897    1.357   .     S
C829   C1073   1.383   .     S
C829   C913    1.404   .     S
C830   F898    1.357   .     S
C830   C832    1.404   .     A
C830   C1320   1.383   1_545 S
C833   F899    1.355   .     S
C833   N862    1.369   .     A
C833   C835    1.416   .     A
C834   C836    1.417   .     A
C834   F900    1.355   .     S
C834   N861    1.369   .     A
C835   F901    1.354   .     S
C835   N861    1.367   .     A
C836   F902    1.354   .     S
C836   N862    1.367   .     A
C837   O869    1.296   .     A
C837   C839    1.473   .     S
C837   O949    1.299   .     S
C838   O870    1.296   .     A
C838   C840    1.469   .     S
C839   C843    1.405   .     A
C839   C845    1.408   .     A
C840   C844    1.404   .     A
C840   C846    1.406   .     A
C841   C849    1.400   .     A
C841   C843    1.392   .     A
C841   H857    1.084   .     S
C842   H858    1.084   .     S
C842   C844    1.391   .     A
C842   C850    1.400   .     A
C843   F976    1.357   .     S
C845   C847    1.416   .     A
C845   O882    1.384   .     S
C846   C848    1.415   .     A
C846   O871    1.386   .     S
C847   C849    1.415   .     A
C847   C851    1.426   .     A
C848   C852    1.427   .     A
C848   C850    1.416   .     A
C849   C87     1.391   1_556 S
C851   C114    1.426   1_556 S
Cu853  O866    1.964   .     S
Cu853  O863    1.966   .     S
Cu853  O867    1.952   .     S
Cu853  N861    2.015   .     S
Cu853  O870    1.936   .     S
Cu854  N862    2.015   .     S
Cu854  O864    1.966   .     S
Cu854  O865    1.964   .     S
Cu854  O868    1.952   .     S
Cu854  O869    1.936   .     S
Cu854  Cu935   2.681   .     S
O864   C904    1.292   .     S
O865   C903    1.293   .     S
O868   C920    1.297   .     S
O871   C872    1.417   .     S
C872   C875    1.529   .     S
C872   H874    1.118   .     S
C872   H873    1.111   .     S
C875   H876    1.111   .     S
C875   H877    1.111   .     S
C875   C878    1.526   .     S
C878   H881    1.111   .     S
C878   H879    1.111   .     S
C878   H1372   1.110   1_545 S
H880   C1124   1.110   .     S
O882   C883    1.412   .     S
C883   H885    1.115   .     S
C883   C886    1.529   .     S
C883   H884    1.114   .     S
C886   H888    1.112   .     S
C886   C889    1.526   .     S
C886   H887    1.112   .     S
C889   H891    1.110   .     S
C889   H892    1.111   .     S
C889   H890    1.109   .     S
F893   C926    1.357   .     S
C903   O945    1.291   .     A
C903   C914    1.450   .     S
C904   O948    1.293   .     A
C904   C913    1.450   .     S
C905   F977    1.356   .     S
C905   C934    1.419   .     A
C905   C907    1.388   .     A
C906   C908    1.386   .     A
C906   F978    1.357   .     S
C906   C933    1.418   .     A
C907   H937    1.084   .     S
C908   H938    1.083   .     S
C908   C194    1.391   1_556 S
C909   H941    1.083   .     S
C909   C1403   1.383   1_545 S
C909   C750    1.400   1_655 S
C910   C913    1.400   .     A
C910   H942    1.084   .     S
C910   C1158   1.383   .     S
C911   F979    1.357   .     S
C911   C1155   1.383   .     S
C911   C749    1.404   1_655 S
C912   F980    1.357   .     S
C912   C914    1.404   .     A
C912   C1402   1.383   1_545 S
C915   F981    1.355   .     S
C915   N944    1.369   .     A
C915   C917    1.416   .     A
C916   C918    1.417   .     A
C916   F982    1.355   .     S
C916   N943    1.369   .     A
C917   F983    1.354   .     S
C917   N943    1.367   .     A
C918   F984    1.354   .     S
C918   N944    1.367   .     A
C919   O951    1.296   .     A
C919   C921    1.473   .     S
C919   O785    1.299   1_655 S
C920   O952    1.296   .     A
C920   C922    1.469   .     S
C921   C925    1.405   .     A
C921   C927    1.408   .     A
C922   C926    1.404   .     A
C922   C928    1.406   .     A
C923   C931    1.400   .     A
C923   C925    1.392   .     A
C923   H939    1.084   .     S
C924   H940    1.084   .     S
C924   C926    1.391   .     A
C924   C932    1.400   .     A
C925   F812    1.357   1_655 S
C927   C929    1.416   .     A
C927   O964    1.384   .     S
C928   C930    1.415   .     A
C928   O953    1.386   .     S
C929   C931    1.415   .     A
C929   C933    1.426   .     A
C930   C934    1.427   .     A
C930   C932    1.416   .     A
C931   C169    1.391   1_556 S
C933   C196    1.426   1_556 S
Cu935  O948    1.964   .     S
Cu935  O945    1.966   .     S
Cu935  O949    1.952   .     S
Cu935  N943    2.015   .     S
Cu935  O952    1.936   .     S
Cu936  N944    2.015   .     S
Cu936  O946    1.966   .     S
Cu936  O947    1.964   .     S
Cu936  O950    1.952   .     S
Cu936  O951    1.936   .     S
Cu936  Cu771   2.681   1_655 S
O946   C740    1.292   1_655 S
O947   C739    1.293   1_655 S
O950   C756    1.297   1_655 S
O953   C954    1.417   .     S
C954   C957    1.529   .     S
C954   H956    1.118   .     S
C954   H955    1.111   .     S
C957   H958    1.111   .     S
C957   H959    1.111   .     S
C957   C960    1.526   .     S
C960   H963    1.111   .     S
C960   H961    1.111   .     S
C960   H1454   1.110   1_545 S
H962   C1206   1.110   .     S
O964   C965    1.412   .     S
C965   H967    1.115   .     S
C965   C968    1.529   .     S
C965   H966    1.114   .     S
C968   H970    1.112   .     S
C968   C971    1.526   .     S
C968   H969    1.112   .     S
C971   H973    1.110   .     S
C971   H974    1.111   .     S
C971   H972    1.109   .     S
F975   C762    1.357   1_655 S
C985   O1027   1.291   .     A
C985   C996    1.450   .     S
C985   O1193   1.293   1_455 S
C986   O1030   1.293   .     A
C986   C995    1.450   .     S
C986   O1192   1.292   1_455 S
C987   F1059   1.356   .     S
C987   C1016   1.419   .     A
C987   C989    1.388   .     A
C988   C990    1.386   .     A
C988   F1060   1.357   .     S
C988   C1015   1.418   .     A
C989   H1019   1.084   .     S
C990   H1020   1.083   .     S
C990   C276    1.391   1_556 S
C991   H1023   1.083   .     S
C991   C1078   1.400   .     S
C992   C995    1.400   .     A
C992   H1024   1.084   .     S
C992   C1240   1.383   .     S
C993   F1061   1.357   .     S
C993   C1237   1.383   .     S
C993   C1077   1.404   .     S
C994   F1062   1.357   .     S
C994   C996    1.404   .     A
C995   C1157   1.404   1_455 S
C996   C1155   1.400   1_455 S
C997   F1063   1.355   .     S
C997   N1026   1.369   .     A
C997   C999    1.416   .     A
C998   C1000   1.417   .     A
C998   F1064   1.355   .     S
C998   N1025   1.369   .     A
C999   F1065   1.354   .     S
C999   N1025   1.367   .     A
C1000  F1066   1.354   .     S
C1000  N1026   1.367   .     A
C1001  O1033   1.296   .     A
C1001  C1003   1.473   .     S
C1001  O1113   1.299   .     S
C1002  O1034   1.296   .     A
C1002  C1004   1.469   .     S
C1002  O1196   1.297   1_455 S
C1003  C1007   1.405   .     A
C1003  C1009   1.408   .     A
C1004  C1008   1.404   .     A
C1004  C1010   1.406   .     A
C1005  C1013   1.400   .     A
C1005  C1007   1.392   .     A
C1005  H1021   1.084   .     S
C1006  H1022   1.084   .     S
C1006  C1008   1.391   .     A
C1006  C1014   1.400   .     A
C1007  F1140   1.357   .     S
C1008  F1221   1.357   1_455 S
C1009  C1011   1.416   .     A
C1009  O1046   1.384   .     S
C1010  C1012   1.415   .     A
C1010  O1035   1.386   .     S
C1011  C1013   1.415   .     A
C1011  C1015   1.426   .     A
C1012  C1016   1.427   .     A
C1012  C1014   1.416   .     A
C1013  C251    1.391   1_556 S
C1015  C278    1.426   1_556 S
Cu1017 O1030   1.964   .     S
Cu1017 O1027   1.966   .     S
Cu1017 O1031   1.952   .     S
Cu1017 N1025   2.015   .     S
Cu1017 O1034   1.936   .     S
Cu1017 Cu1182  2.681   1_455 S
Cu1018 N1026   2.015   .     S
Cu1018 O1028   1.966   .     S
Cu1018 O1029   1.964   .     S
Cu1018 O1032   1.952   .     S
Cu1018 O1033   1.936   .     S
Cu1018 Cu1099  2.681   .     S
O1028  C1068   1.292   .     S
O1029  C1067   1.293   .     S
O1031  C1165   1.299   1_455 S
O1032  C1084   1.297   .     S
O1035  C1036   1.417   .     S
C1036  C1039   1.529   .     S
C1036  H1038   1.118   .     S
C1036  H1037   1.111   .     S
C1039  H1040   1.111   .     S
C1039  H1041   1.111   .     S
C1039  C1042   1.526   .     S
C1042  H1045   1.111   .     S
C1042  H1043   1.111   .     S
H1044  C1288   1.110   .     S
O1046  C1047   1.412   .     S
C1047  H1049   1.115   .     S
C1047  C1050   1.529   .     S
C1047  H1048   1.114   .     S
C1050  H1052   1.112   .     S
C1050  C1053   1.526   .     S
C1050  H1051   1.112   .     S
C1053  H1055   1.110   .     S
C1053  H1056   1.111   .     S
C1053  H1054   1.109   .     S
F1057  C1090   1.357   .     S
F1058  C1171   1.357   1_455 S
C1067  O1109   1.291   .     A
C1067  C1078   1.450   .     S
C1068  O1112   1.293   .     A
C1068  C1077   1.450   .     S
C1069  F1141   1.356   .     S
C1069  C1098   1.419   .     A
C1069  C1071   1.388   .     A
C1070  C1072   1.386   .     A
C1070  F1142   1.357   .     S
C1070  C1097   1.418   .     A
C1071  H1101   1.084   .     S
C1072  H1102   1.083   .     S
C1072  C358    1.391   1_556 S
C1073  H1105   1.083   .     S
C1073  C1160   1.400   .     S
C1074  C1077   1.400   .     A
C1074  H1106   1.084   .     S
C1074  C1322   1.383   .     S
C1075  F1143   1.357   .     S
C1075  C1319   1.383   .     S
C1075  C1159   1.404   .     S
C1076  F1144   1.357   .     S
C1076  C1078   1.404   .     A
C1079  F1145   1.355   .     S
C1079  N1108   1.369   .     A
C1079  C1081   1.416   .     A
C1080  C1082   1.417   .     A
C1080  F1146   1.355   .     S
C1080  N1107   1.369   .     A
C1081  F1147   1.354   .     S
C1081  N1107   1.367   .     A
C1082  F1148   1.354   .     S
C1082  N1108   1.367   .     A
C1083  O1115   1.296   .     A
C1083  C1085   1.473   .     S
C1083  O1195   1.299   .     S
C1084  O1116   1.296   .     A
C1084  C1086   1.469   .     S
C1085  C1089   1.405   .     A
C1085  C1091   1.408   .     A
C1086  C1090   1.404   .     A
C1086  C1092   1.406   .     A
C1087  C1095   1.400   .     A
C1087  C1089   1.392   .     A
C1087  H1103   1.084   .     S
C1088  H1104   1.084   .     S
C1088  C1090   1.391   .     A
C1088  C1096   1.400   .     A
C1089  F1222   1.357   .     S
C1091  C1093   1.416   .     A
C1091  O1128   1.384   .     S
C1092  C1094   1.415   .     A
C1092  O1117   1.386   .     S
C1093  C1095   1.415   .     A
C1093  C1097   1.426   .     A
C1094  C1098   1.427   .     A
C1094  C1096   1.416   .     A
C1095  C333    1.391   1_556 S
C1097  C360    1.426   1_556 S
Cu1099 O1112   1.964   .     S
Cu1099 O1109   1.966   .     S
Cu1099 O1113   1.952   .     S
Cu1099 N1107   2.015   .     S
Cu1099 O1116   1.936   .     S
Cu1100 N1108   2.015   .     S
Cu1100 O1110   1.966   .     S
Cu1100 O1111   1.964   .     S
Cu1100 O1114   1.952   .     S
Cu1100 O1115   1.936   .     S
Cu1100 Cu1181  2.681   .     S
O1110  C1150   1.292   .     S
O1111  C1149   1.293   .     S
O1114  C1166   1.297   .     S
O1117  C1118   1.417   .     S
C1118  C1121   1.529   .     S
C1118  H1120   1.118   .     S
C1118  H1119   1.111   .     S
C1121  H1122   1.111   .     S
C1121  H1123   1.111   .     S
C1121  C1124   1.526   .     S
C1124  H1127   1.111   .     S
C1124  H1125   1.111   .     S
H1126  C1370   1.110   .     S
O1128  C1129   1.412   .     S
C1129  H1131   1.115   .     S
C1129  C1132   1.529   .     S
C1129  H1130   1.114   .     S
C1132  H1134   1.112   .     S
C1132  C1135   1.526   .     S
C1132  H1133   1.112   .     S
C1135  H1137   1.110   .     S
C1135  H1138   1.111   .     S
C1135  H1136   1.109   .     S
F1139  C1172   1.357   .     S
C1149  O1191   1.291   .     A
C1149  C1160   1.450   .     S
C1150  O1194   1.293   .     A
C1150  C1159   1.450   .     S
C1151  F1223   1.356   .     S
C1151  C1180   1.419   .     A
C1151  C1153   1.388   .     A
C1152  C1154   1.386   .     A
C1152  F1224   1.357   .     S
C1152  C1179   1.418   .     A
C1153  H1183   1.084   .     S
C1154  H1184   1.083   .     S
C1154  C440    1.391   1_556 S
C1155  H1187   1.083   .     S
C1155  C996    1.400   1_655 S
C1156  C1159   1.400   .     A
C1156  H1188   1.084   .     S
C1156  C1404   1.383   .     S
C1157  F1225   1.357   .     S
C1157  C1401   1.383   .     S
C1157  C995    1.404   1_655 S
C1158  F1226   1.357   .     S
C1158  C1160   1.404   .     A
C1161  F1227   1.355   .     S
C1161  N1190   1.369   .     A
C1161  C1163   1.416   .     A
C1162  C1164   1.417   .     A
C1162  F1228   1.355   .     S
C1162  N1189   1.369   .     A
C1163  F1229   1.354   .     S
C1163  N1189   1.367   .     A
C1164  F1230   1.354   .     S
C1164  N1190   1.367   .     A
C1165  O1197   1.296   .     A
C1165  C1167   1.473   .     S
C1165  O1031   1.299   1_655 S
C1166  O1198   1.296   .     A
C1166  C1168   1.469   .     S
C1167  C1171   1.405   .     A
C1167  C1173   1.408   .     A
C1168  C1172   1.404   .     A
C1168  C1174   1.406   .     A
C1169  C1177   1.400   .     A
C1169  C1171   1.392   .     A
C1169  H1185   1.084   .     S
C1170  H1186   1.084   .     S
C1170  C1172   1.391   .     A
C1170  C1178   1.400   .     A
C1171  F1058   1.357   1_655 S
C1173  C1175   1.416   .     A
C1173  O1210   1.384   .     S
C1174  C1176   1.415   .     A
C1174  O1199   1.386   .     S
C1175  C1177   1.415   .     A
C1175  C1179   1.426   .     A
C1176  C1180   1.427   .     A
C1176  C1178   1.416   .     A
C1177  C415    1.391   1_556 S
C1179  C442    1.426   1_556 S
Cu1181 O1194   1.964   .     S
Cu1181 O1191   1.966   .     S
Cu1181 O1195   1.952   .     S
Cu1181 N1189   2.015   .     S
Cu1181 O1198   1.936   .     S
Cu1182 N1190   2.015   .     S
Cu1182 O1192   1.966   .     S
Cu1182 O1193   1.964   .     S
Cu1182 O1196   1.952   .     S
Cu1182 O1197   1.936   .     S
Cu1182 Cu1017  2.681   1_655 S
O1192  C986    1.292   1_655 S
O1193  C985    1.293   1_655 S
O1196  C1002   1.297   1_655 S
O1199  C1200   1.417   .     S
C1200  C1203   1.529   .     S
C1200  H1202   1.118   .     S
C1200  H1201   1.111   .     S
C1203  H1204   1.111   .     S
C1203  H1205   1.111   .     S
C1203  C1206   1.526   .     S
C1206  H1209   1.111   .     S
C1206  H1207   1.111   .     S
H1208  C1452   1.110   .     S
O1210  C1211   1.412   .     S
C1211  H1213   1.115   .     S
C1211  C1214   1.529   .     S
C1211  H1212   1.114   .     S
C1214  H1216   1.112   .     S
C1214  C1217   1.526   .     S
C1214  H1215   1.112   .     S
C1217  H1219   1.110   .     S
C1217  H1220   1.111   .     S
C1217  H1218   1.109   .     S
F1221  C1008   1.357   1_655 S
C1231  O1273   1.291   .     A
C1231  C1242   1.450   .     S
C1231  O1439   1.293   1_455 S
C1232  O1276   1.293   .     A
C1232  C1241   1.450   .     S
C1232  O1438   1.292   1_455 S
C1233  F1305   1.356   .     S
C1233  C1262   1.419   .     A
C1233  C1235   1.388   .     A
C1234  C1236   1.386   .     A
C1234  F1306   1.357   .     S
C1234  C1261   1.418   .     A
C1235  H1265   1.084   .     S
C1236  H1266   1.083   .     S
C1236  C522    1.391   1_556 S
C1237  H1269   1.083   .     S
C1237  C1324   1.400   .     S
C1238  C1241   1.400   .     A
C1238  H1270   1.084   .     S
C1238  C748    1.383   1_565 S
C1239  F1307   1.357   .     S
C1239  C745    1.383   1_565 S
C1239  C1323   1.404   .     S
C1240  F1308   1.357   .     S
C1240  C1242   1.404   .     A
C1241  C1403   1.404   1_455 S
C1242  C1401   1.400   1_455 S
C1243  F1309   1.355   .     S
C1243  N1272   1.369   .     A
C1243  C1245   1.416   .     A
C1244  C1246   1.417   .     A
C1244  F1310   1.355   .     S
C1244  N1271   1.369   .     A
C1245  F1311   1.354   .     S
C1245  N1271   1.367   .     A
C1246  F1312   1.354   .     S
C1246  N1272   1.367   .     A
C1247  O1279   1.296   .     A
C1247  C1249   1.473   .     S
C1247  O1359   1.299   .     S
C1248  O1280   1.296   .     A
C1248  C1250   1.469   .     S
C1248  O1442   1.297   1_455 S
C1249  C1253   1.405   .     A
C1249  C1255   1.408   .     A
C1250  C1254   1.404   .     A
C1250  C1256   1.406   .     A
C1251  C1259   1.400   .     A
C1251  C1253   1.392   .     A
C1251  H1267   1.084   .     S
C1252  H1268   1.084   .     S
C1252  C1254   1.391   .     A
C1252  C1260   1.400   .     A
C1253  F1386   1.357   .     S
C1254  F1467   1.357   1_455 S
C1255  C1257   1.416   .     A
C1255  O1292   1.384   .     S
C1256  C1258   1.415   .     A
C1256  O1281   1.386   .     S
C1257  C1259   1.415   .     A
C1257  C1261   1.426   .     A
C1258  C1262   1.427   .     A
C1258  C1260   1.416   .     A
C1259  C497    1.391   1_556 S
C1261  C524    1.426   1_556 S
Cu1263 O1276   1.964   .     S
Cu1263 O1273   1.966   .     S
Cu1263 O1277   1.952   .     S
Cu1263 N1271   2.015   .     S
Cu1263 O1280   1.936   .     S
Cu1263 Cu1428  2.681   1_455 S
Cu1264 N1272   2.015   .     S
Cu1264 O1274   1.966   .     S
Cu1264 O1275   1.964   .     S
Cu1264 O1278   1.952   .     S
Cu1264 O1279   1.936   .     S
Cu1264 Cu1345  2.681   .     S
O1274  C1314   1.292   .     S
O1275  C1313   1.293   .     S
O1277  C1411   1.299   1_455 S
O1278  C1330   1.297   .     S
O1281  C1282   1.417   .     S
C1282  C1285   1.529   .     S
C1282  H1284   1.118   .     S
C1282  H1283   1.111   .     S
C1285  H1286   1.111   .     S
C1285  H1287   1.111   .     S
C1285  C1288   1.526   .     S
C1288  H1291   1.111   .     S
C1288  H1289   1.111   .     S
H1290  C796    1.110   1_565 S
O1292  C1293   1.412   .     S
C1293  H1295   1.115   .     S
C1293  C1296   1.529   .     S
C1293  H1294   1.114   .     S
C1296  H1298   1.112   .     S
C1296  C1299   1.526   .     S
C1296  H1297   1.112   .     S
C1299  H1301   1.110   .     S
C1299  H1302   1.111   .     S
C1299  H1300   1.109   .     S
F1303  C1336   1.357   .     S
F1304  C1417   1.357   1_455 S
C1313  O1355   1.291   .     A
C1313  C1324   1.450   .     S
C1314  O1358   1.293   .     A
C1314  C1323   1.450   .     S
C1315  F1387   1.356   .     S
C1315  C1344   1.419   .     A
C1315  C1317   1.388   .     A
C1316  C1318   1.386   .     A
C1316  F1388   1.357   .     S
C1316  C1343   1.418   .     A
C1317  H1347   1.084   .     S
C1318  H1348   1.083   .     S
C1318  C604    1.391   1_556 S
C1319  H1351   1.083   .     S
C1319  C1406   1.400   .     S
C1320  C1323   1.400   .     A
C1320  H1352   1.084   .     S
C1320  C830    1.383   1_565 S
C1321  F1389   1.357   .     S
C1321  C827    1.383   1_565 S
C1321  C1405   1.404   .     S
C1322  F1390   1.357   .     S
C1322  C1324   1.404   .     A
C1325  F1391   1.355   .     S
C1325  N1354   1.369   .     A
C1325  C1327   1.416   .     A
C1326  C1328   1.417   .     A
C1326  F1392   1.355   .     S
C1326  N1353   1.369   .     A
C1327  F1393   1.354   .     S
C1327  N1353   1.367   .     A
C1328  F1394   1.354   .     S
C1328  N1354   1.367   .     A
C1329  O1361   1.296   .     A
C1329  C1331   1.473   .     S
C1329  O1441   1.299   .     S
C1330  O1362   1.296   .     A
C1330  C1332   1.469   .     S
C1331  C1335   1.405   .     A
C1331  C1337   1.408   .     A
C1332  C1336   1.404   .     A
C1332  C1338   1.406   .     A
C1333  C1341   1.400   .     A
C1333  C1335   1.392   .     A
C1333  H1349   1.084   .     S
C1334  H1350   1.084   .     S
C1334  C1336   1.391   .     A
C1334  C1342   1.400   .     A
C1335  F1468   1.357   .     S
C1337  C1339   1.416   .     A
C1337  O1374   1.384   .     S
C1338  C1340   1.415   .     A
C1338  O1363   1.386   .     S
C1339  C1341   1.415   .     A
C1339  C1343   1.426   .     A
C1340  C1344   1.427   .     A
C1340  C1342   1.416   .     A
C1341  C579    1.391   1_556 S
C1343  C606    1.426   1_556 S
Cu1345 O1358   1.964   .     S
Cu1345 O1355   1.966   .     S
Cu1345 O1359   1.952   .     S
Cu1345 N1353   2.015   .     S
Cu1345 O1362   1.936   .     S
Cu1346 N1354   2.015   .     S
Cu1346 O1356   1.966   .     S
Cu1346 O1357   1.964   .     S
Cu1346 O1360   1.952   .     S
Cu1346 O1361   1.936   .     S
Cu1346 Cu1427  2.681   .     S
O1356  C1396   1.292   .     S
O1357  C1395   1.293   .     S
O1360  C1412   1.297   .     S
O1363  C1364   1.417   .     S
C1364  C1367   1.529   .     S
C1364  H1366   1.118   .     S
C1364  H1365   1.111   .     S
C1367  H1368   1.111   .     S
C1367  H1369   1.111   .     S
C1367  C1370   1.526   .     S
C1370  H1373   1.111   .     S
C1370  H1371   1.111   .     S
H1372  C878    1.110   1_565 S
O1374  C1375   1.412   .     S
C1375  H1377   1.115   .     S
C1375  C1378   1.529   .     S
C1375  H1376   1.114   .     S
C1378  H1380   1.112   .     S
C1378  C1381   1.526   .     S
C1378  H1379   1.112   .     S
C1381  H1383   1.110   .     S
C1381  H1384   1.111   .     S
C1381  H1382   1.109   .     S
F1385  C1418   1.357   .     S
C1395  O1437   1.291   .     A
C1395  C1406   1.450   .     S
C1396  O1440   1.293   .     A
C1396  C1405   1.450   .     S
C1397  F1469   1.356   .     S
C1397  C1426   1.419   .     A
C1397  C1399   1.388   .     A
C1398  C1400   1.386   .     A
C1398  F1470   1.357   .     S
C1398  C1425   1.418   .     A
C1399  H1429   1.084   .     S
C1400  H1430   1.083   .     S
C1400  C686    1.391   1_556 S
C1401  H1433   1.083   .     S
C1401  C1242   1.400   1_655 S
C1402  C1405   1.400   .     A
C1402  H1434   1.084   .     S
C1402  C912    1.383   1_565 S
C1403  F1471   1.357   .     S
C1403  C909    1.383   1_565 S
C1403  C1241   1.404   1_655 S
C1404  F1472   1.357   .     S
C1404  C1406   1.404   .     A
C1407  F1473   1.355   .     S
C1407  N1436   1.369   .     A
C1407  C1409   1.416   .     A
C1408  C1410   1.417   .     A
C1408  F1474   1.355   .     S
C1408  N1435   1.369   .     A
C1409  F1475   1.354   .     S
C1409  N1435   1.367   .     A
C1410  F1476   1.354   .     S
C1410  N1436   1.367   .     A
C1411  O1443   1.296   .     A
C1411  C1413   1.473   .     S
C1411  O1277   1.299   1_655 S
C1412  O1444   1.296   .     A
C1412  C1414   1.469   .     S
C1413  C1417   1.405   .     A
C1413  C1419   1.408   .     A
C1414  C1418   1.404   .     A
C1414  C1420   1.406   .     A
C1415  C1423   1.400   .     A
C1415  C1417   1.392   .     A
C1415  H1431   1.084   .     S
C1416  H1432   1.084   .     S
C1416  C1418   1.391   .     A
C1416  C1424   1.400   .     A
C1417  F1304   1.357   1_655 S
C1419  C1421   1.416   .     A
C1419  O1456   1.384   .     S
C1420  C1422   1.415   .     A
C1420  O1445   1.386   .     S
C1421  C1423   1.415   .     A
C1421  C1425   1.426   .     A
C1422  C1426   1.427   .     A
C1422  C1424   1.416   .     A
C1423  C661    1.391   1_556 S
C1425  C688    1.426   1_556 S
Cu1427 O1440   1.964   .     S
Cu1427 O1437   1.966   .     S
Cu1427 O1441   1.952   .     S
Cu1427 N1435   2.015   .     S
Cu1427 O1444   1.936   .     S
Cu1428 N1436   2.015   .     S
Cu1428 O1438   1.966   .     S
Cu1428 O1439   1.964   .     S
Cu1428 O1442   1.952   .     S
Cu1428 O1443   1.936   .     S
Cu1428 Cu1263  2.681   1_655 S
O1438  C1232   1.292   1_655 S
O1439  C1231   1.293   1_655 S
O1442  C1248   1.297   1_655 S
O1445  C1446   1.417   .     S
C1446  C1449   1.529   .     S
C1446  H1448   1.118   .     S
C1446  H1447   1.111   .     S
C1449  H1450   1.111   .     S
C1449  H1451   1.111   .     S
C1449  C1452   1.526   .     S
C1452  H1455   1.111   .     S
C1452  H1453   1.111   .     S
H1454  C960    1.110   1_565 S
O1456  C1457   1.412   .     S
C1457  H1459   1.115   .     S
C1457  C1460   1.529   .     S
C1457  H1458   1.114   .     S
C1460  H1462   1.112   .     S
C1460  C1463   1.526   .     S
C1460  H1461   1.112   .     S
C1463  H1465   1.110   .     S
C1463  H1466   1.111   .     S
C1463  H1464   1.109   .     S
F1467  C1254   1.357   1_655 S
