data_str_m3_o2_o5_pcu_sym.60
_audit_creation_date              2020-01-03
_audit_creation_method            'Materials Studio'
_symmetry_space_group_name_H-M    'P1'
_symmetry_Int_Tables_number       1
_symmetry_cell_setting            triclinic
loop_
_symmetry_equiv_pos_as_xyz
  x,y,z
_cell_length_a                    29.9719
_cell_length_b                    28.3226
_cell_length_c                    26.7185
_cell_angle_alpha                 90.0712
_cell_angle_beta                  90.0336
_cell_angle_gamma                 89.9673
loop_
_atom_site_label
_atom_site_type_symbol
_atom_site_fract_x
_atom_site_fract_y
_atom_site_fract_z
_atom_site_U_iso_or_equiv
_atom_site_adp_type
_atom_site_occupancy
C1     C     0.16397   0.25000   0.16663   0.00000  Uiso   1.00
C2     C     0.27202   0.44774   0.12859   0.00000  Uiso   1.00
C3     C     0.24999   0.24998   0.07284   0.00000  Uiso   1.00
C4     C     0.24999   0.25002   0.26049   0.00000  Uiso   1.00
C5     C     0.25004   0.02667   0.16666   0.00000  Uiso   1.00
C6     C     0.25004   0.47333   0.16667   0.00000  Uiso   1.00
C7     C     0.24998   0.24997   0.02179   0.00000  Uiso   1.00
C8     C     0.24998   0.25003   0.31155   0.00000  Uiso   1.00
C9     C     0.04764   0.28045   0.13245   0.00000  Uiso   1.00
C10    C     0.45303   0.20883   0.14627   0.00000  Uiso   1.00
C11    C     0.45383   0.28911   0.18115   0.00000  Uiso   1.00
C12    C     0.33618   0.24997   0.16642   0.00000  Uiso   1.00
C13    C     0.04711   0.21635   0.19405   0.00000  Uiso   1.00
C14    C     0.09376   0.28212   0.13547   0.00000  Uiso   1.00
C15    C     0.40651   0.20989   0.14716   0.00000  Uiso   1.00
C16    C     0.40768   0.28939   0.18163   0.00000  Uiso   1.00
C17    C     0.09330   0.21646   0.19410   0.00000  Uiso   1.00
C18    C     0.11627   0.24985   0.16576   0.00000  Uiso   1.00
C19    C     0.38419   0.24969   0.16538   0.00000  Uiso   1.00
C20    C     0.02437   0.24839   0.16288   0.00000  Uiso   1.00
C21    C     0.47623   0.24896   0.16292   0.00000  Uiso   1.00
C22    C     0.02270   0.29123   0.05328   0.00000  Uiso   1.00
C23    C     0.22796   0.10223   0.13001   0.00000  Uiso   1.00
C24    C     0.46070   0.12743   0.14147   0.00000  Uiso   1.00
C25    C     0.48533   0.32881   0.24621   0.00000  Uiso   1.00
C26    C     0.01676   0.19957   0.26995   0.00000  Uiso   1.00
C27    C     0.22848   0.39781   0.20368   0.00000  Uiso   1.00
C28    C     0.27209   0.10230   0.20330   0.00000  Uiso   1.00
C29    C     0.27155   0.39768   0.12966   0.00000  Uiso   1.00
C30    C     0.22751   0.05216   0.12895   0.00000  Uiso   1.00
C31    C     0.22805   0.44788   0.20475   0.00000  Uiso   1.00
C32    C     0.27258   0.05223   0.20435   0.00000  Uiso   1.00
H33    H     0.21055   0.12210   0.10148   0.00000  Uiso   1.00
H34    H     0.05647   0.28636   0.03675   0.00000  Uiso   1.00
H35    H     0.00390   0.31557   0.02854   0.00000  Uiso   1.00
H36    H     0.48751   0.10084   0.13641   0.00000  Uiso   1.00
H37    H     0.43195   0.11604   0.11817   0.00000  Uiso   1.00
H38    H     0.45165   0.12750   0.18193   0.00000  Uiso   1.00
H39    H     0.01297   0.30397   0.25470   0.00000  Uiso   1.00
H40    H     0.45512   0.31995   0.26863   0.00000  Uiso   1.00
H41    H     0.49642   0.36449   0.25798   0.00000  Uiso   1.00
H42    H     0.48929   0.22588   0.26967   0.00000  Uiso   1.00
H43    H     0.04732   0.21475   0.28747   0.00000  Uiso   1.00
H44    H     0.21147   0.37796   0.23250   0.00000  Uiso   1.00
H45    H     0.00579   0.16971   0.29377   0.00000  Uiso   1.00
H46    H     0.19111   0.05063   0.06876   0.00000  Uiso   1.00
H47    H     0.19253   0.44945   0.26555   0.00000  Uiso   1.00
H48    H     0.30902   0.05082   0.26451   0.00000  Uiso   1.00
H49    H     0.30757   0.44911   0.06781   0.00000  Uiso   1.00
H50    H     0.28951   0.12223   0.23182   0.00000  Uiso   1.00
H51    H     0.28856   0.37774   0.10085   0.00000  Uiso   1.00
H52    H     0.11196   0.30749   0.11302   0.00000  Uiso   1.00
H53    H     0.38762   0.18041   0.13245   0.00000  Uiso   1.00
H54    H     0.39035   0.32056   0.19494   0.00000  Uiso   1.00
H55    H     0.11113   0.19111   0.21699   0.00000  Uiso   1.00
H56    H     0.00440   0.25702   0.05390   0.00000  Uiso   1.00
N57    N     0.25000   0.12623   0.16667   0.00000  Uiso   1.00
N58    N     0.25000   0.37376   0.16667   0.00000  Uiso   1.00
O59    O     0.18453   0.28974   0.16667   0.00000  Uiso   1.00
O60    O     0.47687   0.17162   0.12510   0.00000  Uiso   1.00
O61    O     0.47669   0.32968   0.19436   0.00000  Uiso   1.00
O62    O     0.02460   0.18234   0.22122   0.00000  Uiso   1.00
O63    O     0.20493   0.02768   0.09210   0.00000  Uiso   1.00
O64    O     0.20601   0.47239   0.24198   0.00000  Uiso   1.00
O65    O     0.29519   0.02783   0.24119   0.00000  Uiso   1.00
O66    O     0.29409   0.47212   0.09137   0.00000  Uiso   1.00
O67    O     0.31547   0.21026   0.16666   0.00000  Uiso   1.00
O68    O     0.31547   0.28974   0.16666   0.00000  Uiso   1.00
O69    O     0.18453   0.21026   0.16667   0.00000  Uiso   1.00
O70    O     0.25000   0.28973   0.09511   0.00000  Uiso   1.00
O71    O     0.25000   0.21027   0.23822   0.00000  Uiso   1.00
O72    O     0.25000   0.28973   0.23822   0.00000  Uiso   1.00
O73    O     0.25000   0.21027   0.09511   0.00000  Uiso   1.00
O74    O     0.02521   0.31148   0.10144   0.00000  Uiso   1.00
Zn75   Zn    0.25000   0.30307   0.16667   0.00000  Uiso   1.00
Zn76   Zn    0.25000   0.19693   0.16667   0.00000  Uiso   1.00
C77    C     0.66397   0.25000   0.16663   0.00000  Uiso   1.00
C78    C     0.77202   0.44774   0.12859   0.00000  Uiso   1.00
C79    C     0.74999   0.24998   0.07284   0.00000  Uiso   1.00
C80    C     0.74999   0.25002   0.26049   0.00000  Uiso   1.00
C81    C     0.75004   0.02667   0.16666   0.00000  Uiso   1.00
C82    C     0.75004   0.47333   0.16667   0.00000  Uiso   1.00
C83    C     0.74998   0.24997   0.02179   0.00000  Uiso   1.00
C84    C     0.74998   0.25003   0.31155   0.00000  Uiso   1.00
C85    C     0.54764   0.28045   0.13245   0.00000  Uiso   1.00
C86    C     0.95303   0.20883   0.14627   0.00000  Uiso   1.00
C87    C     0.95383   0.28911   0.18115   0.00000  Uiso   1.00
C88    C     0.83618   0.24997   0.16642   0.00000  Uiso   1.00
C89    C     0.54711   0.21635   0.19405   0.00000  Uiso   1.00
C90    C     0.59376   0.28212   0.13547   0.00000  Uiso   1.00
C91    C     0.90651   0.20989   0.14716   0.00000  Uiso   1.00
C92    C     0.90768   0.28939   0.18163   0.00000  Uiso   1.00
C93    C     0.59330   0.21646   0.19410   0.00000  Uiso   1.00
C94    C     0.61627   0.24985   0.16576   0.00000  Uiso   1.00
C95    C     0.88419   0.24969   0.16538   0.00000  Uiso   1.00
C96    C     0.52437   0.24839   0.16288   0.00000  Uiso   1.00
C97    C     0.97623   0.24896   0.16292   0.00000  Uiso   1.00
C98    C     0.52270   0.29123   0.05328   0.00000  Uiso   1.00
C99    C     0.72796   0.10223   0.13001   0.00000  Uiso   1.00
C100   C     0.96070   0.12743   0.14147   0.00000  Uiso   1.00
C101   C     0.98533   0.32881   0.24621   0.00000  Uiso   1.00
C102   C     0.51676   0.19957   0.26995   0.00000  Uiso   1.00
C103   C     0.72848   0.39781   0.20368   0.00000  Uiso   1.00
C104   C     0.77209   0.10230   0.20330   0.00000  Uiso   1.00
C105   C     0.77155   0.39768   0.12966   0.00000  Uiso   1.00
C106   C     0.72751   0.05216   0.12895   0.00000  Uiso   1.00
C107   C     0.72805   0.44788   0.20475   0.00000  Uiso   1.00
C108   C     0.77258   0.05223   0.20435   0.00000  Uiso   1.00
H109   H     0.71055   0.12210   0.10148   0.00000  Uiso   1.00
H110   H     0.55647   0.28636   0.03675   0.00000  Uiso   1.00
H111   H     0.50390   0.31557   0.02854   0.00000  Uiso   1.00
H112   H     0.98751   0.10084   0.13641   0.00000  Uiso   1.00
H113   H     0.93195   0.11604   0.11817   0.00000  Uiso   1.00
H114   H     0.95165   0.12750   0.18193   0.00000  Uiso   1.00
H115   H     0.51297   0.30397   0.25470   0.00000  Uiso   1.00
H116   H     0.95512   0.31995   0.26863   0.00000  Uiso   1.00
H117   H     0.99642   0.36449   0.25798   0.00000  Uiso   1.00
H118   H     0.98929   0.22588   0.26967   0.00000  Uiso   1.00
H119   H     0.54732   0.21475   0.28747   0.00000  Uiso   1.00
H120   H     0.71147   0.37796   0.23250   0.00000  Uiso   1.00
H121   H     0.50579   0.16971   0.29377   0.00000  Uiso   1.00
H122   H     0.69111   0.05063   0.06876   0.00000  Uiso   1.00
H123   H     0.69253   0.44945   0.26555   0.00000  Uiso   1.00
H124   H     0.80902   0.05082   0.26451   0.00000  Uiso   1.00
H125   H     0.80757   0.44911   0.06781   0.00000  Uiso   1.00
H126   H     0.78951   0.12223   0.23182   0.00000  Uiso   1.00
H127   H     0.78856   0.37774   0.10085   0.00000  Uiso   1.00
H128   H     0.61196   0.30749   0.11302   0.00000  Uiso   1.00
H129   H     0.88762   0.18041   0.13245   0.00000  Uiso   1.00
H130   H     0.89035   0.32056   0.19494   0.00000  Uiso   1.00
H131   H     0.61113   0.19111   0.21699   0.00000  Uiso   1.00
H132   H     0.50440   0.25702   0.05390   0.00000  Uiso   1.00
N133   N     0.75000   0.12623   0.16667   0.00000  Uiso   1.00
N134   N     0.75000   0.37376   0.16667   0.00000  Uiso   1.00
O135   O     0.68453   0.28974   0.16667   0.00000  Uiso   1.00
O136   O     0.97687   0.17162   0.12510   0.00000  Uiso   1.00
O137   O     0.97669   0.32968   0.19436   0.00000  Uiso   1.00
O138   O     0.52460   0.18234   0.22122   0.00000  Uiso   1.00
O139   O     0.70493   0.02768   0.09210   0.00000  Uiso   1.00
O140   O     0.70601   0.47239   0.24198   0.00000  Uiso   1.00
O141   O     0.79519   0.02783   0.24119   0.00000  Uiso   1.00
O142   O     0.79409   0.47212   0.09137   0.00000  Uiso   1.00
O143   O     0.81547   0.21026   0.16666   0.00000  Uiso   1.00
O144   O     0.81547   0.28974   0.16666   0.00000  Uiso   1.00
O145   O     0.68453   0.21026   0.16667   0.00000  Uiso   1.00
O146   O     0.75000   0.28973   0.09511   0.00000  Uiso   1.00
O147   O     0.75000   0.21027   0.23822   0.00000  Uiso   1.00
O148   O     0.75000   0.28973   0.23822   0.00000  Uiso   1.00
O149   O     0.75000   0.21027   0.09511   0.00000  Uiso   1.00
O150   O     0.52521   0.31148   0.10144   0.00000  Uiso   1.00
Zn151  Zn    0.75000   0.30307   0.16667   0.00000  Uiso   1.00
Zn152  Zn    0.75000   0.19693   0.16667   0.00000  Uiso   1.00
C153   C     0.16397   0.75000   0.16663   0.00000  Uiso   1.00
C154   C     0.27202   0.94774   0.12859   0.00000  Uiso   1.00
C155   C     0.24999   0.74998   0.07284   0.00000  Uiso   1.00
C156   C     0.24999   0.75002   0.26049   0.00000  Uiso   1.00
C157   C     0.25004   0.52667   0.16666   0.00000  Uiso   1.00
C158   C     0.25004   0.97333   0.16667   0.00000  Uiso   1.00
C159   C     0.24998   0.74997   0.02179   0.00000  Uiso   1.00
C160   C     0.24998   0.75003   0.31155   0.00000  Uiso   1.00
C161   C     0.04764   0.78045   0.13245   0.00000  Uiso   1.00
C162   C     0.45303   0.70883   0.14627   0.00000  Uiso   1.00
C163   C     0.45383   0.78911   0.18115   0.00000  Uiso   1.00
C164   C     0.33618   0.74997   0.16642   0.00000  Uiso   1.00
C165   C     0.04711   0.71635   0.19405   0.00000  Uiso   1.00
C166   C     0.09376   0.78212   0.13547   0.00000  Uiso   1.00
C167   C     0.40651   0.70989   0.14716   0.00000  Uiso   1.00
C168   C     0.40768   0.78939   0.18163   0.00000  Uiso   1.00
C169   C     0.09330   0.71646   0.19410   0.00000  Uiso   1.00
C170   C     0.11627   0.74985   0.16576   0.00000  Uiso   1.00
C171   C     0.38419   0.74969   0.16538   0.00000  Uiso   1.00
C172   C     0.02437   0.74839   0.16288   0.00000  Uiso   1.00
C173   C     0.47623   0.74896   0.16292   0.00000  Uiso   1.00
C174   C     0.02270   0.79123   0.05328   0.00000  Uiso   1.00
C175   C     0.22796   0.60223   0.13001   0.00000  Uiso   1.00
C176   C     0.46070   0.62743   0.14147   0.00000  Uiso   1.00
C177   C     0.48533   0.82881   0.24621   0.00000  Uiso   1.00
C178   C     0.01676   0.69957   0.26995   0.00000  Uiso   1.00
C179   C     0.22848   0.89781   0.20368   0.00000  Uiso   1.00
C180   C     0.27209   0.60230   0.20330   0.00000  Uiso   1.00
C181   C     0.27155   0.89768   0.12966   0.00000  Uiso   1.00
C182   C     0.22751   0.55216   0.12895   0.00000  Uiso   1.00
C183   C     0.22805   0.94788   0.20475   0.00000  Uiso   1.00
C184   C     0.27258   0.55223   0.20435   0.00000  Uiso   1.00
H185   H     0.21055   0.62210   0.10148   0.00000  Uiso   1.00
H186   H     0.05647   0.78636   0.03675   0.00000  Uiso   1.00
H187   H     0.00390   0.81557   0.02854   0.00000  Uiso   1.00
H188   H     0.48751   0.60084   0.13641   0.00000  Uiso   1.00
H189   H     0.43195   0.61604   0.11817   0.00000  Uiso   1.00
H190   H     0.45165   0.62750   0.18193   0.00000  Uiso   1.00
H191   H     0.01297   0.80397   0.25470   0.00000  Uiso   1.00
H192   H     0.45512   0.81995   0.26863   0.00000  Uiso   1.00
H193   H     0.49642   0.86449   0.25798   0.00000  Uiso   1.00
H194   H     0.48929   0.72588   0.26967   0.00000  Uiso   1.00
H195   H     0.04732   0.71475   0.28747   0.00000  Uiso   1.00
H196   H     0.21147   0.87796   0.23250   0.00000  Uiso   1.00
H197   H     0.00579   0.66971   0.29377   0.00000  Uiso   1.00
H198   H     0.19111   0.55063   0.06876   0.00000  Uiso   1.00
H199   H     0.19253   0.94945   0.26555   0.00000  Uiso   1.00
H200   H     0.30902   0.55082   0.26451   0.00000  Uiso   1.00
H201   H     0.30757   0.94911   0.06781   0.00000  Uiso   1.00
H202   H     0.28951   0.62223   0.23182   0.00000  Uiso   1.00
H203   H     0.28856   0.87774   0.10085   0.00000  Uiso   1.00
H204   H     0.11196   0.80749   0.11302   0.00000  Uiso   1.00
H205   H     0.38762   0.68041   0.13245   0.00000  Uiso   1.00
H206   H     0.39035   0.82056   0.19494   0.00000  Uiso   1.00
H207   H     0.11113   0.69111   0.21699   0.00000  Uiso   1.00
H208   H     0.00440   0.75702   0.05390   0.00000  Uiso   1.00
N209   N     0.25000   0.62623   0.16667   0.00000  Uiso   1.00
N210   N     0.25000   0.87376   0.16667   0.00000  Uiso   1.00
O211   O     0.18453   0.78974   0.16667   0.00000  Uiso   1.00
O212   O     0.47687   0.67162   0.12510   0.00000  Uiso   1.00
O213   O     0.47669   0.82968   0.19436   0.00000  Uiso   1.00
O214   O     0.02460   0.68234   0.22122   0.00000  Uiso   1.00
O215   O     0.20493   0.52768   0.09210   0.00000  Uiso   1.00
O216   O     0.20601   0.97239   0.24198   0.00000  Uiso   1.00
O217   O     0.29519   0.52783   0.24119   0.00000  Uiso   1.00
O218   O     0.29409   0.97212   0.09137   0.00000  Uiso   1.00
O219   O     0.31547   0.71026   0.16666   0.00000  Uiso   1.00
O220   O     0.31547   0.78974   0.16666   0.00000  Uiso   1.00
O221   O     0.18453   0.71026   0.16667   0.00000  Uiso   1.00
O222   O     0.25000   0.78973   0.09511   0.00000  Uiso   1.00
O223   O     0.25000   0.71027   0.23822   0.00000  Uiso   1.00
O224   O     0.25000   0.78973   0.23822   0.00000  Uiso   1.00
O225   O     0.25000   0.71027   0.09511   0.00000  Uiso   1.00
O226   O     0.02521   0.81148   0.10144   0.00000  Uiso   1.00
Zn227  Zn    0.25000   0.80307   0.16667   0.00000  Uiso   1.00
Zn228  Zn    0.25000   0.69693   0.16667   0.00000  Uiso   1.00
C229   C     0.66397   0.75000   0.16663   0.00000  Uiso   1.00
C230   C     0.77202   0.94774   0.12859   0.00000  Uiso   1.00
C231   C     0.74999   0.74998   0.07284   0.00000  Uiso   1.00
C232   C     0.74999   0.75002   0.26049   0.00000  Uiso   1.00
C233   C     0.75004   0.52667   0.16666   0.00000  Uiso   1.00
C234   C     0.75004   0.97333   0.16667   0.00000  Uiso   1.00
C235   C     0.74998   0.74997   0.02179   0.00000  Uiso   1.00
C236   C     0.74998   0.75003   0.31155   0.00000  Uiso   1.00
C237   C     0.54764   0.78045   0.13245   0.00000  Uiso   1.00
C238   C     0.95303   0.70883   0.14627   0.00000  Uiso   1.00
C239   C     0.95383   0.78911   0.18115   0.00000  Uiso   1.00
C240   C     0.83618   0.74997   0.16642   0.00000  Uiso   1.00
C241   C     0.54711   0.71635   0.19405   0.00000  Uiso   1.00
C242   C     0.59376   0.78212   0.13547   0.00000  Uiso   1.00
C243   C     0.90651   0.70989   0.14716   0.00000  Uiso   1.00
C244   C     0.90768   0.78939   0.18163   0.00000  Uiso   1.00
C245   C     0.59330   0.71646   0.19410   0.00000  Uiso   1.00
C246   C     0.61627   0.74985   0.16576   0.00000  Uiso   1.00
C247   C     0.88419   0.74969   0.16538   0.00000  Uiso   1.00
C248   C     0.52437   0.74839   0.16288   0.00000  Uiso   1.00
C249   C     0.97623   0.74896   0.16292   0.00000  Uiso   1.00
C250   C     0.52270   0.79123   0.05328   0.00000  Uiso   1.00
C251   C     0.72796   0.60223   0.13001   0.00000  Uiso   1.00
C252   C     0.96070   0.62743   0.14147   0.00000  Uiso   1.00
C253   C     0.98533   0.82881   0.24621   0.00000  Uiso   1.00
C254   C     0.51676   0.69957   0.26995   0.00000  Uiso   1.00
C255   C     0.72848   0.89781   0.20368   0.00000  Uiso   1.00
C256   C     0.77209   0.60230   0.20330   0.00000  Uiso   1.00
C257   C     0.77155   0.89768   0.12966   0.00000  Uiso   1.00
C258   C     0.72751   0.55216   0.12895   0.00000  Uiso   1.00
C259   C     0.72805   0.94788   0.20475   0.00000  Uiso   1.00
C260   C     0.77258   0.55223   0.20435   0.00000  Uiso   1.00
H261   H     0.71055   0.62210   0.10148   0.00000  Uiso   1.00
H262   H     0.55647   0.78636   0.03675   0.00000  Uiso   1.00
H263   H     0.50390   0.81557   0.02854   0.00000  Uiso   1.00
H264   H     0.98751   0.60084   0.13641   0.00000  Uiso   1.00
H265   H     0.93195   0.61604   0.11817   0.00000  Uiso   1.00
H266   H     0.95165   0.62750   0.18193   0.00000  Uiso   1.00
H267   H     0.51297   0.80397   0.25470   0.00000  Uiso   1.00
H268   H     0.95512   0.81995   0.26863   0.00000  Uiso   1.00
H269   H     0.99642   0.86449   0.25798   0.00000  Uiso   1.00
H270   H     0.98929   0.72588   0.26967   0.00000  Uiso   1.00
H271   H     0.54732   0.71475   0.28747   0.00000  Uiso   1.00
H272   H     0.71147   0.87796   0.23250   0.00000  Uiso   1.00
H273   H     0.50579   0.66971   0.29377   0.00000  Uiso   1.00
H274   H     0.69111   0.55063   0.06876   0.00000  Uiso   1.00
H275   H     0.69253   0.94945   0.26555   0.00000  Uiso   1.00
H276   H     0.80902   0.55082   0.26451   0.00000  Uiso   1.00
H277   H     0.80757   0.94911   0.06781   0.00000  Uiso   1.00
H278   H     0.78951   0.62223   0.23182   0.00000  Uiso   1.00
H279   H     0.78856   0.87774   0.10085   0.00000  Uiso   1.00
H280   H     0.61196   0.80749   0.11302   0.00000  Uiso   1.00
H281   H     0.88762   0.68041   0.13245   0.00000  Uiso   1.00
H282   H     0.89035   0.82056   0.19494   0.00000  Uiso   1.00
H283   H     0.61113   0.69111   0.21699   0.00000  Uiso   1.00
H284   H     0.50440   0.75702   0.05390   0.00000  Uiso   1.00
N285   N     0.75000   0.62623   0.16667   0.00000  Uiso   1.00
N286   N     0.75000   0.87376   0.16667   0.00000  Uiso   1.00
O287   O     0.68453   0.78974   0.16667   0.00000  Uiso   1.00
O288   O     0.97687   0.67162   0.12510   0.00000  Uiso   1.00
O289   O     0.97669   0.82968   0.19436   0.00000  Uiso   1.00
O290   O     0.52460   0.68234   0.22122   0.00000  Uiso   1.00
O291   O     0.70493   0.52768   0.09210   0.00000  Uiso   1.00
O292   O     0.70601   0.97239   0.24198   0.00000  Uiso   1.00
O293   O     0.79519   0.52783   0.24119   0.00000  Uiso   1.00
O294   O     0.79409   0.97212   0.09137   0.00000  Uiso   1.00
O295   O     0.81547   0.71026   0.16666   0.00000  Uiso   1.00
O296   O     0.81547   0.78974   0.16666   0.00000  Uiso   1.00
O297   O     0.68453   0.71026   0.16667   0.00000  Uiso   1.00
O298   O     0.75000   0.78973   0.09511   0.00000  Uiso   1.00
O299   O     0.75000   0.71027   0.23822   0.00000  Uiso   1.00
O300   O     0.75000   0.78973   0.23822   0.00000  Uiso   1.00
O301   O     0.75000   0.71027   0.09511   0.00000  Uiso   1.00
O302   O     0.52521   0.81148   0.10144   0.00000  Uiso   1.00
Zn303  Zn    0.75000   0.80307   0.16667   0.00000  Uiso   1.00
Zn304  Zn    0.75000   0.69693   0.16667   0.00000  Uiso   1.00
C305   C     0.16397   0.25000   0.49996   0.00000  Uiso   1.00
C306   C     0.27202   0.44774   0.46193   0.00000  Uiso   1.00
C307   C     0.24999   0.24998   0.40617   0.00000  Uiso   1.00
C308   C     0.24999   0.25002   0.59383   0.00000  Uiso   1.00
C309   C     0.25004   0.02667   0.49999   0.00000  Uiso   1.00
C310   C     0.25004   0.47333   0.50000   0.00000  Uiso   1.00
C311   C     0.24998   0.24997   0.35512   0.00000  Uiso   1.00
C312   C     0.24998   0.25003   0.64488   0.00000  Uiso   1.00
C313   C     0.04764   0.28045   0.46579   0.00000  Uiso   1.00
C314   C     0.45303   0.20883   0.47960   0.00000  Uiso   1.00
C315   C     0.45383   0.28911   0.51449   0.00000  Uiso   1.00
C316   C     0.33618   0.24997   0.49975   0.00000  Uiso   1.00
C317   C     0.04711   0.21635   0.52738   0.00000  Uiso   1.00
C318   C     0.09376   0.28212   0.46880   0.00000  Uiso   1.00
C319   C     0.40651   0.20989   0.48049   0.00000  Uiso   1.00
C320   C     0.40768   0.28939   0.51496   0.00000  Uiso   1.00
C321   C     0.09330   0.21646   0.52743   0.00000  Uiso   1.00
C322   C     0.11627   0.24985   0.49909   0.00000  Uiso   1.00
C323   C     0.38419   0.24969   0.49871   0.00000  Uiso   1.00
C324   C     0.02437   0.24839   0.49622   0.00000  Uiso   1.00
C325   C     0.47623   0.24896   0.49625   0.00000  Uiso   1.00
C326   C     0.02270   0.29123   0.38661   0.00000  Uiso   1.00
C327   C     0.22796   0.10223   0.46335   0.00000  Uiso   1.00
C328   C     0.46070   0.12743   0.47480   0.00000  Uiso   1.00
C329   C     0.48533   0.32881   0.57954   0.00000  Uiso   1.00
C330   C     0.01676   0.19957   0.60328   0.00000  Uiso   1.00
C331   C     0.22848   0.39781   0.53701   0.00000  Uiso   1.00
C332   C     0.27209   0.10230   0.53663   0.00000  Uiso   1.00
C333   C     0.27155   0.39768   0.46300   0.00000  Uiso   1.00
C334   C     0.22751   0.05216   0.46228   0.00000  Uiso   1.00
C335   C     0.22805   0.44788   0.53808   0.00000  Uiso   1.00
C336   C     0.27258   0.05223   0.53769   0.00000  Uiso   1.00
H337   H     0.21055   0.12210   0.43481   0.00000  Uiso   1.00
H338   H     0.05647   0.28636   0.37008   0.00000  Uiso   1.00
H339   H     0.00390   0.31557   0.36187   0.00000  Uiso   1.00
H340   H     0.48751   0.10084   0.46974   0.00000  Uiso   1.00
H341   H     0.43195   0.11604   0.45151   0.00000  Uiso   1.00
H342   H     0.45165   0.12750   0.51526   0.00000  Uiso   1.00
H343   H     0.01297   0.30397   0.58803   0.00000  Uiso   1.00
H344   H     0.45512   0.31995   0.60196   0.00000  Uiso   1.00
H345   H     0.49642   0.36449   0.59131   0.00000  Uiso   1.00
H346   H     0.48929   0.22588   0.60300   0.00000  Uiso   1.00
H347   H     0.04732   0.21475   0.62081   0.00000  Uiso   1.00
H348   H     0.21147   0.37796   0.56584   0.00000  Uiso   1.00
H349   H     0.00579   0.16971   0.62710   0.00000  Uiso   1.00
H350   H     0.19111   0.05063   0.40209   0.00000  Uiso   1.00
H351   H     0.19253   0.44945   0.59888   0.00000  Uiso   1.00
H352   H     0.30902   0.05082   0.59784   0.00000  Uiso   1.00
H353   H     0.30757   0.44911   0.40115   0.00000  Uiso   1.00
H354   H     0.28951   0.12223   0.56515   0.00000  Uiso   1.00
H355   H     0.28856   0.37774   0.43419   0.00000  Uiso   1.00
H356   H     0.11196   0.30749   0.44635   0.00000  Uiso   1.00
H357   H     0.38762   0.18041   0.46578   0.00000  Uiso   1.00
H358   H     0.39035   0.32056   0.52828   0.00000  Uiso   1.00
H359   H     0.11113   0.19111   0.55032   0.00000  Uiso   1.00
H360   H     0.00440   0.25702   0.38723   0.00000  Uiso   1.00
N361   N     0.25000   0.12623   0.50000   0.00000  Uiso   1.00
N362   N     0.25000   0.37376   0.50000   0.00000  Uiso   1.00
O363   O     0.18453   0.28974   0.50000   0.00000  Uiso   1.00
O364   O     0.47687   0.17162   0.45843   0.00000  Uiso   1.00
O365   O     0.47669   0.32968   0.52770   0.00000  Uiso   1.00
O366   O     0.02460   0.18234   0.55456   0.00000  Uiso   1.00
O367   O     0.20493   0.02768   0.42543   0.00000  Uiso   1.00
O368   O     0.20601   0.47239   0.57531   0.00000  Uiso   1.00
O369   O     0.29519   0.02783   0.57452   0.00000  Uiso   1.00
O370   O     0.29409   0.47212   0.42471   0.00000  Uiso   1.00
O371   O     0.31547   0.21026   0.50000   0.00000  Uiso   1.00
O372   O     0.31547   0.28974   0.50000   0.00000  Uiso   1.00
O373   O     0.18453   0.21026   0.50000   0.00000  Uiso   1.00
O374   O     0.25000   0.28973   0.42845   0.00000  Uiso   1.00
O375   O     0.25000   0.21027   0.57155   0.00000  Uiso   1.00
O376   O     0.25000   0.28973   0.57155   0.00000  Uiso   1.00
O377   O     0.25000   0.21027   0.42845   0.00000  Uiso   1.00
O378   O     0.02521   0.31148   0.43477   0.00000  Uiso   1.00
Zn379  Zn    0.25000   0.30307   0.50000   0.00000  Uiso   1.00
Zn380  Zn    0.25000   0.19693   0.50000   0.00000  Uiso   1.00
C381   C     0.66397   0.25000   0.49996   0.00000  Uiso   1.00
C382   C     0.77202   0.44774   0.46193   0.00000  Uiso   1.00
C383   C     0.74999   0.24998   0.40617   0.00000  Uiso   1.00
C384   C     0.74999   0.25002   0.59383   0.00000  Uiso   1.00
C385   C     0.75004   0.02667   0.49999   0.00000  Uiso   1.00
C386   C     0.75004   0.47333   0.50000   0.00000  Uiso   1.00
C387   C     0.74998   0.24997   0.35512   0.00000  Uiso   1.00
C388   C     0.74998   0.25003   0.64488   0.00000  Uiso   1.00
C389   C     0.54764   0.28045   0.46579   0.00000  Uiso   1.00
C390   C     0.95303   0.20883   0.47960   0.00000  Uiso   1.00
C391   C     0.95383   0.28911   0.51449   0.00000  Uiso   1.00
C392   C     0.83618   0.24997   0.49975   0.00000  Uiso   1.00
C393   C     0.54711   0.21635   0.52738   0.00000  Uiso   1.00
C394   C     0.59376   0.28212   0.46880   0.00000  Uiso   1.00
C395   C     0.90651   0.20989   0.48049   0.00000  Uiso   1.00
C396   C     0.90768   0.28939   0.51496   0.00000  Uiso   1.00
C397   C     0.59330   0.21646   0.52743   0.00000  Uiso   1.00
C398   C     0.61627   0.24985   0.49909   0.00000  Uiso   1.00
C399   C     0.88419   0.24969   0.49871   0.00000  Uiso   1.00
C400   C     0.52437   0.24839   0.49622   0.00000  Uiso   1.00
C401   C     0.97623   0.24896   0.49625   0.00000  Uiso   1.00
C402   C     0.52270   0.29123   0.38661   0.00000  Uiso   1.00
C403   C     0.72796   0.10223   0.46335   0.00000  Uiso   1.00
C404   C     0.96070   0.12743   0.47480   0.00000  Uiso   1.00
C405   C     0.98533   0.32881   0.57954   0.00000  Uiso   1.00
C406   C     0.51676   0.19957   0.60328   0.00000  Uiso   1.00
C407   C     0.72848   0.39781   0.53701   0.00000  Uiso   1.00
C408   C     0.77209   0.10230   0.53663   0.00000  Uiso   1.00
C409   C     0.77155   0.39768   0.46300   0.00000  Uiso   1.00
C410   C     0.72751   0.05216   0.46228   0.00000  Uiso   1.00
C411   C     0.72805   0.44788   0.53808   0.00000  Uiso   1.00
C412   C     0.77258   0.05223   0.53769   0.00000  Uiso   1.00
H413   H     0.71055   0.12210   0.43481   0.00000  Uiso   1.00
H414   H     0.55647   0.28636   0.37008   0.00000  Uiso   1.00
H415   H     0.50390   0.31557   0.36187   0.00000  Uiso   1.00
H416   H     0.98751   0.10084   0.46974   0.00000  Uiso   1.00
H417   H     0.93195   0.11604   0.45151   0.00000  Uiso   1.00
H418   H     0.95165   0.12750   0.51526   0.00000  Uiso   1.00
H419   H     0.51297   0.30397   0.58803   0.00000  Uiso   1.00
H420   H     0.95512   0.31995   0.60196   0.00000  Uiso   1.00
H421   H     0.99642   0.36449   0.59131   0.00000  Uiso   1.00
H422   H     0.98929   0.22588   0.60300   0.00000  Uiso   1.00
H423   H     0.54732   0.21475   0.62081   0.00000  Uiso   1.00
H424   H     0.71147   0.37796   0.56584   0.00000  Uiso   1.00
H425   H     0.50579   0.16971   0.62710   0.00000  Uiso   1.00
H426   H     0.69111   0.05063   0.40209   0.00000  Uiso   1.00
H427   H     0.69253   0.44945   0.59888   0.00000  Uiso   1.00
H428   H     0.80902   0.05082   0.59784   0.00000  Uiso   1.00
H429   H     0.80757   0.44911   0.40115   0.00000  Uiso   1.00
H430   H     0.78951   0.12223   0.56515   0.00000  Uiso   1.00
H431   H     0.78856   0.37774   0.43419   0.00000  Uiso   1.00
H432   H     0.61196   0.30749   0.44635   0.00000  Uiso   1.00
H433   H     0.88762   0.18041   0.46578   0.00000  Uiso   1.00
H434   H     0.89035   0.32056   0.52828   0.00000  Uiso   1.00
H435   H     0.61113   0.19111   0.55032   0.00000  Uiso   1.00
H436   H     0.50440   0.25702   0.38723   0.00000  Uiso   1.00
N437   N     0.75000   0.12623   0.50000   0.00000  Uiso   1.00
N438   N     0.75000   0.37376   0.50000   0.00000  Uiso   1.00
O439   O     0.68453   0.28974   0.50000   0.00000  Uiso   1.00
O440   O     0.97687   0.17162   0.45843   0.00000  Uiso   1.00
O441   O     0.97669   0.32968   0.52770   0.00000  Uiso   1.00
O442   O     0.52460   0.18234   0.55456   0.00000  Uiso   1.00
O443   O     0.70493   0.02768   0.42543   0.00000  Uiso   1.00
O444   O     0.70601   0.47239   0.57531   0.00000  Uiso   1.00
O445   O     0.79519   0.02783   0.57452   0.00000  Uiso   1.00
O446   O     0.79409   0.47212   0.42471   0.00000  Uiso   1.00
O447   O     0.81547   0.21026   0.50000   0.00000  Uiso   1.00
O448   O     0.81547   0.28974   0.50000   0.00000  Uiso   1.00
O449   O     0.68453   0.21026   0.50000   0.00000  Uiso   1.00
O450   O     0.75000   0.28973   0.42845   0.00000  Uiso   1.00
O451   O     0.75000   0.21027   0.57155   0.00000  Uiso   1.00
O452   O     0.75000   0.28973   0.57155   0.00000  Uiso   1.00
O453   O     0.75000   0.21027   0.42845   0.00000  Uiso   1.00
O454   O     0.52521   0.31148   0.43477   0.00000  Uiso   1.00
Zn455  Zn    0.75000   0.30307   0.50000   0.00000  Uiso   1.00
Zn456  Zn    0.75000   0.19693   0.50000   0.00000  Uiso   1.00
C457   C     0.16397   0.75000   0.49996   0.00000  Uiso   1.00
C458   C     0.27202   0.94774   0.46193   0.00000  Uiso   1.00
C459   C     0.24999   0.74998   0.40617   0.00000  Uiso   1.00
C460   C     0.24999   0.75002   0.59383   0.00000  Uiso   1.00
C461   C     0.25004   0.52667   0.49999   0.00000  Uiso   1.00
C462   C     0.25004   0.97333   0.50000   0.00000  Uiso   1.00
C463   C     0.24998   0.74997   0.35512   0.00000  Uiso   1.00
C464   C     0.24998   0.75003   0.64488   0.00000  Uiso   1.00
C465   C     0.04764   0.78045   0.46579   0.00000  Uiso   1.00
C466   C     0.45303   0.70883   0.47960   0.00000  Uiso   1.00
C467   C     0.45383   0.78911   0.51449   0.00000  Uiso   1.00
C468   C     0.33618   0.74997   0.49975   0.00000  Uiso   1.00
C469   C     0.04711   0.71635   0.52738   0.00000  Uiso   1.00
C470   C     0.09376   0.78212   0.46880   0.00000  Uiso   1.00
C471   C     0.40651   0.70989   0.48049   0.00000  Uiso   1.00
C472   C     0.40768   0.78939   0.51496   0.00000  Uiso   1.00
C473   C     0.09330   0.71646   0.52743   0.00000  Uiso   1.00
C474   C     0.11627   0.74985   0.49909   0.00000  Uiso   1.00
C475   C     0.38419   0.74969   0.49871   0.00000  Uiso   1.00
C476   C     0.02437   0.74839   0.49622   0.00000  Uiso   1.00
C477   C     0.47623   0.74896   0.49625   0.00000  Uiso   1.00
C478   C     0.02270   0.79123   0.38661   0.00000  Uiso   1.00
C479   C     0.22796   0.60223   0.46335   0.00000  Uiso   1.00
C480   C     0.46070   0.62743   0.47480   0.00000  Uiso   1.00
C481   C     0.48533   0.82881   0.57954   0.00000  Uiso   1.00
C482   C     0.01676   0.69957   0.60328   0.00000  Uiso   1.00
C483   C     0.22848   0.89781   0.53701   0.00000  Uiso   1.00
C484   C     0.27209   0.60230   0.53663   0.00000  Uiso   1.00
C485   C     0.27155   0.89768   0.46300   0.00000  Uiso   1.00
C486   C     0.22751   0.55216   0.46228   0.00000  Uiso   1.00
C487   C     0.22805   0.94788   0.53808   0.00000  Uiso   1.00
C488   C     0.27258   0.55223   0.53769   0.00000  Uiso   1.00
H489   H     0.21055   0.62210   0.43481   0.00000  Uiso   1.00
H490   H     0.05647   0.78636   0.37008   0.00000  Uiso   1.00
H491   H     0.00390   0.81557   0.36187   0.00000  Uiso   1.00
H492   H     0.48751   0.60084   0.46974   0.00000  Uiso   1.00
H493   H     0.43195   0.61604   0.45151   0.00000  Uiso   1.00
H494   H     0.45165   0.62750   0.51526   0.00000  Uiso   1.00
H495   H     0.01297   0.80397   0.58803   0.00000  Uiso   1.00
H496   H     0.45512   0.81995   0.60196   0.00000  Uiso   1.00
H497   H     0.49642   0.86449   0.59131   0.00000  Uiso   1.00
H498   H     0.48929   0.72588   0.60300   0.00000  Uiso   1.00
H499   H     0.04732   0.71475   0.62081   0.00000  Uiso   1.00
H500   H     0.21147   0.87796   0.56584   0.00000  Uiso   1.00
H501   H     0.00579   0.66971   0.62710   0.00000  Uiso   1.00
H502   H     0.19111   0.55063   0.40209   0.00000  Uiso   1.00
H503   H     0.19253   0.94945   0.59888   0.00000  Uiso   1.00
H504   H     0.30902   0.55082   0.59784   0.00000  Uiso   1.00
H505   H     0.30757   0.94911   0.40115   0.00000  Uiso   1.00
H506   H     0.28951   0.62223   0.56515   0.00000  Uiso   1.00
H507   H     0.28856   0.87774   0.43419   0.00000  Uiso   1.00
H508   H     0.11196   0.80749   0.44635   0.00000  Uiso   1.00
H509   H     0.38762   0.68041   0.46578   0.00000  Uiso   1.00
H510   H     0.39035   0.82056   0.52828   0.00000  Uiso   1.00
H511   H     0.11113   0.69111   0.55032   0.00000  Uiso   1.00
H512   H     0.00440   0.75702   0.38723   0.00000  Uiso   1.00
N513   N     0.25000   0.62623   0.50000   0.00000  Uiso   1.00
N514   N     0.25000   0.87376   0.50000   0.00000  Uiso   1.00
O515   O     0.18453   0.78974   0.50000   0.00000  Uiso   1.00
O516   O     0.47687   0.67162   0.45843   0.00000  Uiso   1.00
O517   O     0.47669   0.82968   0.52770   0.00000  Uiso   1.00
O518   O     0.02460   0.68234   0.55456   0.00000  Uiso   1.00
O519   O     0.20493   0.52768   0.42543   0.00000  Uiso   1.00
O520   O     0.20601   0.97239   0.57531   0.00000  Uiso   1.00
O521   O     0.29519   0.52783   0.57452   0.00000  Uiso   1.00
O522   O     0.29409   0.97212   0.42471   0.00000  Uiso   1.00
O523   O     0.31547   0.71026   0.50000   0.00000  Uiso   1.00
O524   O     0.31547   0.78974   0.50000   0.00000  Uiso   1.00
O525   O     0.18453   0.71026   0.50000   0.00000  Uiso   1.00
O526   O     0.25000   0.78973   0.42845   0.00000  Uiso   1.00
O527   O     0.25000   0.71027   0.57155   0.00000  Uiso   1.00
O528   O     0.25000   0.78973   0.57155   0.00000  Uiso   1.00
O529   O     0.25000   0.71027   0.42845   0.00000  Uiso   1.00
O530   O     0.02521   0.81148   0.43477   0.00000  Uiso   1.00
Zn531  Zn    0.25000   0.80307   0.50000   0.00000  Uiso   1.00
Zn532  Zn    0.25000   0.69693   0.50000   0.00000  Uiso   1.00
C533   C     0.66397   0.75000   0.49996   0.00000  Uiso   1.00
C534   C     0.77202   0.94774   0.46193   0.00000  Uiso   1.00
C535   C     0.74999   0.74998   0.40617   0.00000  Uiso   1.00
C536   C     0.74999   0.75002   0.59383   0.00000  Uiso   1.00
C537   C     0.75004   0.52667   0.49999   0.00000  Uiso   1.00
C538   C     0.75004   0.97333   0.50000   0.00000  Uiso   1.00
C539   C     0.74998   0.74997   0.35512   0.00000  Uiso   1.00
C540   C     0.74998   0.75003   0.64488   0.00000  Uiso   1.00
C541   C     0.54764   0.78045   0.46579   0.00000  Uiso   1.00
C542   C     0.95303   0.70883   0.47960   0.00000  Uiso   1.00
C543   C     0.95383   0.78911   0.51449   0.00000  Uiso   1.00
C544   C     0.83618   0.74997   0.49975   0.00000  Uiso   1.00
C545   C     0.54711   0.71635   0.52738   0.00000  Uiso   1.00
C546   C     0.59376   0.78212   0.46880   0.00000  Uiso   1.00
C547   C     0.90651   0.70989   0.48049   0.00000  Uiso   1.00
C548   C     0.90768   0.78939   0.51496   0.00000  Uiso   1.00
C549   C     0.59330   0.71646   0.52743   0.00000  Uiso   1.00
C550   C     0.61627   0.74985   0.49909   0.00000  Uiso   1.00
C551   C     0.88419   0.74969   0.49871   0.00000  Uiso   1.00
C552   C     0.52437   0.74839   0.49622   0.00000  Uiso   1.00
C553   C     0.97623   0.74896   0.49625   0.00000  Uiso   1.00
C554   C     0.52270   0.79123   0.38661   0.00000  Uiso   1.00
C555   C     0.72796   0.60223   0.46335   0.00000  Uiso   1.00
C556   C     0.96070   0.62743   0.47480   0.00000  Uiso   1.00
C557   C     0.98533   0.82881   0.57954   0.00000  Uiso   1.00
C558   C     0.51676   0.69957   0.60328   0.00000  Uiso   1.00
C559   C     0.72848   0.89781   0.53701   0.00000  Uiso   1.00
C560   C     0.77209   0.60230   0.53663   0.00000  Uiso   1.00
C561   C     0.77155   0.89768   0.46300   0.00000  Uiso   1.00
C562   C     0.72751   0.55216   0.46228   0.00000  Uiso   1.00
C563   C     0.72805   0.94788   0.53808   0.00000  Uiso   1.00
C564   C     0.77258   0.55223   0.53769   0.00000  Uiso   1.00
H565   H     0.71055   0.62210   0.43481   0.00000  Uiso   1.00
H566   H     0.55647   0.78636   0.37008   0.00000  Uiso   1.00
H567   H     0.50390   0.81557   0.36187   0.00000  Uiso   1.00
H568   H     0.98751   0.60084   0.46974   0.00000  Uiso   1.00
H569   H     0.93195   0.61604   0.45151   0.00000  Uiso   1.00
H570   H     0.95165   0.62750   0.51526   0.00000  Uiso   1.00
H571   H     0.51297   0.80397   0.58803   0.00000  Uiso   1.00
H572   H     0.95512   0.81995   0.60196   0.00000  Uiso   1.00
H573   H     0.99642   0.86449   0.59131   0.00000  Uiso   1.00
H574   H     0.98929   0.72588   0.60300   0.00000  Uiso   1.00
H575   H     0.54732   0.71475   0.62081   0.00000  Uiso   1.00
H576   H     0.71147   0.87796   0.56584   0.00000  Uiso   1.00
H577   H     0.50579   0.66971   0.62710   0.00000  Uiso   1.00
H578   H     0.69111   0.55063   0.40209   0.00000  Uiso   1.00
H579   H     0.69253   0.94945   0.59888   0.00000  Uiso   1.00
H580   H     0.80902   0.55082   0.59784   0.00000  Uiso   1.00
H581   H     0.80757   0.94911   0.40115   0.00000  Uiso   1.00
H582   H     0.78951   0.62223   0.56515   0.00000  Uiso   1.00
H583   H     0.78856   0.87774   0.43419   0.00000  Uiso   1.00
H584   H     0.61196   0.80749   0.44635   0.00000  Uiso   1.00
H585   H     0.88762   0.68041   0.46578   0.00000  Uiso   1.00
H586   H     0.89035   0.82056   0.52828   0.00000  Uiso   1.00
H587   H     0.61113   0.69111   0.55032   0.00000  Uiso   1.00
H588   H     0.50440   0.75702   0.38723   0.00000  Uiso   1.00
N589   N     0.75000   0.62623   0.50000   0.00000  Uiso   1.00
N590   N     0.75000   0.87376   0.50000   0.00000  Uiso   1.00
O591   O     0.68453   0.78974   0.50000   0.00000  Uiso   1.00
O592   O     0.97687   0.67162   0.45843   0.00000  Uiso   1.00
O593   O     0.97669   0.82968   0.52770   0.00000  Uiso   1.00
O594   O     0.52460   0.68234   0.55456   0.00000  Uiso   1.00
O595   O     0.70493   0.52768   0.42543   0.00000  Uiso   1.00
O596   O     0.70601   0.97239   0.57531   0.00000  Uiso   1.00
O597   O     0.79519   0.52783   0.57452   0.00000  Uiso   1.00
O598   O     0.79409   0.97212   0.42471   0.00000  Uiso   1.00
O599   O     0.81547   0.71026   0.50000   0.00000  Uiso   1.00
O600   O     0.81547   0.78974   0.50000   0.00000  Uiso   1.00
O601   O     0.68453   0.71026   0.50000   0.00000  Uiso   1.00
O602   O     0.75000   0.78973   0.42845   0.00000  Uiso   1.00
O603   O     0.75000   0.71027   0.57155   0.00000  Uiso   1.00
O604   O     0.75000   0.78973   0.57155   0.00000  Uiso   1.00
O605   O     0.75000   0.71027   0.42845   0.00000  Uiso   1.00
O606   O     0.52521   0.81148   0.43477   0.00000  Uiso   1.00
Zn607  Zn    0.75000   0.80307   0.50000   0.00000  Uiso   1.00
Zn608  Zn    0.75000   0.69693   0.50000   0.00000  Uiso   1.00
C609   C     0.16397   0.25000   0.83329   0.00000  Uiso   1.00
C610   C     0.27202   0.44774   0.79526   0.00000  Uiso   1.00
C611   C     0.24999   0.24998   0.73951   0.00000  Uiso   1.00
C612   C     0.24999   0.25002   0.92716   0.00000  Uiso   1.00
C613   C     0.25004   0.02667   0.83332   0.00000  Uiso   1.00
C614   C     0.25004   0.47333   0.83334   0.00000  Uiso   1.00
C615   C     0.24998   0.24997   0.68845   0.00000  Uiso   1.00
C616   C     0.24998   0.25003   0.97821   0.00000  Uiso   1.00
C617   C     0.04764   0.28045   0.79912   0.00000  Uiso   1.00
C618   C     0.45303   0.20883   0.81294   0.00000  Uiso   1.00
C619   C     0.45383   0.28911   0.84782   0.00000  Uiso   1.00
C620   C     0.33618   0.24997   0.83309   0.00000  Uiso   1.00
C621   C     0.04711   0.21635   0.86072   0.00000  Uiso   1.00
C622   C     0.09376   0.28212   0.80213   0.00000  Uiso   1.00
C623   C     0.40651   0.20989   0.81382   0.00000  Uiso   1.00
C624   C     0.40768   0.28939   0.84829   0.00000  Uiso   1.00
C625   C     0.09330   0.21646   0.86077   0.00000  Uiso   1.00
C626   C     0.11627   0.24985   0.83242   0.00000  Uiso   1.00
C627   C     0.38419   0.24969   0.83205   0.00000  Uiso   1.00
C628   C     0.02437   0.24839   0.82955   0.00000  Uiso   1.00
C629   C     0.47623   0.24896   0.82958   0.00000  Uiso   1.00
C630   C     0.02270   0.29123   0.71994   0.00000  Uiso   1.00
C631   C     0.22796   0.10223   0.79668   0.00000  Uiso   1.00
C632   C     0.46070   0.12743   0.80814   0.00000  Uiso   1.00
C633   C     0.48533   0.32881   0.91288   0.00000  Uiso   1.00
C634   C     0.01676   0.19957   0.93661   0.00000  Uiso   1.00
C635   C     0.22848   0.39781   0.87035   0.00000  Uiso   1.00
C636   C     0.27209   0.10230   0.86996   0.00000  Uiso   1.00
C637   C     0.27155   0.39768   0.79633   0.00000  Uiso   1.00
C638   C     0.22751   0.05216   0.79562   0.00000  Uiso   1.00
C639   C     0.22805   0.44788   0.87142   0.00000  Uiso   1.00
C640   C     0.27258   0.05223   0.87102   0.00000  Uiso   1.00
H641   H     0.21055   0.12210   0.76814   0.00000  Uiso   1.00
H642   H     0.05647   0.28636   0.70341   0.00000  Uiso   1.00
H643   H     0.00390   0.31557   0.69520   0.00000  Uiso   1.00
H644   H     0.48751   0.10084   0.80307   0.00000  Uiso   1.00
H645   H     0.43195   0.11604   0.78484   0.00000  Uiso   1.00
H646   H     0.45165   0.12750   0.84860   0.00000  Uiso   1.00
H647   H     0.01297   0.30397   0.92136   0.00000  Uiso   1.00
H648   H     0.45512   0.31995   0.93530   0.00000  Uiso   1.00
H649   H     0.49642   0.36449   0.92465   0.00000  Uiso   1.00
H650   H     0.48929   0.22588   0.93634   0.00000  Uiso   1.00
H651   H     0.04732   0.21475   0.95414   0.00000  Uiso   1.00
H652   H     0.21147   0.37796   0.89917   0.00000  Uiso   1.00
H653   H     0.00579   0.16971   0.96044   0.00000  Uiso   1.00
H654   H     0.19111   0.05063   0.73542   0.00000  Uiso   1.00
H655   H     0.19253   0.44945   0.93221   0.00000  Uiso   1.00
H656   H     0.30902   0.05082   0.93118   0.00000  Uiso   1.00
H657   H     0.30757   0.44911   0.73448   0.00000  Uiso   1.00
H658   H     0.28951   0.12223   0.89848   0.00000  Uiso   1.00
H659   H     0.28856   0.37774   0.76752   0.00000  Uiso   1.00
H660   H     0.11196   0.30749   0.77968   0.00000  Uiso   1.00
H661   H     0.38762   0.18041   0.79912   0.00000  Uiso   1.00
H662   H     0.39035   0.32056   0.86161   0.00000  Uiso   1.00
H663   H     0.11113   0.19111   0.88365   0.00000  Uiso   1.00
H664   H     0.00440   0.25702   0.72056   0.00000  Uiso   1.00
N665   N     0.25000   0.12623   0.83333   0.00000  Uiso   1.00
N666   N     0.25000   0.37376   0.83333   0.00000  Uiso   1.00
O667   O     0.18453   0.28974   0.83334   0.00000  Uiso   1.00
O668   O     0.47687   0.17162   0.79177   0.00000  Uiso   1.00
O669   O     0.47669   0.32968   0.86103   0.00000  Uiso   1.00
O670   O     0.02460   0.18234   0.88789   0.00000  Uiso   1.00
O671   O     0.20493   0.02768   0.75876   0.00000  Uiso   1.00
O672   O     0.20601   0.47239   0.90865   0.00000  Uiso   1.00
O673   O     0.29519   0.02783   0.90786   0.00000  Uiso   1.00
O674   O     0.29409   0.47212   0.75804   0.00000  Uiso   1.00
O675   O     0.31547   0.21026   0.83333   0.00000  Uiso   1.00
O676   O     0.31547   0.28974   0.83333   0.00000  Uiso   1.00
O677   O     0.18453   0.21026   0.83334   0.00000  Uiso   1.00
O678   O     0.25000   0.28973   0.76178   0.00000  Uiso   1.00
O679   O     0.25000   0.21027   0.90489   0.00000  Uiso   1.00
O680   O     0.25000   0.28973   0.90489   0.00000  Uiso   1.00
O681   O     0.25000   0.21027   0.76178   0.00000  Uiso   1.00
O682   O     0.02521   0.31148   0.76810   0.00000  Uiso   1.00
Zn683  Zn    0.25000   0.30307   0.83333   0.00000  Uiso   1.00
Zn684  Zn    0.25000   0.19693   0.83333   0.00000  Uiso   1.00
C685   C     0.66397   0.25000   0.83329   0.00000  Uiso   1.00
C686   C     0.77202   0.44774   0.79526   0.00000  Uiso   1.00
C687   C     0.74999   0.24998   0.73951   0.00000  Uiso   1.00
C688   C     0.74999   0.25002   0.92716   0.00000  Uiso   1.00
C689   C     0.75004   0.02667   0.83332   0.00000  Uiso   1.00
C690   C     0.75004   0.47333   0.83334   0.00000  Uiso   1.00
C691   C     0.74998   0.24997   0.68845   0.00000  Uiso   1.00
C692   C     0.74998   0.25003   0.97821   0.00000  Uiso   1.00
C693   C     0.54764   0.28045   0.79912   0.00000  Uiso   1.00
C694   C     0.95303   0.20883   0.81294   0.00000  Uiso   1.00
C695   C     0.95383   0.28911   0.84782   0.00000  Uiso   1.00
C696   C     0.83618   0.24997   0.83309   0.00000  Uiso   1.00
C697   C     0.54711   0.21635   0.86072   0.00000  Uiso   1.00
C698   C     0.59376   0.28212   0.80213   0.00000  Uiso   1.00
C699   C     0.90651   0.20989   0.81382   0.00000  Uiso   1.00
C700   C     0.90768   0.28939   0.84829   0.00000  Uiso   1.00
C701   C     0.59330   0.21646   0.86077   0.00000  Uiso   1.00
C702   C     0.61627   0.24985   0.83242   0.00000  Uiso   1.00
C703   C     0.88419   0.24969   0.83205   0.00000  Uiso   1.00
C704   C     0.52437   0.24839   0.82955   0.00000  Uiso   1.00
C705   C     0.97623   0.24896   0.82958   0.00000  Uiso   1.00
C706   C     0.52270   0.29123   0.71994   0.00000  Uiso   1.00
C707   C     0.72796   0.10223   0.79668   0.00000  Uiso   1.00
C708   C     0.96070   0.12743   0.80814   0.00000  Uiso   1.00
C709   C     0.98533   0.32881   0.91288   0.00000  Uiso   1.00
C710   C     0.51676   0.19957   0.93661   0.00000  Uiso   1.00
C711   C     0.72848   0.39781   0.87035   0.00000  Uiso   1.00
C712   C     0.77209   0.10230   0.86996   0.00000  Uiso   1.00
C713   C     0.77155   0.39768   0.79633   0.00000  Uiso   1.00
C714   C     0.72751   0.05216   0.79562   0.00000  Uiso   1.00
C715   C     0.72805   0.44788   0.87142   0.00000  Uiso   1.00
C716   C     0.77258   0.05223   0.87102   0.00000  Uiso   1.00
H717   H     0.71055   0.12210   0.76814   0.00000  Uiso   1.00
H718   H     0.55647   0.28636   0.70341   0.00000  Uiso   1.00
H719   H     0.50390   0.31557   0.69520   0.00000  Uiso   1.00
H720   H     0.98751   0.10084   0.80307   0.00000  Uiso   1.00
H721   H     0.93195   0.11604   0.78484   0.00000  Uiso   1.00
H722   H     0.95165   0.12750   0.84860   0.00000  Uiso   1.00
H723   H     0.51297   0.30397   0.92136   0.00000  Uiso   1.00
H724   H     0.95512   0.31995   0.93530   0.00000  Uiso   1.00
H725   H     0.99642   0.36449   0.92465   0.00000  Uiso   1.00
H726   H     0.98929   0.22588   0.93634   0.00000  Uiso   1.00
H727   H     0.54732   0.21475   0.95414   0.00000  Uiso   1.00
H728   H     0.71147   0.37796   0.89917   0.00000  Uiso   1.00
H729   H     0.50579   0.16971   0.96044   0.00000  Uiso   1.00
H730   H     0.69111   0.05063   0.73542   0.00000  Uiso   1.00
H731   H     0.69253   0.44945   0.93221   0.00000  Uiso   1.00
H732   H     0.80902   0.05082   0.93118   0.00000  Uiso   1.00
H733   H     0.80757   0.44911   0.73448   0.00000  Uiso   1.00
H734   H     0.78951   0.12223   0.89848   0.00000  Uiso   1.00
H735   H     0.78856   0.37774   0.76752   0.00000  Uiso   1.00
H736   H     0.61196   0.30749   0.77968   0.00000  Uiso   1.00
H737   H     0.88762   0.18041   0.79912   0.00000  Uiso   1.00
H738   H     0.89035   0.32056   0.86161   0.00000  Uiso   1.00
H739   H     0.61113   0.19111   0.88365   0.00000  Uiso   1.00
H740   H     0.50440   0.25702   0.72056   0.00000  Uiso   1.00
N741   N     0.75000   0.12623   0.83333   0.00000  Uiso   1.00
N742   N     0.75000   0.37376   0.83333   0.00000  Uiso   1.00
O743   O     0.68453   0.28974   0.83334   0.00000  Uiso   1.00
O744   O     0.97687   0.17162   0.79177   0.00000  Uiso   1.00
O745   O     0.97669   0.32968   0.86103   0.00000  Uiso   1.00
O746   O     0.52460   0.18234   0.88789   0.00000  Uiso   1.00
O747   O     0.70493   0.02768   0.75876   0.00000  Uiso   1.00
O748   O     0.70601   0.47239   0.90865   0.00000  Uiso   1.00
O749   O     0.79519   0.02783   0.90786   0.00000  Uiso   1.00
O750   O     0.79409   0.47212   0.75804   0.00000  Uiso   1.00
O751   O     0.81547   0.21026   0.83333   0.00000  Uiso   1.00
O752   O     0.81547   0.28974   0.83333   0.00000  Uiso   1.00
O753   O     0.68453   0.21026   0.83334   0.00000  Uiso   1.00
O754   O     0.75000   0.28973   0.76178   0.00000  Uiso   1.00
O755   O     0.75000   0.21027   0.90489   0.00000  Uiso   1.00
O756   O     0.75000   0.28973   0.90489   0.00000  Uiso   1.00
O757   O     0.75000   0.21027   0.76178   0.00000  Uiso   1.00
O758   O     0.52521   0.31148   0.76810   0.00000  Uiso   1.00
Zn759  Zn    0.75000   0.30307   0.83333   0.00000  Uiso   1.00
Zn760  Zn    0.75000   0.19693   0.83333   0.00000  Uiso   1.00
C761   C     0.16397   0.75000   0.83329   0.00000  Uiso   1.00
C762   C     0.27202   0.94774   0.79526   0.00000  Uiso   1.00
C763   C     0.24999   0.74998   0.73951   0.00000  Uiso   1.00
C764   C     0.24999   0.75002   0.92716   0.00000  Uiso   1.00
C765   C     0.25004   0.52667   0.83332   0.00000  Uiso   1.00
C766   C     0.25004   0.97333   0.83334   0.00000  Uiso   1.00
C767   C     0.24998   0.74997   0.68845   0.00000  Uiso   1.00
C768   C     0.24998   0.75003   0.97821   0.00000  Uiso   1.00
C769   C     0.04764   0.78045   0.79912   0.00000  Uiso   1.00
C770   C     0.45303   0.70883   0.81294   0.00000  Uiso   1.00
C771   C     0.45383   0.78911   0.84782   0.00000  Uiso   1.00
C772   C     0.33618   0.74997   0.83309   0.00000  Uiso   1.00
C773   C     0.04711   0.71635   0.86072   0.00000  Uiso   1.00
C774   C     0.09376   0.78212   0.80213   0.00000  Uiso   1.00
C775   C     0.40651   0.70989   0.81382   0.00000  Uiso   1.00
C776   C     0.40768   0.78939   0.84829   0.00000  Uiso   1.00
C777   C     0.09330   0.71646   0.86077   0.00000  Uiso   1.00
C778   C     0.11627   0.74985   0.83242   0.00000  Uiso   1.00
C779   C     0.38419   0.74969   0.83205   0.00000  Uiso   1.00
C780   C     0.02437   0.74839   0.82955   0.00000  Uiso   1.00
C781   C     0.47623   0.74896   0.82958   0.00000  Uiso   1.00
C782   C     0.02270   0.79123   0.71994   0.00000  Uiso   1.00
C783   C     0.22796   0.60223   0.79668   0.00000  Uiso   1.00
C784   C     0.46070   0.62743   0.80814   0.00000  Uiso   1.00
C785   C     0.48533   0.82881   0.91288   0.00000  Uiso   1.00
C786   C     0.01676   0.69957   0.93661   0.00000  Uiso   1.00
C787   C     0.22848   0.89781   0.87035   0.00000  Uiso   1.00
C788   C     0.27209   0.60230   0.86996   0.00000  Uiso   1.00
C789   C     0.27155   0.89768   0.79633   0.00000  Uiso   1.00
C790   C     0.22751   0.55216   0.79562   0.00000  Uiso   1.00
C791   C     0.22805   0.94788   0.87142   0.00000  Uiso   1.00
C792   C     0.27258   0.55223   0.87102   0.00000  Uiso   1.00
H793   H     0.21055   0.62210   0.76814   0.00000  Uiso   1.00
H794   H     0.05647   0.78636   0.70341   0.00000  Uiso   1.00
H795   H     0.00390   0.81557   0.69520   0.00000  Uiso   1.00
H796   H     0.48751   0.60084   0.80307   0.00000  Uiso   1.00
H797   H     0.43195   0.61604   0.78484   0.00000  Uiso   1.00
H798   H     0.45165   0.62750   0.84860   0.00000  Uiso   1.00
H799   H     0.01297   0.80397   0.92136   0.00000  Uiso   1.00
H800   H     0.45512   0.81995   0.93530   0.00000  Uiso   1.00
H801   H     0.49642   0.86449   0.92465   0.00000  Uiso   1.00
H802   H     0.48929   0.72588   0.93634   0.00000  Uiso   1.00
H803   H     0.04732   0.71475   0.95414   0.00000  Uiso   1.00
H804   H     0.21147   0.87796   0.89917   0.00000  Uiso   1.00
H805   H     0.00579   0.66971   0.96044   0.00000  Uiso   1.00
H806   H     0.19111   0.55063   0.73542   0.00000  Uiso   1.00
H807   H     0.19253   0.94945   0.93221   0.00000  Uiso   1.00
H808   H     0.30902   0.55082   0.93118   0.00000  Uiso   1.00
H809   H     0.30757   0.94911   0.73448   0.00000  Uiso   1.00
H810   H     0.28951   0.62223   0.89848   0.00000  Uiso   1.00
H811   H     0.28856   0.87774   0.76752   0.00000  Uiso   1.00
H812   H     0.11196   0.80749   0.77968   0.00000  Uiso   1.00
H813   H     0.38762   0.68041   0.79912   0.00000  Uiso   1.00
H814   H     0.39035   0.82056   0.86161   0.00000  Uiso   1.00
H815   H     0.11113   0.69111   0.88365   0.00000  Uiso   1.00
H816   H     0.00440   0.75702   0.72056   0.00000  Uiso   1.00
N817   N     0.25000   0.62623   0.83333   0.00000  Uiso   1.00
N818   N     0.25000   0.87376   0.83333   0.00000  Uiso   1.00
O819   O     0.18453   0.78974   0.83334   0.00000  Uiso   1.00
O820   O     0.47687   0.67162   0.79177   0.00000  Uiso   1.00
O821   O     0.47669   0.82968   0.86103   0.00000  Uiso   1.00
O822   O     0.02460   0.68234   0.88789   0.00000  Uiso   1.00
O823   O     0.20493   0.52768   0.75876   0.00000  Uiso   1.00
O824   O     0.20601   0.97239   0.90865   0.00000  Uiso   1.00
O825   O     0.29519   0.52783   0.90786   0.00000  Uiso   1.00
O826   O     0.29409   0.97212   0.75804   0.00000  Uiso   1.00
O827   O     0.31547   0.71026   0.83333   0.00000  Uiso   1.00
O828   O     0.31547   0.78974   0.83333   0.00000  Uiso   1.00
O829   O     0.18453   0.71026   0.83334   0.00000  Uiso   1.00
O830   O     0.25000   0.78973   0.76178   0.00000  Uiso   1.00
O831   O     0.25000   0.71027   0.90489   0.00000  Uiso   1.00
O832   O     0.25000   0.78973   0.90489   0.00000  Uiso   1.00
O833   O     0.25000   0.71027   0.76178   0.00000  Uiso   1.00
O834   O     0.02521   0.81148   0.76810   0.00000  Uiso   1.00
Zn835  Zn    0.25000   0.80307   0.83333   0.00000  Uiso   1.00
Zn836  Zn    0.25000   0.69693   0.83333   0.00000  Uiso   1.00
C837   C     0.66397   0.75000   0.83329   0.00000  Uiso   1.00
C838   C     0.77202   0.94774   0.79526   0.00000  Uiso   1.00
C839   C     0.74999   0.74998   0.73951   0.00000  Uiso   1.00
C840   C     0.74999   0.75002   0.92716   0.00000  Uiso   1.00
C841   C     0.75004   0.52667   0.83332   0.00000  Uiso   1.00
C842   C     0.75004   0.97333   0.83334   0.00000  Uiso   1.00
C843   C     0.74998   0.74997   0.68845   0.00000  Uiso   1.00
C844   C     0.74998   0.75003   0.97821   0.00000  Uiso   1.00
C845   C     0.54764   0.78045   0.79912   0.00000  Uiso   1.00
C846   C     0.95303   0.70883   0.81294   0.00000  Uiso   1.00
C847   C     0.95383   0.78911   0.84782   0.00000  Uiso   1.00
C848   C     0.83618   0.74997   0.83309   0.00000  Uiso   1.00
C849   C     0.54711   0.71635   0.86072   0.00000  Uiso   1.00
C850   C     0.59376   0.78212   0.80213   0.00000  Uiso   1.00
C851   C     0.90651   0.70989   0.81382   0.00000  Uiso   1.00
C852   C     0.90768   0.78939   0.84829   0.00000  Uiso   1.00
C853   C     0.59330   0.71646   0.86077   0.00000  Uiso   1.00
C854   C     0.61627   0.74985   0.83242   0.00000  Uiso   1.00
C855   C     0.88419   0.74969   0.83205   0.00000  Uiso   1.00
C856   C     0.52437   0.74839   0.82955   0.00000  Uiso   1.00
C857   C     0.97623   0.74896   0.82958   0.00000  Uiso   1.00
C858   C     0.52270   0.79123   0.71994   0.00000  Uiso   1.00
C859   C     0.72796   0.60223   0.79668   0.00000  Uiso   1.00
C860   C     0.96070   0.62743   0.80814   0.00000  Uiso   1.00
C861   C     0.98533   0.82881   0.91288   0.00000  Uiso   1.00
C862   C     0.51676   0.69957   0.93661   0.00000  Uiso   1.00
C863   C     0.72848   0.89781   0.87035   0.00000  Uiso   1.00
C864   C     0.77209   0.60230   0.86996   0.00000  Uiso   1.00
C865   C     0.77155   0.89768   0.79633   0.00000  Uiso   1.00
C866   C     0.72751   0.55216   0.79562   0.00000  Uiso   1.00
C867   C     0.72805   0.94788   0.87142   0.00000  Uiso   1.00
C868   C     0.77258   0.55223   0.87102   0.00000  Uiso   1.00
H869   H     0.71055   0.62210   0.76814   0.00000  Uiso   1.00
H870   H     0.55647   0.78636   0.70341   0.00000  Uiso   1.00
H871   H     0.50390   0.81557   0.69520   0.00000  Uiso   1.00
H872   H     0.98751   0.60084   0.80307   0.00000  Uiso   1.00
H873   H     0.93195   0.61604   0.78484   0.00000  Uiso   1.00
H874   H     0.95165   0.62750   0.84860   0.00000  Uiso   1.00
H875   H     0.51297   0.80397   0.92136   0.00000  Uiso   1.00
H876   H     0.95512   0.81995   0.93530   0.00000  Uiso   1.00
H877   H     0.99642   0.86449   0.92465   0.00000  Uiso   1.00
H878   H     0.98929   0.72588   0.93634   0.00000  Uiso   1.00
H879   H     0.54732   0.71475   0.95414   0.00000  Uiso   1.00
H880   H     0.71147   0.87796   0.89917   0.00000  Uiso   1.00
H881   H     0.50579   0.66971   0.96044   0.00000  Uiso   1.00
H882   H     0.69111   0.55063   0.73542   0.00000  Uiso   1.00
H883   H     0.69253   0.94945   0.93221   0.00000  Uiso   1.00
H884   H     0.80902   0.55082   0.93118   0.00000  Uiso   1.00
H885   H     0.80757   0.94911   0.73448   0.00000  Uiso   1.00
H886   H     0.78951   0.62223   0.89848   0.00000  Uiso   1.00
H887   H     0.78856   0.87774   0.76752   0.00000  Uiso   1.00
H888   H     0.61196   0.80749   0.77968   0.00000  Uiso   1.00
H889   H     0.88762   0.68041   0.79912   0.00000  Uiso   1.00
H890   H     0.89035   0.82056   0.86161   0.00000  Uiso   1.00
H891   H     0.61113   0.69111   0.88365   0.00000  Uiso   1.00
H892   H     0.50440   0.75702   0.72056   0.00000  Uiso   1.00
N893   N     0.75000   0.62623   0.83333   0.00000  Uiso   1.00
N894   N     0.75000   0.87376   0.83333   0.00000  Uiso   1.00
O895   O     0.68453   0.78974   0.83334   0.00000  Uiso   1.00
O896   O     0.97687   0.67162   0.79177   0.00000  Uiso   1.00
O897   O     0.97669   0.82968   0.86103   0.00000  Uiso   1.00
O898   O     0.52460   0.68234   0.88789   0.00000  Uiso   1.00
O899   O     0.70493   0.52768   0.75876   0.00000  Uiso   1.00
O900   O     0.70601   0.97239   0.90865   0.00000  Uiso   1.00
O901   O     0.79519   0.52783   0.90786   0.00000  Uiso   1.00
O902   O     0.79409   0.97212   0.75804   0.00000  Uiso   1.00
O903   O     0.81547   0.71026   0.83333   0.00000  Uiso   1.00
O904   O     0.81547   0.78974   0.83333   0.00000  Uiso   1.00
O905   O     0.68453   0.71026   0.83334   0.00000  Uiso   1.00
O906   O     0.75000   0.78973   0.76178   0.00000  Uiso   1.00
O907   O     0.75000   0.71027   0.90489   0.00000  Uiso   1.00
O908   O     0.75000   0.78973   0.90489   0.00000  Uiso   1.00
O909   O     0.75000   0.71027   0.76178   0.00000  Uiso   1.00
O910   O     0.52521   0.81148   0.76810   0.00000  Uiso   1.00
Zn911  Zn    0.75000   0.80307   0.83333   0.00000  Uiso   1.00
Zn912  Zn    0.75000   0.69693   0.83333   0.00000  Uiso   1.00
loop_
_geom_bond_atom_site_label_1
_geom_bond_atom_site_label_2
_geom_bond_distance
_geom_bond_site_symmetry_2
_ccdc_geom_bond_type
C1     O69     1.283   .     A
C1     C18     1.430   .     S
C1     O59     1.283   .     A
C2     C29     1.418   .     A
C2     C6      1.412   .     A
C2     O66     1.381   .     S
C3     O73     1.273   .     A
C3     C7      1.364   .     S
C3     O70     1.273   .     A
C4     C8      1.364   .     S
C4     O71     1.273   .     A
C4     O72     1.273   .     A
C5     C32     1.412   .     A
C5     C30     1.412   .     A
C5     C158    1.511   1_545 S
C6     C31     1.412   .     A
C6     C157    1.511   .     S
C7     C616    1.164   1_554 S
C8     C311    1.164   .     S
C9     C14     1.386   .     A
C9     C20     1.405   .     A
C9     O74     1.383   .     S
C10    O60     1.393   .     S
C10    C15     1.395   .     A
C10    C21     1.404   .     A
C11    O61     1.384   .     S
C11    C16     1.383   .     A
C11    C21     1.407   .     A
C12    O68     1.286   .     A
C12    C19     1.439   .     S
C12    O67     1.285   .     A
C13    C17     1.384   .     A
C13    C20     1.408   .     A
C13    O62     1.383   .     S
C14    C18     1.395   .     A
C14    H52     1.084   .     S
C15    C19     1.398   .     A
C15    H53     1.082   .     S
C16    C19     1.395   .     A
C16    H54     1.084   .     S
C17    C18     1.395   .     A
C17    H55     1.084   .     S
C20    C97     1.443   1_455 S
C21    C96     1.443   .     S
C22    H56     1.114   .     S
C22    H35     1.109   .     S
C22    H34     1.113   .     S
C22    O74     1.410   .     S
C23    C30     1.418   .     A
C23    N57     1.362   .     A
C23    H33     1.082   .     S
C24    H38     1.115   .     S
C24    H37     1.110   .     S
C24    H36     1.109   .     S
C24    O60     1.412   .     S
C25    H40     1.115   .     S
C25    O61     1.409   .     S
C25    H41     1.109   .     S
C25    H115    1.110   .     S
C26    H45     1.109   .     S
C26    O62     1.409   .     S
C26    H43     1.115   .     S
C26    H118    1.110   1_455 S
C27    H44     1.082   .     S
C27    C31     1.418   .     A
C27    N58     1.362   .     A
C28    N57     1.362   .     A
C28    H50     1.082   .     S
C28    C32     1.418   .     A
C29    H51     1.082   .     S
C29    N58     1.362   .     A
C30    O63     1.381   .     S
C31    O64     1.381   .     S
C32    O65     1.381   .     S
H39    C101    1.110   1_455 S
H42    C102    1.110   .     S
H46    O63     0.992   .     S
H47    O64     0.992   .     S
H48    O65     0.992   .     S
H49    O66     0.992   .     S
N57    Zn76    2.002   .     S
N58    Zn75    2.002   .     S
O59    Zn75    1.998   .     S
O67    Zn76    1.998   .     S
O68    Zn75    1.998   .     S
O69    Zn76    1.998   .     S
O70    Zn75    1.948   .     S
O71    Zn76    1.948   .     S
O72    Zn75    1.949   .     S
O73    Zn76    1.949   .     S
C77    O145    1.283   .     A
C77    C94     1.430   .     S
C77    O135    1.283   .     A
C78    C105    1.418   .     A
C78    C82     1.412   .     A
C78    O142    1.381   .     S
C79    O149    1.273   .     A
C79    C83     1.364   .     S
C79    O146    1.273   .     A
C80    C84     1.364   .     S
C80    O147    1.273   .     A
C80    O148    1.273   .     A
C81    C108    1.412   .     A
C81    C106    1.412   .     A
C81    C234    1.511   1_545 S
C82    C107    1.412   .     A
C82    C233    1.511   .     S
C83    C692    1.164   1_554 S
C84    C387    1.164   .     S
C85    C90     1.386   .     A
C85    C96     1.405   .     A
C85    O150    1.383   .     S
C86    O136    1.393   .     S
C86    C91     1.395   .     A
C86    C97     1.404   .     A
C87    O137    1.384   .     S
C87    C92     1.383   .     A
C87    C97     1.407   .     A
C88    O144    1.286   .     A
C88    C95     1.439   .     S
C88    O143    1.285   .     A
C89    C93     1.384   .     A
C89    C96     1.408   .     A
C89    O138    1.383   .     S
C90    C94     1.395   .     A
C90    H128    1.084   .     S
C91    C95     1.398   .     A
C91    H129    1.082   .     S
C92    C95     1.395   .     A
C92    H130    1.084   .     S
C93    C94     1.395   .     A
C93    H131    1.084   .     S
C97    C20     1.443   1_655 S
C98    H132    1.114   .     S
C98    H111    1.109   .     S
C98    H110    1.113   .     S
C98    O150    1.410   .     S
C99    C106    1.418   .     A
C99    N133    1.362   .     A
C99    H109    1.082   .     S
C100   H114    1.115   .     S
C100   H113    1.110   .     S
C100   H112    1.109   .     S
C100   O136    1.412   .     S
C101   H116    1.115   .     S
C101   O137    1.409   .     S
C101   H117    1.109   .     S
C101   H39     1.110   1_655 S
C102   H121    1.109   .     S
C102   O138    1.409   .     S
C102   H119    1.115   .     S
C103   H120    1.082   .     S
C103   C107    1.418   .     A
C103   N134    1.362   .     A
C104   N133    1.362   .     A
C104   H126    1.082   .     S
C104   C108    1.418   .     A
C105   H127    1.082   .     S
C105   N134    1.362   .     A
C106   O139    1.381   .     S
C107   O140    1.381   .     S
C108   O141    1.381   .     S
H118   C26     1.110   1_655 S
H122   O139    0.992   .     S
H123   O140    0.992   .     S
H124   O141    0.992   .     S
H125   O142    0.992   .     S
N133   Zn152   2.002   .     S
N134   Zn151   2.002   .     S
O135   Zn151   1.998   .     S
O143   Zn152   1.998   .     S
O144   Zn151   1.998   .     S
O145   Zn152   1.998   .     S
O146   Zn151   1.948   .     S
O147   Zn152   1.948   .     S
O148   Zn151   1.949   .     S
O149   Zn152   1.949   .     S
C153   O221    1.283   .     A
C153   C170    1.430   .     S
C153   O211    1.283   .     A
C154   C181    1.418   .     A
C154   C158    1.412   .     A
C154   O218    1.381   .     S
C155   O225    1.273   .     A
C155   C159    1.364   .     S
C155   O222    1.273   .     A
C156   C160    1.364   .     S
C156   O223    1.273   .     A
C156   O224    1.273   .     A
C157   C184    1.412   .     A
C157   C182    1.412   .     A
C158   C183    1.412   .     A
C158   C5      1.511   1_565 S
C159   C768    1.164   1_554 S
C160   C463    1.164   .     S
C161   C166    1.386   .     A
C161   C172    1.405   .     A
C161   O226    1.383   .     S
C162   O212    1.393   .     S
C162   C167    1.395   .     A
C162   C173    1.404   .     A
C163   O213    1.384   .     S
C163   C168    1.383   .     A
C163   C173    1.407   .     A
C164   O220    1.286   .     A
C164   C171    1.439   .     S
C164   O219    1.285   .     A
C165   C169    1.384   .     A
C165   C172    1.408   .     A
C165   O214    1.383   .     S
C166   C170    1.395   .     A
C166   H204    1.084   .     S
C167   C171    1.398   .     A
C167   H205    1.082   .     S
C168   C171    1.395   .     A
C168   H206    1.084   .     S
C169   C170    1.395   .     A
C169   H207    1.084   .     S
C172   C249    1.443   1_455 S
C173   C248    1.443   .     S
C174   H208    1.114   .     S
C174   H187    1.109   .     S
C174   H186    1.113   .     S
C174   O226    1.410   .     S
C175   C182    1.418   .     A
C175   N209    1.362   .     A
C175   H185    1.082   .     S
C176   H190    1.115   .     S
C176   H189    1.110   .     S
C176   H188    1.109   .     S
C176   O212    1.412   .     S
C177   H192    1.115   .     S
C177   O213    1.409   .     S
C177   H193    1.109   .     S
C177   H267    1.110   .     S
C178   H197    1.109   .     S
C178   O214    1.409   .     S
C178   H195    1.115   .     S
C178   H270    1.110   1_455 S
C179   H196    1.082   .     S
C179   C183    1.418   .     A
C179   N210    1.362   .     A
C180   N209    1.362   .     A
C180   H202    1.082   .     S
C180   C184    1.418   .     A
C181   H203    1.082   .     S
C181   N210    1.362   .     A
C182   O215    1.381   .     S
C183   O216    1.381   .     S
C184   O217    1.381   .     S
H191   C253    1.110   1_455 S
H194   C254    1.110   .     S
H198   O215    0.992   .     S
H199   O216    0.992   .     S
H200   O217    0.992   .     S
H201   O218    0.992   .     S
N209   Zn228   2.002   .     S
N210   Zn227   2.002   .     S
O211   Zn227   1.998   .     S
O219   Zn228   1.998   .     S
O220   Zn227   1.998   .     S
O221   Zn228   1.998   .     S
O222   Zn227   1.948   .     S
O223   Zn228   1.948   .     S
O224   Zn227   1.949   .     S
O225   Zn228   1.949   .     S
C229   O297    1.283   .     A
C229   C246    1.430   .     S
C229   O287    1.283   .     A
C230   C257    1.418   .     A
C230   C234    1.412   .     A
C230   O294    1.381   .     S
C231   O301    1.273   .     A
C231   C235    1.364   .     S
C231   O298    1.273   .     A
C232   C236    1.364   .     S
C232   O299    1.273   .     A
C232   O300    1.273   .     A
C233   C260    1.412   .     A
C233   C258    1.412   .     A
C234   C259    1.412   .     A
C234   C81     1.511   1_565 S
C235   C844    1.164   1_554 S
C236   C539    1.164   .     S
C237   C242    1.386   .     A
C237   C248    1.405   .     A
C237   O302    1.383   .     S
C238   O288    1.393   .     S
C238   C243    1.395   .     A
C238   C249    1.404   .     A
C239   O289    1.384   .     S
C239   C244    1.383   .     A
C239   C249    1.407   .     A
C240   O296    1.286   .     A
C240   C247    1.439   .     S
C240   O295    1.285   .     A
C241   C245    1.384   .     A
C241   C248    1.408   .     A
C241   O290    1.383   .     S
C242   C246    1.395   .     A
C242   H280    1.084   .     S
C243   C247    1.398   .     A
C243   H281    1.082   .     S
C244   C247    1.395   .     A
C244   H282    1.084   .     S
C245   C246    1.395   .     A
C245   H283    1.084   .     S
C249   C172    1.443   1_655 S
C250   H284    1.114   .     S
C250   H263    1.109   .     S
C250   H262    1.113   .     S
C250   O302    1.410   .     S
C251   C258    1.418   .     A
C251   N285    1.362   .     A
C251   H261    1.082   .     S
C252   H266    1.115   .     S
C252   H265    1.110   .     S
C252   H264    1.109   .     S
C252   O288    1.412   .     S
C253   H268    1.115   .     S
C253   O289    1.409   .     S
C253   H269    1.109   .     S
C253   H191    1.110   1_655 S
C254   H273    1.109   .     S
C254   O290    1.409   .     S
C254   H271    1.115   .     S
C255   H272    1.082   .     S
C255   C259    1.418   .     A
C255   N286    1.362   .     A
C256   N285    1.362   .     A
C256   H278    1.082   .     S
C256   C260    1.418   .     A
C257   H279    1.082   .     S
C257   N286    1.362   .     A
C258   O291    1.381   .     S
C259   O292    1.381   .     S
C260   O293    1.381   .     S
H270   C178    1.110   1_655 S
H274   O291    0.992   .     S
H275   O292    0.992   .     S
H276   O293    0.992   .     S
H277   O294    0.992   .     S
N285   Zn304   2.002   .     S
N286   Zn303   2.002   .     S
O287   Zn303   1.998   .     S
O295   Zn304   1.998   .     S
O296   Zn303   1.998   .     S
O297   Zn304   1.998   .     S
O298   Zn303   1.948   .     S
O299   Zn304   1.948   .     S
O300   Zn303   1.949   .     S
O301   Zn304   1.949   .     S
C305   O373    1.283   .     A
C305   C322    1.430   .     S
C305   O363    1.283   .     A
C306   C333    1.418   .     A
C306   C310    1.412   .     A
C306   O370    1.381   .     S
C307   O377    1.273   .     A
C307   C311    1.364   .     S
C307   O374    1.273   .     A
C308   C312    1.364   .     S
C308   O375    1.273   .     A
C308   O376    1.273   .     A
C309   C336    1.412   .     A
C309   C334    1.412   .     A
C309   C462    1.511   1_545 S
C310   C335    1.412   .     A
C310   C461    1.511   .     S
C312   C615    1.164   .     S
C313   C318    1.386   .     A
C313   C324    1.405   .     A
C313   O378    1.383   .     S
C314   O364    1.393   .     S
C314   C319    1.395   .     A
C314   C325    1.404   .     A
C315   O365    1.384   .     S
C315   C320    1.383   .     A
C315   C325    1.407   .     A
C316   O372    1.286   .     A
C316   C323    1.439   .     S
C316   O371    1.285   .     A
C317   C321    1.384   .     A
C317   C324    1.408   .     A
C317   O366    1.383   .     S
C318   C322    1.395   .     A
C318   H356    1.084   .     S
C319   C323    1.398   .     A
C319   H357    1.082   .     S
C320   C323    1.395   .     A
C320   H358    1.084   .     S
C321   C322    1.395   .     A
C321   H359    1.084   .     S
C324   C401    1.443   1_455 S
C325   C400    1.443   .     S
C326   H360    1.114   .     S
C326   H339    1.109   .     S
C326   H338    1.113   .     S
C326   O378    1.410   .     S
C327   C334    1.418   .     A
C327   N361    1.362   .     A
C327   H337    1.082   .     S
C328   H342    1.115   .     S
C328   H341    1.110   .     S
C328   H340    1.109   .     S
C328   O364    1.412   .     S
C329   H344    1.115   .     S
C329   O365    1.409   .     S
C329   H345    1.109   .     S
C329   H419    1.110   .     S
C330   H349    1.109   .     S
C330   O366    1.409   .     S
C330   H347    1.115   .     S
C330   H422    1.110   1_455 S
C331   H348    1.082   .     S
C331   C335    1.418   .     A
C331   N362    1.362   .     A
C332   N361    1.362   .     A
C332   H354    1.082   .     S
C332   C336    1.418   .     A
C333   H355    1.082   .     S
C333   N362    1.362   .     A
C334   O367    1.381   .     S
C335   O368    1.381   .     S
C336   O369    1.381   .     S
H343   C405    1.110   1_455 S
H346   C406    1.110   .     S
H350   O367    0.992   .     S
H351   O368    0.992   .     S
H352   O369    0.992   .     S
H353   O370    0.992   .     S
N361   Zn380   2.002   .     S
N362   Zn379   2.002   .     S
O363   Zn379   1.998   .     S
O371   Zn380   1.998   .     S
O372   Zn379   1.998   .     S
O373   Zn380   1.998   .     S
O374   Zn379   1.948   .     S
O375   Zn380   1.948   .     S
O376   Zn379   1.949   .     S
O377   Zn380   1.949   .     S
C381   O449    1.283   .     A
C381   C398    1.430   .     S
C381   O439    1.283   .     A
C382   C409    1.418   .     A
C382   C386    1.412   .     A
C382   O446    1.381   .     S
C383   O453    1.273   .     A
C383   C387    1.364   .     S
C383   O450    1.273   .     A
C384   C388    1.364   .     S
C384   O451    1.273   .     A
C384   O452    1.273   .     A
C385   C412    1.412   .     A
C385   C410    1.412   .     A
C385   C538    1.511   1_545 S
C386   C411    1.412   .     A
C386   C537    1.511   .     S
C388   C691    1.164   .     S
C389   C394    1.386   .     A
C389   C400    1.405   .     A
C389   O454    1.383   .     S
C390   O440    1.393   .     S
C390   C395    1.395   .     A
C390   C401    1.404   .     A
C391   O441    1.384   .     S
C391   C396    1.383   .     A
C391   C401    1.407   .     A
C392   O448    1.286   .     A
C392   C399    1.439   .     S
C392   O447    1.285   .     A
C393   C397    1.384   .     A
C393   C400    1.408   .     A
C393   O442    1.383   .     S
C394   C398    1.395   .     A
C394   H432    1.084   .     S
C395   C399    1.398   .     A
C395   H433    1.082   .     S
C396   C399    1.395   .     A
C396   H434    1.084   .     S
C397   C398    1.395   .     A
C397   H435    1.084   .     S
C401   C324    1.443   1_655 S
C402   H436    1.114   .     S
C402   H415    1.109   .     S
C402   H414    1.113   .     S
C402   O454    1.410   .     S
C403   C410    1.418   .     A
C403   N437    1.362   .     A
C403   H413    1.082   .     S
C404   H418    1.115   .     S
C404   H417    1.110   .     S
C404   H416    1.109   .     S
C404   O440    1.412   .     S
C405   H420    1.115   .     S
C405   O441    1.409   .     S
C405   H421    1.109   .     S
C405   H343    1.110   1_655 S
C406   H425    1.109   .     S
C406   O442    1.409   .     S
C406   H423    1.115   .     S
C407   H424    1.082   .     S
C407   C411    1.418   .     A
C407   N438    1.362   .     A
C408   N437    1.362   .     A
C408   H430    1.082   .     S
C408   C412    1.418   .     A
C409   H431    1.082   .     S
C409   N438    1.362   .     A
C410   O443    1.381   .     S
C411   O444    1.381   .     S
C412   O445    1.381   .     S
H422   C330    1.110   1_655 S
H426   O443    0.992   .     S
H427   O444    0.992   .     S
H428   O445    0.992   .     S
H429   O446    0.992   .     S
N437   Zn456   2.002   .     S
N438   Zn455   2.002   .     S
O439   Zn455   1.998   .     S
O447   Zn456   1.998   .     S
O448   Zn455   1.998   .     S
O449   Zn456   1.998   .     S
O450   Zn455   1.948   .     S
O451   Zn456   1.948   .     S
O452   Zn455   1.949   .     S
O453   Zn456   1.949   .     S
C457   O525    1.283   .     A
C457   C474    1.430   .     S
C457   O515    1.283   .     A
C458   C485    1.418   .     A
C458   C462    1.412   .     A
C458   O522    1.381   .     S
C459   O529    1.273   .     A
C459   C463    1.364   .     S
C459   O526    1.273   .     A
C460   C464    1.364   .     S
C460   O527    1.273   .     A
C460   O528    1.273   .     A
C461   C488    1.412   .     A
C461   C486    1.412   .     A
C462   C487    1.412   .     A
C462   C309    1.511   1_565 S
C464   C767    1.164   .     S
C465   C470    1.386   .     A
C465   C476    1.405   .     A
C465   O530    1.383   .     S
C466   O516    1.393   .     S
C466   C471    1.395   .     A
C466   C477    1.404   .     A
C467   O517    1.384   .     S
C467   C472    1.383   .     A
C467   C477    1.407   .     A
C468   O524    1.286   .     A
C468   C475    1.439   .     S
C468   O523    1.285   .     A
C469   C473    1.384   .     A
C469   C476    1.408   .     A
C469   O518    1.383   .     S
C470   C474    1.395   .     A
C470   H508    1.084   .     S
C471   C475    1.398   .     A
C471   H509    1.082   .     S
C472   C475    1.395   .     A
C472   H510    1.084   .     S
C473   C474    1.395   .     A
C473   H511    1.084   .     S
C476   C553    1.443   1_455 S
C477   C552    1.443   .     S
C478   H512    1.114   .     S
C478   H491    1.109   .     S
C478   H490    1.113   .     S
C478   O530    1.410   .     S
C479   C486    1.418   .     A
C479   N513    1.362   .     A
C479   H489    1.082   .     S
C480   H494    1.115   .     S
C480   H493    1.110   .     S
C480   H492    1.109   .     S
C480   O516    1.412   .     S
C481   H496    1.115   .     S
C481   O517    1.409   .     S
C481   H497    1.109   .     S
C481   H571    1.110   .     S
C482   H501    1.109   .     S
C482   O518    1.409   .     S
C482   H499    1.115   .     S
C482   H574    1.110   1_455 S
C483   H500    1.082   .     S
C483   C487    1.418   .     A
C483   N514    1.362   .     A
C484   N513    1.362   .     A
C484   H506    1.082   .     S
C484   C488    1.418   .     A
C485   H507    1.082   .     S
C485   N514    1.362   .     A
C486   O519    1.381   .     S
C487   O520    1.381   .     S
C488   O521    1.381   .     S
H495   C557    1.110   1_455 S
H498   C558    1.110   .     S
H502   O519    0.992   .     S
H503   O520    0.992   .     S
H504   O521    0.992   .     S
H505   O522    0.992   .     S
N513   Zn532   2.002   .     S
N514   Zn531   2.002   .     S
O515   Zn531   1.998   .     S
O523   Zn532   1.998   .     S
O524   Zn531   1.998   .     S
O525   Zn532   1.998   .     S
O526   Zn531   1.948   .     S
O527   Zn532   1.948   .     S
O528   Zn531   1.949   .     S
O529   Zn532   1.949   .     S
C533   O601    1.283   .     A
C533   C550    1.430   .     S
C533   O591    1.283   .     A
C534   C561    1.418   .     A
C534   C538    1.412   .     A
C534   O598    1.381   .     S
C535   O605    1.273   .     A
C535   C539    1.364   .     S
C535   O602    1.273   .     A
C536   C540    1.364   .     S
C536   O603    1.273   .     A
C536   O604    1.273   .     A
C537   C564    1.412   .     A
C537   C562    1.412   .     A
C538   C563    1.412   .     A
C538   C385    1.511   1_565 S
C540   C843    1.164   .     S
C541   C546    1.386   .     A
C541   C552    1.405   .     A
C541   O606    1.383   .     S
C542   O592    1.393   .     S
C542   C547    1.395   .     A
C542   C553    1.404   .     A
C543   O593    1.384   .     S
C543   C548    1.383   .     A
C543   C553    1.407   .     A
C544   O600    1.286   .     A
C544   C551    1.439   .     S
C544   O599    1.285   .     A
C545   C549    1.384   .     A
C545   C552    1.408   .     A
C545   O594    1.383   .     S
C546   C550    1.395   .     A
C546   H584    1.084   .     S
C547   C551    1.398   .     A
C547   H585    1.082   .     S
C548   C551    1.395   .     A
C548   H586    1.084   .     S
C549   C550    1.395   .     A
C549   H587    1.084   .     S
C553   C476    1.443   1_655 S
C554   H588    1.114   .     S
C554   H567    1.109   .     S
C554   H566    1.113   .     S
C554   O606    1.410   .     S
C555   C562    1.418   .     A
C555   N589    1.362   .     A
C555   H565    1.082   .     S
C556   H570    1.115   .     S
C556   H569    1.110   .     S
C556   H568    1.109   .     S
C556   O592    1.412   .     S
C557   H572    1.115   .     S
C557   O593    1.409   .     S
C557   H573    1.109   .     S
C557   H495    1.110   1_655 S
C558   H577    1.109   .     S
C558   O594    1.409   .     S
C558   H575    1.115   .     S
C559   H576    1.082   .     S
C559   C563    1.418   .     A
C559   N590    1.362   .     A
C560   N589    1.362   .     A
C560   H582    1.082   .     S
C560   C564    1.418   .     A
C561   H583    1.082   .     S
C561   N590    1.362   .     A
C562   O595    1.381   .     S
C563   O596    1.381   .     S
C564   O597    1.381   .     S
H574   C482    1.110   1_655 S
H578   O595    0.992   .     S
H579   O596    0.992   .     S
H580   O597    0.992   .     S
H581   O598    0.992   .     S
N589   Zn608   2.002   .     S
N590   Zn607   2.002   .     S
O591   Zn607   1.998   .     S
O599   Zn608   1.998   .     S
O600   Zn607   1.998   .     S
O601   Zn608   1.998   .     S
O602   Zn607   1.948   .     S
O603   Zn608   1.948   .     S
O604   Zn607   1.949   .     S
O605   Zn608   1.949   .     S
C609   O677    1.283   .     A
C609   C626    1.430   .     S
C609   O667    1.283   .     A
C610   C637    1.418   .     A
C610   C614    1.412   .     A
C610   O674    1.381   .     S
C611   O681    1.273   .     A
C611   C615    1.364   .     S
C611   O678    1.273   .     A
C612   C616    1.364   .     S
C612   O679    1.273   .     A
C612   O680    1.273   .     A
C613   C640    1.412   .     A
C613   C638    1.412   .     A
C613   C766    1.511   1_545 S
C614   C639    1.412   .     A
C614   C765    1.511   .     S
C616   C7      1.164   1_556 S
C617   C622    1.386   .     A
C617   C628    1.405   .     A
C617   O682    1.383   .     S
C618   O668    1.393   .     S
C618   C623    1.395   .     A
C618   C629    1.404   .     A
C619   O669    1.384   .     S
C619   C624    1.383   .     A
C619   C629    1.407   .     A
C620   O676    1.286   .     A
C620   C627    1.439   .     S
C620   O675    1.285   .     A
C621   C625    1.384   .     A
C621   C628    1.408   .     A
C621   O670    1.383   .     S
C622   C626    1.395   .     A
C622   H660    1.084   .     S
C623   C627    1.398   .     A
C623   H661    1.082   .     S
C624   C627    1.395   .     A
C624   H662    1.084   .     S
C625   C626    1.395   .     A
C625   H663    1.084   .     S
C628   C705    1.443   1_455 S
C629   C704    1.443   .     S
C630   H664    1.114   .     S
C630   H643    1.109   .     S
C630   H642    1.113   .     S
C630   O682    1.410   .     S
C631   C638    1.418   .     A
C631   N665    1.362   .     A
C631   H641    1.082   .     S
C632   H646    1.115   .     S
C632   H645    1.110   .     S
C632   H644    1.109   .     S
C632   O668    1.412   .     S
C633   H648    1.115   .     S
C633   O669    1.409   .     S
C633   H649    1.109   .     S
C633   H723    1.110   .     S
C634   H653    1.109   .     S
C634   O670    1.409   .     S
C634   H651    1.115   .     S
C634   H726    1.110   1_455 S
C635   H652    1.082   .     S
C635   C639    1.418   .     A
C635   N666    1.362   .     A
C636   N665    1.362   .     A
C636   H658    1.082   .     S
C636   C640    1.418   .     A
C637   H659    1.082   .     S
C637   N666    1.362   .     A
C638   O671    1.381   .     S
C639   O672    1.381   .     S
C640   O673    1.381   .     S
H647   C709    1.110   1_455 S
H650   C710    1.110   .     S
H654   O671    0.992   .     S
H655   O672    0.992   .     S
H656   O673    0.992   .     S
H657   O674    0.992   .     S
N665   Zn684   2.002   .     S
N666   Zn683   2.002   .     S
O667   Zn683   1.998   .     S
O675   Zn684   1.998   .     S
O676   Zn683   1.998   .     S
O677   Zn684   1.998   .     S
O678   Zn683   1.948   .     S
O679   Zn684   1.948   .     S
O680   Zn683   1.949   .     S
O681   Zn684   1.949   .     S
C685   O753    1.283   .     A
C685   C702    1.430   .     S
C685   O743    1.283   .     A
C686   C713    1.418   .     A
C686   C690    1.412   .     A
C686   O750    1.381   .     S
C687   O757    1.273   .     A
C687   C691    1.364   .     S
C687   O754    1.273   .     A
C688   C692    1.364   .     S
C688   O755    1.273   .     A
C688   O756    1.273   .     A
C689   C716    1.412   .     A
C689   C714    1.412   .     A
C689   C842    1.511   1_545 S
C690   C715    1.412   .     A
C690   C841    1.511   .     S
C692   C83     1.164   1_556 S
C693   C698    1.386   .     A
C693   C704    1.405   .     A
C693   O758    1.383   .     S
C694   O744    1.393   .     S
C694   C699    1.395   .     A
C694   C705    1.404   .     A
C695   O745    1.384   .     S
C695   C700    1.383   .     A
C695   C705    1.407   .     A
C696   O752    1.286   .     A
C696   C703    1.439   .     S
C696   O751    1.285   .     A
C697   C701    1.384   .     A
C697   C704    1.408   .     A
C697   O746    1.383   .     S
C698   C702    1.395   .     A
C698   H736    1.084   .     S
C699   C703    1.398   .     A
C699   H737    1.082   .     S
C700   C703    1.395   .     A
C700   H738    1.084   .     S
C701   C702    1.395   .     A
C701   H739    1.084   .     S
C705   C628    1.443   1_655 S
C706   H740    1.114   .     S
C706   H719    1.109   .     S
C706   H718    1.113   .     S
C706   O758    1.410   .     S
C707   C714    1.418   .     A
C707   N741    1.362   .     A
C707   H717    1.082   .     S
C708   H722    1.115   .     S
C708   H721    1.110   .     S
C708   H720    1.109   .     S
C708   O744    1.412   .     S
C709   H724    1.115   .     S
C709   O745    1.409   .     S
C709   H725    1.109   .     S
C709   H647    1.110   1_655 S
C710   H729    1.109   .     S
C710   O746    1.409   .     S
C710   H727    1.115   .     S
C711   H728    1.082   .     S
C711   C715    1.418   .     A
C711   N742    1.362   .     A
C712   N741    1.362   .     A
C712   H734    1.082   .     S
C712   C716    1.418   .     A
C713   H735    1.082   .     S
C713   N742    1.362   .     A
C714   O747    1.381   .     S
C715   O748    1.381   .     S
C716   O749    1.381   .     S
H726   C634    1.110   1_655 S
H730   O747    0.992   .     S
H731   O748    0.992   .     S
H732   O749    0.992   .     S
H733   O750    0.992   .     S
N741   Zn760   2.002   .     S
N742   Zn759   2.002   .     S
O743   Zn759   1.998   .     S
O751   Zn760   1.998   .     S
O752   Zn759   1.998   .     S
O753   Zn760   1.998   .     S
O754   Zn759   1.948   .     S
O755   Zn760   1.948   .     S
O756   Zn759   1.949   .     S
O757   Zn760   1.949   .     S
C761   O829    1.283   .     A
C761   C778    1.430   .     S
C761   O819    1.283   .     A
C762   C789    1.418   .     A
C762   C766    1.412   .     A
C762   O826    1.381   .     S
C763   O833    1.273   .     A
C763   C767    1.364   .     S
C763   O830    1.273   .     A
C764   C768    1.364   .     S
C764   O831    1.273   .     A
C764   O832    1.273   .     A
C765   C792    1.412   .     A
C765   C790    1.412   .     A
C766   C791    1.412   .     A
C766   C613    1.511   1_565 S
C768   C159    1.164   1_556 S
C769   C774    1.386   .     A
C769   C780    1.405   .     A
C769   O834    1.383   .     S
C770   O820    1.393   .     S
C770   C775    1.395   .     A
C770   C781    1.404   .     A
C771   O821    1.384   .     S
C771   C776    1.383   .     A
C771   C781    1.407   .     A
C772   O828    1.286   .     A
C772   C779    1.439   .     S
C772   O827    1.285   .     A
C773   C777    1.384   .     A
C773   C780    1.408   .     A
C773   O822    1.383   .     S
C774   C778    1.395   .     A
C774   H812    1.084   .     S
C775   C779    1.398   .     A
C775   H813    1.082   .     S
C776   C779    1.395   .     A
C776   H814    1.084   .     S
C777   C778    1.395   .     A
C777   H815    1.084   .     S
C780   C857    1.443   1_455 S
C781   C856    1.443   .     S
C782   H816    1.114   .     S
C782   H795    1.109   .     S
C782   H794    1.113   .     S
C782   O834    1.410   .     S
C783   C790    1.418   .     A
C783   N817    1.362   .     A
C783   H793    1.082   .     S
C784   H798    1.115   .     S
C784   H797    1.110   .     S
C784   H796    1.109   .     S
C784   O820    1.412   .     S
C785   H800    1.115   .     S
C785   O821    1.409   .     S
C785   H801    1.109   .     S
C785   H875    1.110   .     S
C786   H805    1.109   .     S
C786   O822    1.409   .     S
C786   H803    1.115   .     S
C786   H878    1.110   1_455 S
C787   H804    1.082   .     S
C787   C791    1.418   .     A
C787   N818    1.362   .     A
C788   N817    1.362   .     A
C788   H810    1.082   .     S
C788   C792    1.418   .     A
C789   H811    1.082   .     S
C789   N818    1.362   .     A
C790   O823    1.381   .     S
C791   O824    1.381   .     S
C792   O825    1.381   .     S
H799   C861    1.110   1_455 S
H802   C862    1.110   .     S
H806   O823    0.992   .     S
H807   O824    0.992   .     S
H808   O825    0.992   .     S
H809   O826    0.992   .     S
N817   Zn836   2.002   .     S
N818   Zn835   2.002   .     S
O819   Zn835   1.998   .     S
O827   Zn836   1.998   .     S
O828   Zn835   1.998   .     S
O829   Zn836   1.998   .     S
O830   Zn835   1.948   .     S
O831   Zn836   1.948   .     S
O832   Zn835   1.949   .     S
O833   Zn836   1.949   .     S
C837   O905    1.283   .     A
C837   C854    1.430   .     S
C837   O895    1.283   .     A
C838   C865    1.418   .     A
C838   C842    1.412   .     A
C838   O902    1.381   .     S
C839   O909    1.273   .     A
C839   C843    1.364   .     S
C839   O906    1.273   .     A
C840   C844    1.364   .     S
C840   O907    1.273   .     A
C840   O908    1.273   .     A
C841   C868    1.412   .     A
C841   C866    1.412   .     A
C842   C867    1.412   .     A
C842   C689    1.511   1_565 S
C844   C235    1.164   1_556 S
C845   C850    1.386   .     A
C845   C856    1.405   .     A
C845   O910    1.383   .     S
C846   O896    1.393   .     S
C846   C851    1.395   .     A
C846   C857    1.404   .     A
C847   O897    1.384   .     S
C847   C852    1.383   .     A
C847   C857    1.407   .     A
C848   O904    1.286   .     A
C848   C855    1.439   .     S
C848   O903    1.285   .     A
C849   C853    1.384   .     A
C849   C856    1.408   .     A
C849   O898    1.383   .     S
C850   C854    1.395   .     A
C850   H888    1.084   .     S
C851   C855    1.398   .     A
C851   H889    1.082   .     S
C852   C855    1.395   .     A
C852   H890    1.084   .     S
C853   C854    1.395   .     A
C853   H891    1.084   .     S
C857   C780    1.443   1_655 S
C858   H892    1.114   .     S
C858   H871    1.109   .     S
C858   H870    1.113   .     S
C858   O910    1.410   .     S
C859   C866    1.418   .     A
C859   N893    1.362   .     A
C859   H869    1.082   .     S
C860   H874    1.115   .     S
C860   H873    1.110   .     S
C860   H872    1.109   .     S
C860   O896    1.412   .     S
C861   H876    1.115   .     S
C861   O897    1.409   .     S
C861   H877    1.109   .     S
C861   H799    1.110   1_655 S
C862   H881    1.109   .     S
C862   O898    1.409   .     S
C862   H879    1.115   .     S
C863   H880    1.082   .     S
C863   C867    1.418   .     A
C863   N894    1.362   .     A
C864   N893    1.362   .     A
C864   H886    1.082   .     S
C864   C868    1.418   .     A
C865   H887    1.082   .     S
C865   N894    1.362   .     A
C866   O899    1.381   .     S
C867   O900    1.381   .     S
C868   O901    1.381   .     S
H878   C786    1.110   1_655 S
H882   O899    0.992   .     S
H883   O900    0.992   .     S
H884   O901    0.992   .     S
H885   O902    0.992   .     S
N893   Zn912   2.002   .     S
N894   Zn911   2.002   .     S
O895   Zn911   1.998   .     S
O903   Zn912   1.998   .     S
O904   Zn911   1.998   .     S
O905   Zn912   1.998   .     S
O906   Zn911   1.948   .     S
O907   Zn912   1.948   .     S
O908   Zn911   1.949   .     S
O909   Zn912   1.949   .     S
