data_str_m2_o2_o10_pcu_sym.164
_audit_creation_date              2020-01-03
_audit_creation_method            'Materials Studio'
_symmetry_space_group_name_H-M    'P1'
_symmetry_Int_Tables_number       1
_symmetry_cell_setting            triclinic
loop_
_symmetry_equiv_pos_as_xyz
  x,y,z
_cell_length_a                    26.4113
_cell_length_b                    30.2030
_cell_length_c                    27.7336
_cell_angle_alpha                 89.9476
_cell_angle_beta                  97.3896
_cell_angle_gamma                 90.4750
loop_
_atom_site_label
_atom_site_type_symbol
_atom_site_fract_x
_atom_site_fract_y
_atom_site_fract_z
_atom_site_U_iso_or_equiv
_atom_site_adp_type
_atom_site_occupancy
C1     C     0.16662   0.16496   0.25004   0.00000  Uiso   1.00
C2     C     0.16652   0.33496   0.24998   0.00000  Uiso   1.00
C3     C     0.20081   0.27677   0.05818   0.00000  Uiso   1.00
C4     C     0.14798   0.21355   0.44384   0.00000  Uiso   1.00
C5     C     0.19977   0.27665   0.10873   0.00000  Uiso   1.00
C6     C     0.14800   0.21432   0.39313   0.00000  Uiso   1.00
C7     C     0.13255   0.22422   0.10064   0.00000  Uiso   1.00
C8     C     0.18513   0.28576   0.39756   0.00000  Uiso   1.00
C9     C     0.13150   0.22402   0.04980   0.00000  Uiso   1.00
C10    C     0.18482   0.28672   0.44821   0.00000  Uiso   1.00
C11    C     0.16630   0.25025   0.02735   0.00000  Uiso   1.00
C12    C     0.16635   0.25018   0.47266   0.00000  Uiso   1.00
C13    C     0.06817   0.25001   0.23793   0.00000  Uiso   1.00
C14    C     0.26523   0.24964   0.26209   0.00000  Uiso   1.00
C15    C     0.01393   0.25542   0.23201   0.00000  Uiso   1.00
C16    C     0.31958   0.24392   0.26803   0.00000  Uiso   1.00
C17    C     0.20283   0.04765   0.28434   0.00000  Uiso   1.00
C18    C     0.20627   0.45288   0.23109   0.00000  Uiso   1.00
C19    C     0.20294   0.09399   0.28331   0.00000  Uiso   1.00
C20    C     0.20604   0.40655   0.23116   0.00000  Uiso   1.00
C21    C     0.16673   0.11654   0.25042   0.00000  Uiso   1.00
C22    C     0.16646   0.38324   0.24999   0.00000  Uiso   1.00
C23    C     0.13005   0.09247   0.21896   0.00000  Uiso   1.00
C24    C     0.12684   0.40633   0.26851   0.00000  Uiso   1.00
C25    C     0.13091   0.04631   0.22008   0.00000  Uiso   1.00
C26    C     0.12793   0.45253   0.26869   0.00000  Uiso   1.00
C27    C     0.16723   0.02403   0.25198   0.00000  Uiso   1.00
C28    C     0.16747   0.47566   0.25066   0.00000  Uiso   1.00
Cu29   Cu    0.16667   0.25000   0.29822   0.00000  Uiso   1.00
Cu30   Cu    0.16667   0.25001   0.20179   0.00000  Uiso   1.00
H31    H     0.10341   0.02740   0.19578   0.00000  Uiso   1.00
H32    H     0.09797   0.47078   0.28302   0.00000  Uiso   1.00
H33    H     0.22898   0.29738   0.04378   0.00000  Uiso   1.00
H34    H     0.13415   0.18400   0.46007   0.00000  Uiso   1.00
H35    H     0.22538   0.29820   0.13149   0.00000  Uiso   1.00
H36    H     0.13308   0.18603   0.37189   0.00000  Uiso   1.00
H37    H     0.10544   0.20406   0.11708   0.00000  Uiso   1.00
H38    H     0.20009   0.31402   0.37989   0.00000  Uiso   1.00
H39    H     0.10290   0.20387   0.02848   0.00000  Uiso   1.00
H40    H     0.19848   0.31637   0.46765   0.00000  Uiso   1.00
N41    N     0.16667   0.25001   0.12935   0.00000  Uiso   1.00
N42    N     0.16667   0.24999   0.37066   0.00000  Uiso   1.00
O43    O     0.16667   0.18573   0.29072   0.00000  Uiso   1.00
O44    O     0.16666   0.31428   0.20929   0.00000  Uiso   1.00
O45    O     0.16667   0.18573   0.20928   0.00000  Uiso   1.00
O46    O     0.16666   0.31427   0.29072   0.00000  Uiso   1.00
O47    O     0.09161   0.25000   0.28132   0.00000  Uiso   1.00
O48    O     0.24172   0.25001   0.21868   0.00000  Uiso   1.00
O49    O     0.09161   0.25000   0.19989   0.00000  Uiso   1.00
O50    O     0.24172   0.25000   0.30012   0.00000  Uiso   1.00
Cl51   Cl    0.32267   0.28350   0.17798   0.00000  Uiso   1.00
Cl52   Cl    0.01148   0.21558   0.32193   0.00000  Uiso   1.00
Cl53   Cl    0.24682   0.01916   0.32662   0.00000  Uiso   1.00
Cl54   Cl    0.25468   0.48233   0.20577   0.00000  Uiso   1.00
Cl55   Cl    0.25006   0.12340   0.32209   0.00000  Uiso   1.00
Cl56   Cl    0.25664   0.37798   0.20932   0.00000  Uiso   1.00
C57    C     0.08925   0.11519   0.18486   0.00000  Uiso   1.00
H58    H     0.06850   0.13923   0.20522   0.00000  Uiso   1.00
H59    H     0.10692   0.13264   0.15599   0.00000  Uiso   1.00
H60    H     0.06082   0.09120   0.16685   0.00000  Uiso   1.00
C61    C     0.08275   0.38239   0.28695   0.00000  Uiso   1.00
H62    H     0.06395   0.35981   0.25837   0.00000  Uiso   1.00
H63    H     0.09664   0.36292   0.31989   0.00000  Uiso   1.00
H64    H     0.05350   0.40579   0.29679   0.00000  Uiso   1.00
C65    C     0.49996   0.16496   0.25004   0.00000  Uiso   1.00
C66    C     0.49985   0.33496   0.24998   0.00000  Uiso   1.00
C67    C     0.53414   0.27677   0.05818   0.00000  Uiso   1.00
C68    C     0.48131   0.21355   0.44384   0.00000  Uiso   1.00
C69    C     0.53310   0.27665   0.10873   0.00000  Uiso   1.00
C70    C     0.48133   0.21432   0.39313   0.00000  Uiso   1.00
C71    C     0.46588   0.22422   0.10064   0.00000  Uiso   1.00
C72    C     0.51847   0.28576   0.39756   0.00000  Uiso   1.00
C73    C     0.46484   0.22402   0.04980   0.00000  Uiso   1.00
C74    C     0.51816   0.28672   0.44821   0.00000  Uiso   1.00
C75    C     0.49963   0.25025   0.02735   0.00000  Uiso   1.00
C76    C     0.49968   0.25018   0.47266   0.00000  Uiso   1.00
C77    C     0.40150   0.25001   0.23793   0.00000  Uiso   1.00
C78    C     0.59856   0.24964   0.26209   0.00000  Uiso   1.00
C79    C     0.34726   0.25542   0.23201   0.00000  Uiso   1.00
C80    C     0.65292   0.24392   0.26803   0.00000  Uiso   1.00
C81    C     0.53616   0.04765   0.28434   0.00000  Uiso   1.00
C82    C     0.53960   0.45288   0.23109   0.00000  Uiso   1.00
C83    C     0.53628   0.09399   0.28331   0.00000  Uiso   1.00
C84    C     0.53937   0.40655   0.23116   0.00000  Uiso   1.00
C85    C     0.50006   0.11654   0.25042   0.00000  Uiso   1.00
C86    C     0.49979   0.38324   0.24999   0.00000  Uiso   1.00
C87    C     0.46338   0.09247   0.21896   0.00000  Uiso   1.00
C88    C     0.46017   0.40633   0.26851   0.00000  Uiso   1.00
C89    C     0.46425   0.04631   0.22008   0.00000  Uiso   1.00
C90    C     0.46126   0.45253   0.26869   0.00000  Uiso   1.00
C91    C     0.50057   0.02403   0.25198   0.00000  Uiso   1.00
C92    C     0.50081   0.47566   0.25066   0.00000  Uiso   1.00
Cu93   Cu    0.50000   0.25000   0.29822   0.00000  Uiso   1.00
Cu94   Cu    0.50000   0.25001   0.20179   0.00000  Uiso   1.00
H95    H     0.43674   0.02740   0.19578   0.00000  Uiso   1.00
H96    H     0.43131   0.47078   0.28302   0.00000  Uiso   1.00
H97    H     0.56231   0.29738   0.04378   0.00000  Uiso   1.00
H98    H     0.46748   0.18400   0.46007   0.00000  Uiso   1.00
H99    H     0.55871   0.29820   0.13149   0.00000  Uiso   1.00
H100   H     0.46642   0.18603   0.37189   0.00000  Uiso   1.00
H101   H     0.43877   0.20406   0.11708   0.00000  Uiso   1.00
H102   H     0.53343   0.31402   0.37989   0.00000  Uiso   1.00
H103   H     0.43624   0.20387   0.02848   0.00000  Uiso   1.00
H104   H     0.53182   0.31637   0.46765   0.00000  Uiso   1.00
N105   N     0.50000   0.25001   0.12935   0.00000  Uiso   1.00
N106   N     0.50000   0.24999   0.37066   0.00000  Uiso   1.00
O107   O     0.50000   0.18573   0.29072   0.00000  Uiso   1.00
O108   O     0.50000   0.31428   0.20929   0.00000  Uiso   1.00
O109   O     0.50000   0.18573   0.20928   0.00000  Uiso   1.00
O110   O     0.50000   0.31427   0.29072   0.00000  Uiso   1.00
O111   O     0.42495   0.25000   0.28132   0.00000  Uiso   1.00
O112   O     0.57505   0.25001   0.21868   0.00000  Uiso   1.00
O113   O     0.42495   0.25000   0.19989   0.00000  Uiso   1.00
O114   O     0.57505   0.25000   0.30012   0.00000  Uiso   1.00
Cl115  Cl    0.65600   0.28350   0.17798   0.00000  Uiso   1.00
Cl116  Cl    0.34481   0.21558   0.32193   0.00000  Uiso   1.00
Cl117  Cl    0.58015   0.01916   0.32662   0.00000  Uiso   1.00
Cl118  Cl    0.58801   0.48233   0.20577   0.00000  Uiso   1.00
Cl119  Cl    0.58339   0.12340   0.32209   0.00000  Uiso   1.00
Cl120  Cl    0.58997   0.37798   0.20932   0.00000  Uiso   1.00
C121   C     0.42259   0.11519   0.18486   0.00000  Uiso   1.00
H122   H     0.40183   0.13923   0.20522   0.00000  Uiso   1.00
H123   H     0.44025   0.13264   0.15599   0.00000  Uiso   1.00
H124   H     0.39416   0.09120   0.16685   0.00000  Uiso   1.00
C125   C     0.41608   0.38239   0.28695   0.00000  Uiso   1.00
H126   H     0.39728   0.35981   0.25837   0.00000  Uiso   1.00
H127   H     0.42997   0.36292   0.31989   0.00000  Uiso   1.00
H128   H     0.38683   0.40579   0.29679   0.00000  Uiso   1.00
C129   C     0.83329   0.16496   0.25004   0.00000  Uiso   1.00
C130   C     0.83318   0.33496   0.24998   0.00000  Uiso   1.00
C131   C     0.86748   0.27677   0.05818   0.00000  Uiso   1.00
C132   C     0.81465   0.21355   0.44384   0.00000  Uiso   1.00
C133   C     0.86643   0.27665   0.10873   0.00000  Uiso   1.00
C134   C     0.81467   0.21432   0.39313   0.00000  Uiso   1.00
C135   C     0.79922   0.22422   0.10064   0.00000  Uiso   1.00
C136   C     0.85180   0.28576   0.39756   0.00000  Uiso   1.00
C137   C     0.79817   0.22402   0.04980   0.00000  Uiso   1.00
C138   C     0.85149   0.28672   0.44821   0.00000  Uiso   1.00
C139   C     0.83296   0.25025   0.02735   0.00000  Uiso   1.00
C140   C     0.83301   0.25018   0.47266   0.00000  Uiso   1.00
C141   C     0.73483   0.25001   0.23793   0.00000  Uiso   1.00
C142   C     0.93190   0.24964   0.26209   0.00000  Uiso   1.00
C143   C     0.68060   0.25542   0.23201   0.00000  Uiso   1.00
C144   C     0.98625   0.24392   0.26803   0.00000  Uiso   1.00
C145   C     0.86950   0.04765   0.28434   0.00000  Uiso   1.00
C146   C     0.87293   0.45288   0.23109   0.00000  Uiso   1.00
C147   C     0.86961   0.09399   0.28331   0.00000  Uiso   1.00
C148   C     0.87270   0.40655   0.23116   0.00000  Uiso   1.00
C149   C     0.83339   0.11654   0.25042   0.00000  Uiso   1.00
C150   C     0.83312   0.38324   0.24999   0.00000  Uiso   1.00
C151   C     0.79672   0.09247   0.21896   0.00000  Uiso   1.00
C152   C     0.79350   0.40633   0.26851   0.00000  Uiso   1.00
C153   C     0.79758   0.04631   0.22008   0.00000  Uiso   1.00
C154   C     0.79459   0.45253   0.26869   0.00000  Uiso   1.00
C155   C     0.83390   0.02403   0.25198   0.00000  Uiso   1.00
C156   C     0.83414   0.47566   0.25066   0.00000  Uiso   1.00
Cu157  Cu    0.83333   0.25000   0.29822   0.00000  Uiso   1.00
Cu158  Cu    0.83333   0.25001   0.20179   0.00000  Uiso   1.00
H159   H     0.77008   0.02740   0.19578   0.00000  Uiso   1.00
H160   H     0.76464   0.47078   0.28302   0.00000  Uiso   1.00
H161   H     0.89564   0.29738   0.04378   0.00000  Uiso   1.00
H162   H     0.80081   0.18400   0.46007   0.00000  Uiso   1.00
H163   H     0.89205   0.29820   0.13149   0.00000  Uiso   1.00
H164   H     0.79975   0.18603   0.37189   0.00000  Uiso   1.00
H165   H     0.77210   0.20406   0.11708   0.00000  Uiso   1.00
H166   H     0.86676   0.31402   0.37989   0.00000  Uiso   1.00
H167   H     0.76957   0.20387   0.02848   0.00000  Uiso   1.00
H168   H     0.86515   0.31637   0.46765   0.00000  Uiso   1.00
N169   N     0.83333   0.25001   0.12935   0.00000  Uiso   1.00
N170   N     0.83333   0.24999   0.37066   0.00000  Uiso   1.00
O171   O     0.83334   0.18573   0.29072   0.00000  Uiso   1.00
O172   O     0.83333   0.31428   0.20929   0.00000  Uiso   1.00
O173   O     0.83334   0.18573   0.20928   0.00000  Uiso   1.00
O174   O     0.83333   0.31427   0.29072   0.00000  Uiso   1.00
O175   O     0.75828   0.25000   0.28132   0.00000  Uiso   1.00
O176   O     0.90839   0.25001   0.21868   0.00000  Uiso   1.00
O177   O     0.75828   0.25000   0.19989   0.00000  Uiso   1.00
O178   O     0.90839   0.25000   0.30012   0.00000  Uiso   1.00
Cl179  Cl    0.98933   0.28350   0.17798   0.00000  Uiso   1.00
Cl180  Cl    0.67815   0.21558   0.32193   0.00000  Uiso   1.00
Cl181  Cl    0.91349   0.01916   0.32662   0.00000  Uiso   1.00
Cl182  Cl    0.92134   0.48233   0.20577   0.00000  Uiso   1.00
Cl183  Cl    0.91672   0.12340   0.32209   0.00000  Uiso   1.00
Cl184  Cl    0.92331   0.37798   0.20932   0.00000  Uiso   1.00
C185   C     0.75592   0.11519   0.18486   0.00000  Uiso   1.00
H186   H     0.73517   0.13923   0.20522   0.00000  Uiso   1.00
H187   H     0.77358   0.13264   0.15599   0.00000  Uiso   1.00
H188   H     0.72749   0.09120   0.16685   0.00000  Uiso   1.00
C189   C     0.74941   0.38239   0.28695   0.00000  Uiso   1.00
H190   H     0.73062   0.35981   0.25837   0.00000  Uiso   1.00
H191   H     0.76330   0.36292   0.31989   0.00000  Uiso   1.00
H192   H     0.72017   0.40579   0.29679   0.00000  Uiso   1.00
C193   C     0.16662   0.66496   0.25004   0.00000  Uiso   1.00
C194   C     0.16652   0.83496   0.24998   0.00000  Uiso   1.00
C195   C     0.20081   0.77677   0.05818   0.00000  Uiso   1.00
C196   C     0.14798   0.71355   0.44384   0.00000  Uiso   1.00
C197   C     0.19977   0.77665   0.10873   0.00000  Uiso   1.00
C198   C     0.14800   0.71432   0.39313   0.00000  Uiso   1.00
C199   C     0.13255   0.72422   0.10064   0.00000  Uiso   1.00
C200   C     0.18513   0.78576   0.39756   0.00000  Uiso   1.00
C201   C     0.13150   0.72402   0.04980   0.00000  Uiso   1.00
C202   C     0.18482   0.78672   0.44821   0.00000  Uiso   1.00
C203   C     0.16630   0.75025   0.02735   0.00000  Uiso   1.00
C204   C     0.16635   0.75018   0.47266   0.00000  Uiso   1.00
C205   C     0.06817   0.75001   0.23793   0.00000  Uiso   1.00
C206   C     0.26523   0.74964   0.26209   0.00000  Uiso   1.00
C207   C     0.01393   0.75542   0.23201   0.00000  Uiso   1.00
C208   C     0.31958   0.74392   0.26803   0.00000  Uiso   1.00
C209   C     0.20283   0.54765   0.28434   0.00000  Uiso   1.00
C210   C     0.20627   0.95288   0.23109   0.00000  Uiso   1.00
C211   C     0.20294   0.59399   0.28331   0.00000  Uiso   1.00
C212   C     0.20604   0.90655   0.23116   0.00000  Uiso   1.00
C213   C     0.16673   0.61654   0.25042   0.00000  Uiso   1.00
C214   C     0.16646   0.88324   0.24999   0.00000  Uiso   1.00
C215   C     0.13005   0.59247   0.21896   0.00000  Uiso   1.00
C216   C     0.12684   0.90633   0.26851   0.00000  Uiso   1.00
C217   C     0.13091   0.54631   0.22008   0.00000  Uiso   1.00
C218   C     0.12793   0.95253   0.26869   0.00000  Uiso   1.00
C219   C     0.16723   0.52403   0.25198   0.00000  Uiso   1.00
C220   C     0.16747   0.97566   0.25066   0.00000  Uiso   1.00
Cu221  Cu    0.16667   0.75000   0.29822   0.00000  Uiso   1.00
Cu222  Cu    0.16667   0.75001   0.20179   0.00000  Uiso   1.00
H223   H     0.10341   0.52740   0.19578   0.00000  Uiso   1.00
H224   H     0.09797   0.97078   0.28302   0.00000  Uiso   1.00
H225   H     0.22898   0.79738   0.04378   0.00000  Uiso   1.00
H226   H     0.13415   0.68400   0.46007   0.00000  Uiso   1.00
H227   H     0.22538   0.79820   0.13149   0.00000  Uiso   1.00
H228   H     0.13308   0.68603   0.37189   0.00000  Uiso   1.00
H229   H     0.10544   0.70406   0.11708   0.00000  Uiso   1.00
H230   H     0.20009   0.81402   0.37989   0.00000  Uiso   1.00
H231   H     0.10290   0.70387   0.02848   0.00000  Uiso   1.00
H232   H     0.19848   0.81637   0.46765   0.00000  Uiso   1.00
N233   N     0.16667   0.75001   0.12935   0.00000  Uiso   1.00
N234   N     0.16667   0.74999   0.37066   0.00000  Uiso   1.00
O235   O     0.16667   0.68573   0.29072   0.00000  Uiso   1.00
O236   O     0.16666   0.81428   0.20929   0.00000  Uiso   1.00
O237   O     0.16667   0.68573   0.20928   0.00000  Uiso   1.00
O238   O     0.16666   0.81427   0.29072   0.00000  Uiso   1.00
O239   O     0.09161   0.75000   0.28132   0.00000  Uiso   1.00
O240   O     0.24172   0.75001   0.21868   0.00000  Uiso   1.00
O241   O     0.09161   0.75000   0.19989   0.00000  Uiso   1.00
O242   O     0.24172   0.75000   0.30012   0.00000  Uiso   1.00
Cl243  Cl    0.32267   0.78350   0.17798   0.00000  Uiso   1.00
Cl244  Cl    0.01148   0.71558   0.32193   0.00000  Uiso   1.00
Cl245  Cl    0.24682   0.51916   0.32662   0.00000  Uiso   1.00
Cl246  Cl    0.25468   0.98233   0.20577   0.00000  Uiso   1.00
Cl247  Cl    0.25006   0.62340   0.32209   0.00000  Uiso   1.00
Cl248  Cl    0.25664   0.87798   0.20932   0.00000  Uiso   1.00
C249   C     0.08925   0.61519   0.18486   0.00000  Uiso   1.00
H250   H     0.06850   0.63923   0.20522   0.00000  Uiso   1.00
H251   H     0.10692   0.63264   0.15599   0.00000  Uiso   1.00
H252   H     0.06082   0.59120   0.16685   0.00000  Uiso   1.00
C253   C     0.08275   0.88239   0.28695   0.00000  Uiso   1.00
H254   H     0.06395   0.85981   0.25837   0.00000  Uiso   1.00
H255   H     0.09664   0.86292   0.31989   0.00000  Uiso   1.00
H256   H     0.05350   0.90579   0.29679   0.00000  Uiso   1.00
C257   C     0.49996   0.66496   0.25004   0.00000  Uiso   1.00
C258   C     0.49985   0.83496   0.24998   0.00000  Uiso   1.00
C259   C     0.53414   0.77677   0.05818   0.00000  Uiso   1.00
C260   C     0.48131   0.71355   0.44384   0.00000  Uiso   1.00
C261   C     0.53310   0.77665   0.10873   0.00000  Uiso   1.00
C262   C     0.48133   0.71432   0.39313   0.00000  Uiso   1.00
C263   C     0.46588   0.72422   0.10064   0.00000  Uiso   1.00
C264   C     0.51847   0.78576   0.39756   0.00000  Uiso   1.00
C265   C     0.46484   0.72402   0.04980   0.00000  Uiso   1.00
C266   C     0.51816   0.78672   0.44821   0.00000  Uiso   1.00
C267   C     0.49963   0.75025   0.02735   0.00000  Uiso   1.00
C268   C     0.49968   0.75018   0.47266   0.00000  Uiso   1.00
C269   C     0.40150   0.75001   0.23793   0.00000  Uiso   1.00
C270   C     0.59856   0.74964   0.26209   0.00000  Uiso   1.00
C271   C     0.34726   0.75542   0.23201   0.00000  Uiso   1.00
C272   C     0.65292   0.74392   0.26803   0.00000  Uiso   1.00
C273   C     0.53616   0.54765   0.28434   0.00000  Uiso   1.00
C274   C     0.53960   0.95288   0.23109   0.00000  Uiso   1.00
C275   C     0.53628   0.59399   0.28331   0.00000  Uiso   1.00
C276   C     0.53937   0.90655   0.23116   0.00000  Uiso   1.00
C277   C     0.50006   0.61654   0.25042   0.00000  Uiso   1.00
C278   C     0.49979   0.88324   0.24999   0.00000  Uiso   1.00
C279   C     0.46338   0.59247   0.21896   0.00000  Uiso   1.00
C280   C     0.46017   0.90633   0.26851   0.00000  Uiso   1.00
C281   C     0.46425   0.54631   0.22008   0.00000  Uiso   1.00
C282   C     0.46126   0.95253   0.26869   0.00000  Uiso   1.00
C283   C     0.50057   0.52403   0.25198   0.00000  Uiso   1.00
C284   C     0.50081   0.97566   0.25066   0.00000  Uiso   1.00
Cu285  Cu    0.50000   0.75000   0.29822   0.00000  Uiso   1.00
Cu286  Cu    0.50000   0.75001   0.20179   0.00000  Uiso   1.00
H287   H     0.43674   0.52740   0.19578   0.00000  Uiso   1.00
H288   H     0.43131   0.97078   0.28302   0.00000  Uiso   1.00
H289   H     0.56231   0.79738   0.04378   0.00000  Uiso   1.00
H290   H     0.46748   0.68400   0.46007   0.00000  Uiso   1.00
H291   H     0.55871   0.79820   0.13149   0.00000  Uiso   1.00
H292   H     0.46642   0.68603   0.37189   0.00000  Uiso   1.00
H293   H     0.43877   0.70406   0.11708   0.00000  Uiso   1.00
H294   H     0.53343   0.81402   0.37989   0.00000  Uiso   1.00
H295   H     0.43624   0.70387   0.02848   0.00000  Uiso   1.00
H296   H     0.53182   0.81637   0.46765   0.00000  Uiso   1.00
N297   N     0.50000   0.75001   0.12935   0.00000  Uiso   1.00
N298   N     0.50000   0.74999   0.37066   0.00000  Uiso   1.00
O299   O     0.50000   0.68573   0.29072   0.00000  Uiso   1.00
O300   O     0.50000   0.81428   0.20929   0.00000  Uiso   1.00
O301   O     0.50000   0.68573   0.20928   0.00000  Uiso   1.00
O302   O     0.50000   0.81427   0.29072   0.00000  Uiso   1.00
O303   O     0.42495   0.75000   0.28132   0.00000  Uiso   1.00
O304   O     0.57505   0.75001   0.21868   0.00000  Uiso   1.00
O305   O     0.42495   0.75000   0.19989   0.00000  Uiso   1.00
O306   O     0.57505   0.75000   0.30012   0.00000  Uiso   1.00
Cl307  Cl    0.65600   0.78350   0.17798   0.00000  Uiso   1.00
Cl308  Cl    0.34481   0.71558   0.32193   0.00000  Uiso   1.00
Cl309  Cl    0.58015   0.51916   0.32662   0.00000  Uiso   1.00
Cl310  Cl    0.58801   0.98233   0.20577   0.00000  Uiso   1.00
Cl311  Cl    0.58339   0.62340   0.32209   0.00000  Uiso   1.00
Cl312  Cl    0.58997   0.87798   0.20932   0.00000  Uiso   1.00
C313   C     0.42259   0.61519   0.18486   0.00000  Uiso   1.00
H314   H     0.40183   0.63923   0.20522   0.00000  Uiso   1.00
H315   H     0.44025   0.63264   0.15599   0.00000  Uiso   1.00
H316   H     0.39416   0.59120   0.16685   0.00000  Uiso   1.00
C317   C     0.41608   0.88239   0.28695   0.00000  Uiso   1.00
H318   H     0.39728   0.85981   0.25837   0.00000  Uiso   1.00
H319   H     0.42997   0.86292   0.31989   0.00000  Uiso   1.00
H320   H     0.38683   0.90579   0.29679   0.00000  Uiso   1.00
C321   C     0.83329   0.66496   0.25004   0.00000  Uiso   1.00
C322   C     0.83318   0.83496   0.24998   0.00000  Uiso   1.00
C323   C     0.86748   0.77677   0.05818   0.00000  Uiso   1.00
C324   C     0.81465   0.71355   0.44384   0.00000  Uiso   1.00
C325   C     0.86643   0.77665   0.10873   0.00000  Uiso   1.00
C326   C     0.81467   0.71432   0.39313   0.00000  Uiso   1.00
C327   C     0.79922   0.72422   0.10064   0.00000  Uiso   1.00
C328   C     0.85180   0.78576   0.39756   0.00000  Uiso   1.00
C329   C     0.79817   0.72402   0.04980   0.00000  Uiso   1.00
C330   C     0.85149   0.78672   0.44821   0.00000  Uiso   1.00
C331   C     0.83296   0.75025   0.02735   0.00000  Uiso   1.00
C332   C     0.83301   0.75018   0.47266   0.00000  Uiso   1.00
C333   C     0.73483   0.75001   0.23793   0.00000  Uiso   1.00
C334   C     0.93190   0.74964   0.26209   0.00000  Uiso   1.00
C335   C     0.68060   0.75542   0.23201   0.00000  Uiso   1.00
C336   C     0.98625   0.74392   0.26803   0.00000  Uiso   1.00
C337   C     0.86950   0.54765   0.28434   0.00000  Uiso   1.00
C338   C     0.87293   0.95288   0.23109   0.00000  Uiso   1.00
C339   C     0.86961   0.59399   0.28331   0.00000  Uiso   1.00
C340   C     0.87270   0.90655   0.23116   0.00000  Uiso   1.00
C341   C     0.83339   0.61654   0.25042   0.00000  Uiso   1.00
C342   C     0.83312   0.88324   0.24999   0.00000  Uiso   1.00
C343   C     0.79672   0.59247   0.21896   0.00000  Uiso   1.00
C344   C     0.79350   0.90633   0.26851   0.00000  Uiso   1.00
C345   C     0.79758   0.54631   0.22008   0.00000  Uiso   1.00
C346   C     0.79459   0.95253   0.26869   0.00000  Uiso   1.00
C347   C     0.83390   0.52403   0.25198   0.00000  Uiso   1.00
C348   C     0.83414   0.97566   0.25066   0.00000  Uiso   1.00
Cu349  Cu    0.83333   0.75000   0.29822   0.00000  Uiso   1.00
Cu350  Cu    0.83333   0.75001   0.20179   0.00000  Uiso   1.00
H351   H     0.77008   0.52740   0.19578   0.00000  Uiso   1.00
H352   H     0.76464   0.97078   0.28302   0.00000  Uiso   1.00
H353   H     0.89564   0.79738   0.04378   0.00000  Uiso   1.00
H354   H     0.80081   0.68400   0.46007   0.00000  Uiso   1.00
H355   H     0.89205   0.79820   0.13149   0.00000  Uiso   1.00
H356   H     0.79975   0.68603   0.37189   0.00000  Uiso   1.00
H357   H     0.77210   0.70406   0.11708   0.00000  Uiso   1.00
H358   H     0.86676   0.81402   0.37989   0.00000  Uiso   1.00
H359   H     0.76957   0.70387   0.02848   0.00000  Uiso   1.00
H360   H     0.86515   0.81637   0.46765   0.00000  Uiso   1.00
N361   N     0.83333   0.75001   0.12935   0.00000  Uiso   1.00
N362   N     0.83333   0.74999   0.37066   0.00000  Uiso   1.00
O363   O     0.83334   0.68573   0.29072   0.00000  Uiso   1.00
O364   O     0.83333   0.81428   0.20929   0.00000  Uiso   1.00
O365   O     0.83334   0.68573   0.20928   0.00000  Uiso   1.00
O366   O     0.83333   0.81427   0.29072   0.00000  Uiso   1.00
O367   O     0.75828   0.75000   0.28132   0.00000  Uiso   1.00
O368   O     0.90839   0.75001   0.21868   0.00000  Uiso   1.00
O369   O     0.75828   0.75000   0.19989   0.00000  Uiso   1.00
O370   O     0.90839   0.75000   0.30012   0.00000  Uiso   1.00
Cl371  Cl    0.98933   0.78350   0.17798   0.00000  Uiso   1.00
Cl372  Cl    0.67815   0.71558   0.32193   0.00000  Uiso   1.00
Cl373  Cl    0.91349   0.51916   0.32662   0.00000  Uiso   1.00
Cl374  Cl    0.92134   0.98233   0.20577   0.00000  Uiso   1.00
Cl375  Cl    0.91672   0.62340   0.32209   0.00000  Uiso   1.00
Cl376  Cl    0.92331   0.87798   0.20932   0.00000  Uiso   1.00
C377   C     0.75592   0.61519   0.18486   0.00000  Uiso   1.00
H378   H     0.73517   0.63923   0.20522   0.00000  Uiso   1.00
H379   H     0.77358   0.63264   0.15599   0.00000  Uiso   1.00
H380   H     0.72749   0.59120   0.16685   0.00000  Uiso   1.00
C381   C     0.74941   0.88239   0.28695   0.00000  Uiso   1.00
H382   H     0.73062   0.85981   0.25837   0.00000  Uiso   1.00
H383   H     0.76330   0.86292   0.31989   0.00000  Uiso   1.00
H384   H     0.72017   0.90579   0.29679   0.00000  Uiso   1.00
C385   C     0.16662   0.16496   0.75004   0.00000  Uiso   1.00
C386   C     0.16652   0.33496   0.74998   0.00000  Uiso   1.00
C387   C     0.20081   0.27677   0.55818   0.00000  Uiso   1.00
C388   C     0.14798   0.21355   0.94384   0.00000  Uiso   1.00
C389   C     0.19977   0.27665   0.60873   0.00000  Uiso   1.00
C390   C     0.14800   0.21432   0.89313   0.00000  Uiso   1.00
C391   C     0.13255   0.22422   0.60064   0.00000  Uiso   1.00
C392   C     0.18513   0.28576   0.89756   0.00000  Uiso   1.00
C393   C     0.13150   0.22402   0.54980   0.00000  Uiso   1.00
C394   C     0.18482   0.28672   0.94821   0.00000  Uiso   1.00
C395   C     0.16630   0.25025   0.52735   0.00000  Uiso   1.00
C396   C     0.16635   0.25018   0.97266   0.00000  Uiso   1.00
C397   C     0.06817   0.25001   0.73793   0.00000  Uiso   1.00
C398   C     0.26523   0.24964   0.76209   0.00000  Uiso   1.00
C399   C     0.01393   0.25542   0.73201   0.00000  Uiso   1.00
C400   C     0.31958   0.24392   0.76803   0.00000  Uiso   1.00
C401   C     0.20283   0.04765   0.78434   0.00000  Uiso   1.00
C402   C     0.20627   0.45288   0.73109   0.00000  Uiso   1.00
C403   C     0.20294   0.09399   0.78331   0.00000  Uiso   1.00
C404   C     0.20604   0.40655   0.73116   0.00000  Uiso   1.00
C405   C     0.16673   0.11654   0.75042   0.00000  Uiso   1.00
C406   C     0.16646   0.38324   0.74999   0.00000  Uiso   1.00
C407   C     0.13005   0.09247   0.71896   0.00000  Uiso   1.00
C408   C     0.12684   0.40633   0.76851   0.00000  Uiso   1.00
C409   C     0.13091   0.04631   0.72008   0.00000  Uiso   1.00
C410   C     0.12793   0.45253   0.76869   0.00000  Uiso   1.00
C411   C     0.16723   0.02403   0.75198   0.00000  Uiso   1.00
C412   C     0.16747   0.47566   0.75066   0.00000  Uiso   1.00
Cu413  Cu    0.16667   0.25000   0.79822   0.00000  Uiso   1.00
Cu414  Cu    0.16667   0.25001   0.70179   0.00000  Uiso   1.00
H415   H     0.10341   0.02740   0.69578   0.00000  Uiso   1.00
H416   H     0.09797   0.47078   0.78302   0.00000  Uiso   1.00
H417   H     0.22898   0.29738   0.54378   0.00000  Uiso   1.00
H418   H     0.13415   0.18400   0.96007   0.00000  Uiso   1.00
H419   H     0.22538   0.29820   0.63149   0.00000  Uiso   1.00
H420   H     0.13308   0.18603   0.87189   0.00000  Uiso   1.00
H421   H     0.10544   0.20406   0.61708   0.00000  Uiso   1.00
H422   H     0.20009   0.31402   0.87989   0.00000  Uiso   1.00
H423   H     0.10290   0.20387   0.52848   0.00000  Uiso   1.00
H424   H     0.19848   0.31637   0.96765   0.00000  Uiso   1.00
N425   N     0.16667   0.25001   0.62935   0.00000  Uiso   1.00
N426   N     0.16667   0.24999   0.87066   0.00000  Uiso   1.00
O427   O     0.16667   0.18573   0.79072   0.00000  Uiso   1.00
O428   O     0.16666   0.31428   0.70929   0.00000  Uiso   1.00
O429   O     0.16667   0.18573   0.70928   0.00000  Uiso   1.00
O430   O     0.16666   0.31427   0.79072   0.00000  Uiso   1.00
O431   O     0.09161   0.25000   0.78132   0.00000  Uiso   1.00
O432   O     0.24172   0.25001   0.71868   0.00000  Uiso   1.00
O433   O     0.09161   0.25000   0.69989   0.00000  Uiso   1.00
O434   O     0.24172   0.25000   0.80012   0.00000  Uiso   1.00
Cl435  Cl    0.32267   0.28350   0.67798   0.00000  Uiso   1.00
Cl436  Cl    0.01148   0.21558   0.82193   0.00000  Uiso   1.00
Cl437  Cl    0.24682   0.01916   0.82662   0.00000  Uiso   1.00
Cl438  Cl    0.25468   0.48233   0.70577   0.00000  Uiso   1.00
Cl439  Cl    0.25006   0.12340   0.82209   0.00000  Uiso   1.00
Cl440  Cl    0.25664   0.37798   0.70932   0.00000  Uiso   1.00
C441   C     0.08925   0.11519   0.68486   0.00000  Uiso   1.00
H442   H     0.06850   0.13923   0.70522   0.00000  Uiso   1.00
H443   H     0.10692   0.13264   0.65599   0.00000  Uiso   1.00
H444   H     0.06082   0.09120   0.66685   0.00000  Uiso   1.00
C445   C     0.08275   0.38239   0.78695   0.00000  Uiso   1.00
H446   H     0.06395   0.35981   0.75837   0.00000  Uiso   1.00
H447   H     0.09664   0.36292   0.81989   0.00000  Uiso   1.00
H448   H     0.05350   0.40579   0.79679   0.00000  Uiso   1.00
C449   C     0.49996   0.16496   0.75004   0.00000  Uiso   1.00
C450   C     0.49985   0.33496   0.74998   0.00000  Uiso   1.00
C451   C     0.53414   0.27677   0.55818   0.00000  Uiso   1.00
C452   C     0.48131   0.21355   0.94384   0.00000  Uiso   1.00
C453   C     0.53310   0.27665   0.60873   0.00000  Uiso   1.00
C454   C     0.48133   0.21432   0.89313   0.00000  Uiso   1.00
C455   C     0.46588   0.22422   0.60064   0.00000  Uiso   1.00
C456   C     0.51847   0.28576   0.89756   0.00000  Uiso   1.00
C457   C     0.46484   0.22402   0.54980   0.00000  Uiso   1.00
C458   C     0.51816   0.28672   0.94821   0.00000  Uiso   1.00
C459   C     0.49963   0.25025   0.52735   0.00000  Uiso   1.00
C460   C     0.49968   0.25018   0.97266   0.00000  Uiso   1.00
C461   C     0.40150   0.25001   0.73793   0.00000  Uiso   1.00
C462   C     0.59856   0.24964   0.76209   0.00000  Uiso   1.00
C463   C     0.34726   0.25542   0.73201   0.00000  Uiso   1.00
C464   C     0.65292   0.24392   0.76803   0.00000  Uiso   1.00
C465   C     0.53616   0.04765   0.78434   0.00000  Uiso   1.00
C466   C     0.53960   0.45288   0.73109   0.00000  Uiso   1.00
C467   C     0.53628   0.09399   0.78331   0.00000  Uiso   1.00
C468   C     0.53937   0.40655   0.73116   0.00000  Uiso   1.00
C469   C     0.50006   0.11654   0.75042   0.00000  Uiso   1.00
C470   C     0.49979   0.38324   0.74999   0.00000  Uiso   1.00
C471   C     0.46338   0.09247   0.71896   0.00000  Uiso   1.00
C472   C     0.46017   0.40633   0.76851   0.00000  Uiso   1.00
C473   C     0.46425   0.04631   0.72008   0.00000  Uiso   1.00
C474   C     0.46126   0.45253   0.76869   0.00000  Uiso   1.00
C475   C     0.50057   0.02403   0.75198   0.00000  Uiso   1.00
C476   C     0.50081   0.47566   0.75066   0.00000  Uiso   1.00
Cu477  Cu    0.50000   0.25000   0.79822   0.00000  Uiso   1.00
Cu478  Cu    0.50000   0.25001   0.70179   0.00000  Uiso   1.00
H479   H     0.43674   0.02740   0.69578   0.00000  Uiso   1.00
H480   H     0.43131   0.47078   0.78302   0.00000  Uiso   1.00
H481   H     0.56231   0.29738   0.54378   0.00000  Uiso   1.00
H482   H     0.46748   0.18400   0.96007   0.00000  Uiso   1.00
H483   H     0.55871   0.29820   0.63149   0.00000  Uiso   1.00
H484   H     0.46642   0.18603   0.87189   0.00000  Uiso   1.00
H485   H     0.43877   0.20406   0.61708   0.00000  Uiso   1.00
H486   H     0.53343   0.31402   0.87989   0.00000  Uiso   1.00
H487   H     0.43624   0.20387   0.52848   0.00000  Uiso   1.00
H488   H     0.53182   0.31637   0.96765   0.00000  Uiso   1.00
N489   N     0.50000   0.25001   0.62935   0.00000  Uiso   1.00
N490   N     0.50000   0.24999   0.87066   0.00000  Uiso   1.00
O491   O     0.50000   0.18573   0.79072   0.00000  Uiso   1.00
O492   O     0.50000   0.31428   0.70929   0.00000  Uiso   1.00
O493   O     0.50000   0.18573   0.70928   0.00000  Uiso   1.00
O494   O     0.50000   0.31427   0.79072   0.00000  Uiso   1.00
O495   O     0.42495   0.25000   0.78132   0.00000  Uiso   1.00
O496   O     0.57505   0.25001   0.71868   0.00000  Uiso   1.00
O497   O     0.42495   0.25000   0.69989   0.00000  Uiso   1.00
O498   O     0.57505   0.25000   0.80012   0.00000  Uiso   1.00
Cl499  Cl    0.65600   0.28350   0.67798   0.00000  Uiso   1.00
Cl500  Cl    0.34481   0.21558   0.82193   0.00000  Uiso   1.00
Cl501  Cl    0.58015   0.01916   0.82662   0.00000  Uiso   1.00
Cl502  Cl    0.58801   0.48233   0.70577   0.00000  Uiso   1.00
Cl503  Cl    0.58339   0.12340   0.82209   0.00000  Uiso   1.00
Cl504  Cl    0.58997   0.37798   0.70932   0.00000  Uiso   1.00
C505   C     0.42259   0.11519   0.68486   0.00000  Uiso   1.00
H506   H     0.40183   0.13923   0.70522   0.00000  Uiso   1.00
H507   H     0.44025   0.13264   0.65599   0.00000  Uiso   1.00
H508   H     0.39416   0.09120   0.66685   0.00000  Uiso   1.00
C509   C     0.41608   0.38239   0.78695   0.00000  Uiso   1.00
H510   H     0.39728   0.35981   0.75837   0.00000  Uiso   1.00
H511   H     0.42997   0.36292   0.81989   0.00000  Uiso   1.00
H512   H     0.38683   0.40579   0.79679   0.00000  Uiso   1.00
C513   C     0.83329   0.16496   0.75004   0.00000  Uiso   1.00
C514   C     0.83318   0.33496   0.74998   0.00000  Uiso   1.00
C515   C     0.86748   0.27677   0.55818   0.00000  Uiso   1.00
C516   C     0.81465   0.21355   0.94384   0.00000  Uiso   1.00
C517   C     0.86643   0.27665   0.60873   0.00000  Uiso   1.00
C518   C     0.81467   0.21432   0.89313   0.00000  Uiso   1.00
C519   C     0.79922   0.22422   0.60064   0.00000  Uiso   1.00
C520   C     0.85180   0.28576   0.89756   0.00000  Uiso   1.00
C521   C     0.79817   0.22402   0.54980   0.00000  Uiso   1.00
C522   C     0.85149   0.28672   0.94821   0.00000  Uiso   1.00
C523   C     0.83296   0.25025   0.52735   0.00000  Uiso   1.00
C524   C     0.83301   0.25018   0.97266   0.00000  Uiso   1.00
C525   C     0.73483   0.25001   0.73793   0.00000  Uiso   1.00
C526   C     0.93190   0.24964   0.76209   0.00000  Uiso   1.00
C527   C     0.68060   0.25542   0.73201   0.00000  Uiso   1.00
C528   C     0.98625   0.24392   0.76803   0.00000  Uiso   1.00
C529   C     0.86950   0.04765   0.78434   0.00000  Uiso   1.00
C530   C     0.87293   0.45288   0.73109   0.00000  Uiso   1.00
C531   C     0.86961   0.09399   0.78331   0.00000  Uiso   1.00
C532   C     0.87270   0.40655   0.73116   0.00000  Uiso   1.00
C533   C     0.83339   0.11654   0.75042   0.00000  Uiso   1.00
C534   C     0.83312   0.38324   0.74999   0.00000  Uiso   1.00
C535   C     0.79672   0.09247   0.71896   0.00000  Uiso   1.00
C536   C     0.79350   0.40633   0.76851   0.00000  Uiso   1.00
C537   C     0.79758   0.04631   0.72008   0.00000  Uiso   1.00
C538   C     0.79459   0.45253   0.76869   0.00000  Uiso   1.00
C539   C     0.83390   0.02403   0.75198   0.00000  Uiso   1.00
C540   C     0.83414   0.47566   0.75066   0.00000  Uiso   1.00
Cu541  Cu    0.83333   0.25000   0.79822   0.00000  Uiso   1.00
Cu542  Cu    0.83333   0.25001   0.70179   0.00000  Uiso   1.00
H543   H     0.77008   0.02740   0.69578   0.00000  Uiso   1.00
H544   H     0.76464   0.47078   0.78302   0.00000  Uiso   1.00
H545   H     0.89564   0.29738   0.54378   0.00000  Uiso   1.00
H546   H     0.80081   0.18400   0.96007   0.00000  Uiso   1.00
H547   H     0.89205   0.29820   0.63149   0.00000  Uiso   1.00
H548   H     0.79975   0.18603   0.87189   0.00000  Uiso   1.00
H549   H     0.77210   0.20406   0.61708   0.00000  Uiso   1.00
H550   H     0.86676   0.31402   0.87989   0.00000  Uiso   1.00
H551   H     0.76957   0.20387   0.52848   0.00000  Uiso   1.00
H552   H     0.86515   0.31637   0.96765   0.00000  Uiso   1.00
N553   N     0.83333   0.25001   0.62935   0.00000  Uiso   1.00
N554   N     0.83333   0.24999   0.87066   0.00000  Uiso   1.00
O555   O     0.83334   0.18573   0.79072   0.00000  Uiso   1.00
O556   O     0.83333   0.31428   0.70929   0.00000  Uiso   1.00
O557   O     0.83334   0.18573   0.70928   0.00000  Uiso   1.00
O558   O     0.83333   0.31427   0.79072   0.00000  Uiso   1.00
O559   O     0.75828   0.25000   0.78132   0.00000  Uiso   1.00
O560   O     0.90839   0.25001   0.71868   0.00000  Uiso   1.00
O561   O     0.75828   0.25000   0.69989   0.00000  Uiso   1.00
O562   O     0.90839   0.25000   0.80012   0.00000  Uiso   1.00
Cl563  Cl    0.98933   0.28350   0.67798   0.00000  Uiso   1.00
Cl564  Cl    0.67815   0.21558   0.82193   0.00000  Uiso   1.00
Cl565  Cl    0.91349   0.01916   0.82662   0.00000  Uiso   1.00
Cl566  Cl    0.92134   0.48233   0.70577   0.00000  Uiso   1.00
Cl567  Cl    0.91672   0.12340   0.82209   0.00000  Uiso   1.00
Cl568  Cl    0.92331   0.37798   0.70932   0.00000  Uiso   1.00
C569   C     0.75592   0.11519   0.68486   0.00000  Uiso   1.00
H570   H     0.73517   0.13923   0.70522   0.00000  Uiso   1.00
H571   H     0.77358   0.13264   0.65599   0.00000  Uiso   1.00
H572   H     0.72749   0.09120   0.66685   0.00000  Uiso   1.00
C573   C     0.74941   0.38239   0.78695   0.00000  Uiso   1.00
H574   H     0.73062   0.35981   0.75837   0.00000  Uiso   1.00
H575   H     0.76330   0.36292   0.81989   0.00000  Uiso   1.00
H576   H     0.72017   0.40579   0.79679   0.00000  Uiso   1.00
C577   C     0.16662   0.66496   0.75004   0.00000  Uiso   1.00
C578   C     0.16652   0.83496   0.74998   0.00000  Uiso   1.00
C579   C     0.20081   0.77677   0.55818   0.00000  Uiso   1.00
C580   C     0.14798   0.71355   0.94384   0.00000  Uiso   1.00
C581   C     0.19977   0.77665   0.60873   0.00000  Uiso   1.00
C582   C     0.14800   0.71432   0.89313   0.00000  Uiso   1.00
C583   C     0.13255   0.72422   0.60064   0.00000  Uiso   1.00
C584   C     0.18513   0.78576   0.89756   0.00000  Uiso   1.00
C585   C     0.13150   0.72402   0.54980   0.00000  Uiso   1.00
C586   C     0.18482   0.78672   0.94821   0.00000  Uiso   1.00
C587   C     0.16630   0.75025   0.52735   0.00000  Uiso   1.00
C588   C     0.16635   0.75018   0.97266   0.00000  Uiso   1.00
C589   C     0.06817   0.75001   0.73793   0.00000  Uiso   1.00
C590   C     0.26523   0.74964   0.76209   0.00000  Uiso   1.00
C591   C     0.01393   0.75542   0.73201   0.00000  Uiso   1.00
C592   C     0.31958   0.74392   0.76803   0.00000  Uiso   1.00
C593   C     0.20283   0.54765   0.78434   0.00000  Uiso   1.00
C594   C     0.20627   0.95288   0.73109   0.00000  Uiso   1.00
C595   C     0.20294   0.59399   0.78331   0.00000  Uiso   1.00
C596   C     0.20604   0.90655   0.73116   0.00000  Uiso   1.00
C597   C     0.16673   0.61654   0.75042   0.00000  Uiso   1.00
C598   C     0.16646   0.88324   0.74999   0.00000  Uiso   1.00
C599   C     0.13005   0.59247   0.71896   0.00000  Uiso   1.00
C600   C     0.12684   0.90633   0.76851   0.00000  Uiso   1.00
C601   C     0.13091   0.54631   0.72008   0.00000  Uiso   1.00
C602   C     0.12793   0.95253   0.76869   0.00000  Uiso   1.00
C603   C     0.16723   0.52403   0.75198   0.00000  Uiso   1.00
C604   C     0.16747   0.97566   0.75066   0.00000  Uiso   1.00
Cu605  Cu    0.16667   0.75000   0.79822   0.00000  Uiso   1.00
Cu606  Cu    0.16667   0.75001   0.70179   0.00000  Uiso   1.00
H607   H     0.10341   0.52740   0.69578   0.00000  Uiso   1.00
H608   H     0.09797   0.97078   0.78302   0.00000  Uiso   1.00
H609   H     0.22898   0.79738   0.54378   0.00000  Uiso   1.00
H610   H     0.13415   0.68400   0.96007   0.00000  Uiso   1.00
H611   H     0.22538   0.79820   0.63149   0.00000  Uiso   1.00
H612   H     0.13308   0.68603   0.87189   0.00000  Uiso   1.00
H613   H     0.10544   0.70406   0.61708   0.00000  Uiso   1.00
H614   H     0.20009   0.81402   0.87989   0.00000  Uiso   1.00
H615   H     0.10290   0.70387   0.52848   0.00000  Uiso   1.00
H616   H     0.19848   0.81637   0.96765   0.00000  Uiso   1.00
N617   N     0.16667   0.75001   0.62935   0.00000  Uiso   1.00
N618   N     0.16667   0.74999   0.87066   0.00000  Uiso   1.00
O619   O     0.16667   0.68573   0.79072   0.00000  Uiso   1.00
O620   O     0.16666   0.81428   0.70929   0.00000  Uiso   1.00
O621   O     0.16667   0.68573   0.70928   0.00000  Uiso   1.00
O622   O     0.16666   0.81427   0.79072   0.00000  Uiso   1.00
O623   O     0.09161   0.75000   0.78132   0.00000  Uiso   1.00
O624   O     0.24172   0.75001   0.71868   0.00000  Uiso   1.00
O625   O     0.09161   0.75000   0.69989   0.00000  Uiso   1.00
O626   O     0.24172   0.75000   0.80012   0.00000  Uiso   1.00
Cl627  Cl    0.32267   0.78350   0.67798   0.00000  Uiso   1.00
Cl628  Cl    0.01148   0.71558   0.82193   0.00000  Uiso   1.00
Cl629  Cl    0.24682   0.51916   0.82662   0.00000  Uiso   1.00
Cl630  Cl    0.25468   0.98233   0.70577   0.00000  Uiso   1.00
Cl631  Cl    0.25006   0.62340   0.82209   0.00000  Uiso   1.00
Cl632  Cl    0.25664   0.87798   0.70932   0.00000  Uiso   1.00
C633   C     0.08925   0.61519   0.68486   0.00000  Uiso   1.00
H634   H     0.06850   0.63923   0.70522   0.00000  Uiso   1.00
H635   H     0.10692   0.63264   0.65599   0.00000  Uiso   1.00
H636   H     0.06082   0.59120   0.66685   0.00000  Uiso   1.00
C637   C     0.08275   0.88239   0.78695   0.00000  Uiso   1.00
H638   H     0.06395   0.85981   0.75837   0.00000  Uiso   1.00
H639   H     0.09664   0.86292   0.81989   0.00000  Uiso   1.00
H640   H     0.05350   0.90579   0.79679   0.00000  Uiso   1.00
C641   C     0.49996   0.66496   0.75004   0.00000  Uiso   1.00
C642   C     0.49985   0.83496   0.74998   0.00000  Uiso   1.00
C643   C     0.53414   0.77677   0.55818   0.00000  Uiso   1.00
C644   C     0.48131   0.71355   0.94384   0.00000  Uiso   1.00
C645   C     0.53310   0.77665   0.60873   0.00000  Uiso   1.00
C646   C     0.48133   0.71432   0.89313   0.00000  Uiso   1.00
C647   C     0.46588   0.72422   0.60064   0.00000  Uiso   1.00
C648   C     0.51847   0.78576   0.89756   0.00000  Uiso   1.00
C649   C     0.46484   0.72402   0.54980   0.00000  Uiso   1.00
C650   C     0.51816   0.78672   0.94821   0.00000  Uiso   1.00
C651   C     0.49963   0.75025   0.52735   0.00000  Uiso   1.00
C652   C     0.49968   0.75018   0.97266   0.00000  Uiso   1.00
C653   C     0.40150   0.75001   0.73793   0.00000  Uiso   1.00
C654   C     0.59856   0.74964   0.76209   0.00000  Uiso   1.00
C655   C     0.34726   0.75542   0.73201   0.00000  Uiso   1.00
C656   C     0.65292   0.74392   0.76803   0.00000  Uiso   1.00
C657   C     0.53616   0.54765   0.78434   0.00000  Uiso   1.00
C658   C     0.53960   0.95288   0.73109   0.00000  Uiso   1.00
C659   C     0.53628   0.59399   0.78331   0.00000  Uiso   1.00
C660   C     0.53937   0.90655   0.73116   0.00000  Uiso   1.00
C661   C     0.50006   0.61654   0.75042   0.00000  Uiso   1.00
C662   C     0.49979   0.88324   0.74999   0.00000  Uiso   1.00
C663   C     0.46338   0.59247   0.71896   0.00000  Uiso   1.00
C664   C     0.46017   0.90633   0.76851   0.00000  Uiso   1.00
C665   C     0.46425   0.54631   0.72008   0.00000  Uiso   1.00
C666   C     0.46126   0.95253   0.76869   0.00000  Uiso   1.00
C667   C     0.50057   0.52403   0.75198   0.00000  Uiso   1.00
C668   C     0.50081   0.97566   0.75066   0.00000  Uiso   1.00
Cu669  Cu    0.50000   0.75000   0.79822   0.00000  Uiso   1.00
Cu670  Cu    0.50000   0.75001   0.70179   0.00000  Uiso   1.00
H671   H     0.43674   0.52740   0.69578   0.00000  Uiso   1.00
H672   H     0.43131   0.97078   0.78302   0.00000  Uiso   1.00
H673   H     0.56231   0.79738   0.54378   0.00000  Uiso   1.00
H674   H     0.46748   0.68400   0.96007   0.00000  Uiso   1.00
H675   H     0.55871   0.79820   0.63149   0.00000  Uiso   1.00
H676   H     0.46642   0.68603   0.87189   0.00000  Uiso   1.00
H677   H     0.43877   0.70406   0.61708   0.00000  Uiso   1.00
H678   H     0.53343   0.81402   0.87989   0.00000  Uiso   1.00
H679   H     0.43624   0.70387   0.52848   0.00000  Uiso   1.00
H680   H     0.53182   0.81637   0.96765   0.00000  Uiso   1.00
N681   N     0.50000   0.75001   0.62935   0.00000  Uiso   1.00
N682   N     0.50000   0.74999   0.87066   0.00000  Uiso   1.00
O683   O     0.50000   0.68573   0.79072   0.00000  Uiso   1.00
O684   O     0.50000   0.81428   0.70929   0.00000  Uiso   1.00
O685   O     0.50000   0.68573   0.70928   0.00000  Uiso   1.00
O686   O     0.50000   0.81427   0.79072   0.00000  Uiso   1.00
O687   O     0.42495   0.75000   0.78132   0.00000  Uiso   1.00
O688   O     0.57505   0.75001   0.71868   0.00000  Uiso   1.00
O689   O     0.42495   0.75000   0.69989   0.00000  Uiso   1.00
O690   O     0.57505   0.75000   0.80012   0.00000  Uiso   1.00
Cl691  Cl    0.65600   0.78350   0.67798   0.00000  Uiso   1.00
Cl692  Cl    0.34481   0.71558   0.82193   0.00000  Uiso   1.00
Cl693  Cl    0.58015   0.51916   0.82662   0.00000  Uiso   1.00
Cl694  Cl    0.58801   0.98233   0.70577   0.00000  Uiso   1.00
Cl695  Cl    0.58339   0.62340   0.82209   0.00000  Uiso   1.00
Cl696  Cl    0.58997   0.87798   0.70932   0.00000  Uiso   1.00
C697   C     0.42259   0.61519   0.68486   0.00000  Uiso   1.00
H698   H     0.40183   0.63923   0.70522   0.00000  Uiso   1.00
H699   H     0.44025   0.63264   0.65599   0.00000  Uiso   1.00
H700   H     0.39416   0.59120   0.66685   0.00000  Uiso   1.00
C701   C     0.41608   0.88239   0.78695   0.00000  Uiso   1.00
H702   H     0.39728   0.85981   0.75837   0.00000  Uiso   1.00
H703   H     0.42997   0.86292   0.81989   0.00000  Uiso   1.00
H704   H     0.38683   0.90579   0.79679   0.00000  Uiso   1.00
C705   C     0.83329   0.66496   0.75004   0.00000  Uiso   1.00
C706   C     0.83318   0.83496   0.74998   0.00000  Uiso   1.00
C707   C     0.86748   0.77677   0.55818   0.00000  Uiso   1.00
C708   C     0.81465   0.71355   0.94384   0.00000  Uiso   1.00
C709   C     0.86643   0.77665   0.60873   0.00000  Uiso   1.00
C710   C     0.81467   0.71432   0.89313   0.00000  Uiso   1.00
C711   C     0.79922   0.72422   0.60064   0.00000  Uiso   1.00
C712   C     0.85180   0.78576   0.89756   0.00000  Uiso   1.00
C713   C     0.79817   0.72402   0.54980   0.00000  Uiso   1.00
C714   C     0.85149   0.78672   0.94821   0.00000  Uiso   1.00
C715   C     0.83296   0.75025   0.52735   0.00000  Uiso   1.00
C716   C     0.83301   0.75018   0.97266   0.00000  Uiso   1.00
C717   C     0.73483   0.75001   0.73793   0.00000  Uiso   1.00
C718   C     0.93190   0.74964   0.76209   0.00000  Uiso   1.00
C719   C     0.68060   0.75542   0.73201   0.00000  Uiso   1.00
C720   C     0.98625   0.74392   0.76803   0.00000  Uiso   1.00
C721   C     0.86950   0.54765   0.78434   0.00000  Uiso   1.00
C722   C     0.87293   0.95288   0.73109   0.00000  Uiso   1.00
C723   C     0.86961   0.59399   0.78331   0.00000  Uiso   1.00
C724   C     0.87270   0.90655   0.73116   0.00000  Uiso   1.00
C725   C     0.83339   0.61654   0.75042   0.00000  Uiso   1.00
C726   C     0.83312   0.88324   0.74999   0.00000  Uiso   1.00
C727   C     0.79672   0.59247   0.71896   0.00000  Uiso   1.00
C728   C     0.79350   0.90633   0.76851   0.00000  Uiso   1.00
C729   C     0.79758   0.54631   0.72008   0.00000  Uiso   1.00
C730   C     0.79459   0.95253   0.76869   0.00000  Uiso   1.00
C731   C     0.83390   0.52403   0.75198   0.00000  Uiso   1.00
C732   C     0.83414   0.97566   0.75066   0.00000  Uiso   1.00
Cu733  Cu    0.83333   0.75000   0.79822   0.00000  Uiso   1.00
Cu734  Cu    0.83333   0.75001   0.70179   0.00000  Uiso   1.00
H735   H     0.77008   0.52740   0.69578   0.00000  Uiso   1.00
H736   H     0.76464   0.97078   0.78302   0.00000  Uiso   1.00
H737   H     0.89564   0.79738   0.54378   0.00000  Uiso   1.00
H738   H     0.80081   0.68400   0.96007   0.00000  Uiso   1.00
H739   H     0.89205   0.79820   0.63149   0.00000  Uiso   1.00
H740   H     0.79975   0.68603   0.87189   0.00000  Uiso   1.00
H741   H     0.77210   0.70406   0.61708   0.00000  Uiso   1.00
H742   H     0.86676   0.81402   0.87989   0.00000  Uiso   1.00
H743   H     0.76957   0.70387   0.52848   0.00000  Uiso   1.00
H744   H     0.86515   0.81637   0.96765   0.00000  Uiso   1.00
N745   N     0.83333   0.75001   0.62935   0.00000  Uiso   1.00
N746   N     0.83333   0.74999   0.87066   0.00000  Uiso   1.00
O747   O     0.83334   0.68573   0.79072   0.00000  Uiso   1.00
O748   O     0.83333   0.81428   0.70929   0.00000  Uiso   1.00
O749   O     0.83334   0.68573   0.70928   0.00000  Uiso   1.00
O750   O     0.83333   0.81427   0.79072   0.00000  Uiso   1.00
O751   O     0.75828   0.75000   0.78132   0.00000  Uiso   1.00
O752   O     0.90839   0.75001   0.71868   0.00000  Uiso   1.00
O753   O     0.75828   0.75000   0.69989   0.00000  Uiso   1.00
O754   O     0.90839   0.75000   0.80012   0.00000  Uiso   1.00
Cl755  Cl    0.98933   0.78350   0.67798   0.00000  Uiso   1.00
Cl756  Cl    0.67815   0.71558   0.82193   0.00000  Uiso   1.00
Cl757  Cl    0.91349   0.51916   0.82662   0.00000  Uiso   1.00
Cl758  Cl    0.92134   0.98233   0.70577   0.00000  Uiso   1.00
Cl759  Cl    0.91672   0.62340   0.82209   0.00000  Uiso   1.00
Cl760  Cl    0.92331   0.87798   0.70932   0.00000  Uiso   1.00
C761   C     0.75592   0.61519   0.68486   0.00000  Uiso   1.00
H762   H     0.73517   0.63923   0.70522   0.00000  Uiso   1.00
H763   H     0.77358   0.63264   0.65599   0.00000  Uiso   1.00
H764   H     0.72749   0.59120   0.66685   0.00000  Uiso   1.00
C765   C     0.74941   0.88239   0.78695   0.00000  Uiso   1.00
H766   H     0.73062   0.85981   0.75837   0.00000  Uiso   1.00
H767   H     0.76330   0.86292   0.81989   0.00000  Uiso   1.00
H768   H     0.72017   0.90579   0.79679   0.00000  Uiso   1.00
loop_
_geom_bond_atom_site_label_1
_geom_bond_atom_site_label_2
_geom_bond_distance
_geom_bond_site_symmetry_2
_ccdc_geom_bond_type
C1     C21     1.462   .     S
C1     O45     1.292   .     A
C1     O43     1.291   .     A
C2     C22     1.458   .     S
C2     O46     1.290   .     A
C2     O44     1.291   .     A
C3     C5      1.406   .     A
C3     H33     1.081   .     S
C3     C11     1.412   .     A
C4     H34     1.081   .     S
C4     C6      1.406   .     A
C4     C12     1.411   .     A
C5     H35     1.079   .     S
C5     N41     1.362   .     A
C6     H36     1.081   .     S
C6     N42     1.364   .     A
C7     H37     1.081   .     S
C7     C9      1.407   .     A
C7     N41     1.363   .     A
C8     N42     1.364   .     A
C8     H38     1.081   .     S
C8     C10     1.406   .     A
C9     C11     1.412   .     A
C9     H39     1.081   .     S
C10    C12     1.411   .     A
C10    H40     1.081   .     S
C11    C396    1.517   1_554 S
C12    C395    1.517   .     S
C13    C15     1.431   .     S
C13    O49     1.290   .     A
C13    O47     1.281   .     A
C14    O48     1.282   .     A
C14    O50     1.291   .     A
C14    C16     1.436   .     S
C15    C144    1.355   1_455 S
C15    Cl179   1.773   1_455 S
C16    C79     1.355   .     S
C16    Cl116   1.778   .     S
C17    C27     1.404   .     A
C17    Cl53    1.769   .     S
C17    C19     1.400   .     A
C18    C28     1.405   .     A
C18    C20     1.399   .     A
C18    Cl54    1.769   .     S
C19    C21     1.413   .     A
C19    Cl55    1.770   .     S
C20    Cl56    1.768   .     S
C20    C22     1.410   .     A
C21    C23     1.414   .     A
C22    C24     1.413   .     A
C23    C57     1.508   .     S
C23    C25     1.395   .     A
C24    C61     1.510   .     S
C24    C26     1.395   .     A
C25    C27     1.395   .     A
C25    H31     1.084   .     S
C26    C28     1.397   .     A
C26    H32     1.084   .     S
C27    C220    1.462   1_545 S
C28    C219    1.462   .     S
Cu29   Cu30    2.674   .     S
Cu29   N42     2.009   .     S
Cu29   O46     1.952   .     S
Cu29   O43     1.952   .     S
Cu29   O47     1.977   .     S
Cu29   O50     1.976   .     S
Cu30   N41     2.009   .     S
Cu30   O45     1.952   .     S
Cu30   O44     1.952   .     S
Cu30   O48     1.977   .     S
Cu30   O49     1.976   .     S
Cl51   C79     1.773   .     S
Cl52   C144    1.778   1_455 S
C57    H58     1.111   .     S
C57    H59     1.108   .     S
C57    H60     1.111   .     S
C61    H64     1.111   .     S
C61    H62     1.111   .     S
C61    H63     1.110   .     S
C65    C85     1.462   .     S
C65    O109    1.292   .     A
C65    O107    1.291   .     A
C66    C86     1.458   .     S
C66    O110    1.290   .     A
C66    O108    1.291   .     A
C67    C69     1.406   .     A
C67    H97     1.081   .     S
C67    C75     1.412   .     A
C68    H98     1.081   .     S
C68    C70     1.406   .     A
C68    C76     1.411   .     A
C69    H99     1.079   .     S
C69    N105    1.362   .     A
C70    H100    1.081   .     S
C70    N106    1.364   .     A
C71    H101    1.081   .     S
C71    C73     1.407   .     A
C71    N105    1.363   .     A
C72    N106    1.364   .     A
C72    H102    1.081   .     S
C72    C74     1.406   .     A
C73    C75     1.412   .     A
C73    H103    1.081   .     S
C74    C76     1.411   .     A
C74    H104    1.081   .     S
C75    C460    1.517   1_554 S
C76    C459    1.517   .     S
C77    C79     1.431   .     S
C77    O113    1.290   .     A
C77    O111    1.281   .     A
C78    O112    1.282   .     A
C78    O114    1.291   .     A
C78    C80     1.436   .     S
C80    C143    1.355   .     S
C80    Cl180   1.778   .     S
C81    C91     1.404   .     A
C81    Cl117   1.769   .     S
C81    C83     1.400   .     A
C82    C92     1.405   .     A
C82    C84     1.399   .     A
C82    Cl118   1.769   .     S
C83    C85     1.413   .     A
C83    Cl119   1.770   .     S
C84    Cl120   1.768   .     S
C84    C86     1.410   .     A
C85    C87     1.414   .     A
C86    C88     1.413   .     A
C87    C121    1.508   .     S
C87    C89     1.395   .     A
C88    C125    1.510   .     S
C88    C90     1.395   .     A
C89    C91     1.395   .     A
C89    H95     1.084   .     S
C90    C92     1.397   .     A
C90    H96     1.084   .     S
C91    C284    1.462   1_545 S
C92    C283    1.462   .     S
Cu93   Cu94    2.674   .     S
Cu93   N106    2.009   .     S
Cu93   O110    1.952   .     S
Cu93   O107    1.952   .     S
Cu93   O111    1.977   .     S
Cu93   O114    1.976   .     S
Cu94   N105    2.009   .     S
Cu94   O109    1.952   .     S
Cu94   O108    1.952   .     S
Cu94   O112    1.977   .     S
Cu94   O113    1.976   .     S
Cl115  C143    1.773   .     S
C121   H122    1.111   .     S
C121   H123    1.108   .     S
C121   H124    1.111   .     S
C125   H128    1.111   .     S
C125   H126    1.111   .     S
C125   H127    1.110   .     S
C129   C149    1.462   .     S
C129   O173    1.292   .     A
C129   O171    1.291   .     A
C130   C150    1.458   .     S
C130   O174    1.290   .     A
C130   O172    1.291   .     A
C131   C133    1.406   .     A
C131   H161    1.081   .     S
C131   C139    1.412   .     A
C132   H162    1.081   .     S
C132   C134    1.406   .     A
C132   C140    1.411   .     A
C133   H163    1.079   .     S
C133   N169    1.362   .     A
C134   H164    1.081   .     S
C134   N170    1.364   .     A
C135   H165    1.081   .     S
C135   C137    1.407   .     A
C135   N169    1.363   .     A
C136   N170    1.364   .     A
C136   H166    1.081   .     S
C136   C138    1.406   .     A
C137   C139    1.412   .     A
C137   H167    1.081   .     S
C138   C140    1.411   .     A
C138   H168    1.081   .     S
C139   C524    1.517   1_554 S
C140   C523    1.517   .     S
C141   C143    1.431   .     S
C141   O177    1.290   .     A
C141   O175    1.281   .     A
C142   O176    1.282   .     A
C142   O178    1.291   .     A
C142   C144    1.436   .     S
C144   C15     1.355   1_655 S
C144   Cl52    1.778   1_655 S
C145   C155    1.404   .     A
C145   Cl181   1.769   .     S
C145   C147    1.400   .     A
C146   C156    1.405   .     A
C146   C148    1.399   .     A
C146   Cl182   1.769   .     S
C147   C149    1.413   .     A
C147   Cl183   1.770   .     S
C148   Cl184   1.768   .     S
C148   C150    1.410   .     A
C149   C151    1.414   .     A
C150   C152    1.413   .     A
C151   C185    1.508   .     S
C151   C153    1.395   .     A
C152   C189    1.510   .     S
C152   C154    1.395   .     A
C153   C155    1.395   .     A
C153   H159    1.084   .     S
C154   C156    1.397   .     A
C154   H160    1.084   .     S
C155   C348    1.462   1_545 S
C156   C347    1.462   .     S
Cu157  Cu158   2.674   .     S
Cu157  N170    2.009   .     S
Cu157  O174    1.952   .     S
Cu157  O171    1.952   .     S
Cu157  O175    1.977   .     S
Cu157  O178    1.976   .     S
Cu158  N169    2.009   .     S
Cu158  O173    1.952   .     S
Cu158  O172    1.952   .     S
Cu158  O176    1.977   .     S
Cu158  O177    1.976   .     S
Cl179  C15     1.773   1_655 S
C185   H186    1.111   .     S
C185   H187    1.108   .     S
C185   H188    1.111   .     S
C189   H192    1.111   .     S
C189   H190    1.111   .     S
C189   H191    1.110   .     S
C193   C213    1.462   .     S
C193   O237    1.292   .     A
C193   O235    1.291   .     A
C194   C214    1.458   .     S
C194   O238    1.290   .     A
C194   O236    1.291   .     A
C195   C197    1.406   .     A
C195   H225    1.081   .     S
C195   C203    1.412   .     A
C196   H226    1.081   .     S
C196   C198    1.406   .     A
C196   C204    1.411   .     A
C197   H227    1.079   .     S
C197   N233    1.362   .     A
C198   H228    1.081   .     S
C198   N234    1.364   .     A
C199   H229    1.081   .     S
C199   C201    1.407   .     A
C199   N233    1.363   .     A
C200   N234    1.364   .     A
C200   H230    1.081   .     S
C200   C202    1.406   .     A
C201   C203    1.412   .     A
C201   H231    1.081   .     S
C202   C204    1.411   .     A
C202   H232    1.081   .     S
C203   C588    1.517   1_554 S
C204   C587    1.517   .     S
C205   C207    1.431   .     S
C205   O241    1.290   .     A
C205   O239    1.281   .     A
C206   O240    1.282   .     A
C206   O242    1.291   .     A
C206   C208    1.436   .     S
C207   C336    1.355   1_455 S
C207   Cl371   1.773   1_455 S
C208   C271    1.355   .     S
C208   Cl308   1.778   .     S
C209   C219    1.404   .     A
C209   Cl245   1.769   .     S
C209   C211    1.400   .     A
C210   C220    1.405   .     A
C210   C212    1.399   .     A
C210   Cl246   1.769   .     S
C211   C213    1.413   .     A
C211   Cl247   1.770   .     S
C212   Cl248   1.768   .     S
C212   C214    1.410   .     A
C213   C215    1.414   .     A
C214   C216    1.413   .     A
C215   C249    1.508   .     S
C215   C217    1.395   .     A
C216   C253    1.510   .     S
C216   C218    1.395   .     A
C217   C219    1.395   .     A
C217   H223    1.084   .     S
C218   C220    1.397   .     A
C218   H224    1.084   .     S
C220   C27     1.462   1_565 S
Cu221  Cu222   2.674   .     S
Cu221  N234    2.009   .     S
Cu221  O238    1.952   .     S
Cu221  O235    1.952   .     S
Cu221  O239    1.977   .     S
Cu221  O242    1.976   .     S
Cu222  N233    2.009   .     S
Cu222  O237    1.952   .     S
Cu222  O236    1.952   .     S
Cu222  O240    1.977   .     S
Cu222  O241    1.976   .     S
Cl243  C271    1.773   .     S
Cl244  C336    1.778   1_455 S
C249   H250    1.111   .     S
C249   H251    1.108   .     S
C249   H252    1.111   .     S
C253   H256    1.111   .     S
C253   H254    1.111   .     S
C253   H255    1.110   .     S
C257   C277    1.462   .     S
C257   O301    1.292   .     A
C257   O299    1.291   .     A
C258   C278    1.458   .     S
C258   O302    1.290   .     A
C258   O300    1.291   .     A
C259   C261    1.406   .     A
C259   H289    1.081   .     S
C259   C267    1.412   .     A
C260   H290    1.081   .     S
C260   C262    1.406   .     A
C260   C268    1.411   .     A
C261   H291    1.079   .     S
C261   N297    1.362   .     A
C262   H292    1.081   .     S
C262   N298    1.364   .     A
C263   H293    1.081   .     S
C263   C265    1.407   .     A
C263   N297    1.363   .     A
C264   N298    1.364   .     A
C264   H294    1.081   .     S
C264   C266    1.406   .     A
C265   C267    1.412   .     A
C265   H295    1.081   .     S
C266   C268    1.411   .     A
C266   H296    1.081   .     S
C267   C652    1.517   1_554 S
C268   C651    1.517   .     S
C269   C271    1.431   .     S
C269   O305    1.290   .     A
C269   O303    1.281   .     A
C270   O304    1.282   .     A
C270   O306    1.291   .     A
C270   C272    1.436   .     S
C272   C335    1.355   .     S
C272   Cl372   1.778   .     S
C273   C283    1.404   .     A
C273   Cl309   1.769   .     S
C273   C275    1.400   .     A
C274   C284    1.405   .     A
C274   C276    1.399   .     A
C274   Cl310   1.769   .     S
C275   C277    1.413   .     A
C275   Cl311   1.770   .     S
C276   Cl312   1.768   .     S
C276   C278    1.410   .     A
C277   C279    1.414   .     A
C278   C280    1.413   .     A
C279   C313    1.508   .     S
C279   C281    1.395   .     A
C280   C317    1.510   .     S
C280   C282    1.395   .     A
C281   C283    1.395   .     A
C281   H287    1.084   .     S
C282   C284    1.397   .     A
C282   H288    1.084   .     S
C284   C91     1.462   1_565 S
Cu285  Cu286   2.674   .     S
Cu285  N298    2.009   .     S
Cu285  O302    1.952   .     S
Cu285  O299    1.952   .     S
Cu285  O303    1.977   .     S
Cu285  O306    1.976   .     S
Cu286  N297    2.009   .     S
Cu286  O301    1.952   .     S
Cu286  O300    1.952   .     S
Cu286  O304    1.977   .     S
Cu286  O305    1.976   .     S
Cl307  C335    1.773   .     S
C313   H314    1.111   .     S
C313   H315    1.108   .     S
C313   H316    1.111   .     S
C317   H320    1.111   .     S
C317   H318    1.111   .     S
C317   H319    1.110   .     S
C321   C341    1.462   .     S
C321   O365    1.292   .     A
C321   O363    1.291   .     A
C322   C342    1.458   .     S
C322   O366    1.290   .     A
C322   O364    1.291   .     A
C323   C325    1.406   .     A
C323   H353    1.081   .     S
C323   C331    1.412   .     A
C324   H354    1.081   .     S
C324   C326    1.406   .     A
C324   C332    1.411   .     A
C325   H355    1.079   .     S
C325   N361    1.362   .     A
C326   H356    1.081   .     S
C326   N362    1.364   .     A
C327   H357    1.081   .     S
C327   C329    1.407   .     A
C327   N361    1.363   .     A
C328   N362    1.364   .     A
C328   H358    1.081   .     S
C328   C330    1.406   .     A
C329   C331    1.412   .     A
C329   H359    1.081   .     S
C330   C332    1.411   .     A
C330   H360    1.081   .     S
C331   C716    1.517   1_554 S
C332   C715    1.517   .     S
C333   C335    1.431   .     S
C333   O369    1.290   .     A
C333   O367    1.281   .     A
C334   O368    1.282   .     A
C334   O370    1.291   .     A
C334   C336    1.436   .     S
C336   C207    1.355   1_655 S
C336   Cl244   1.778   1_655 S
C337   C347    1.404   .     A
C337   Cl373   1.769   .     S
C337   C339    1.400   .     A
C338   C348    1.405   .     A
C338   C340    1.399   .     A
C338   Cl374   1.769   .     S
C339   C341    1.413   .     A
C339   Cl375   1.770   .     S
C340   Cl376   1.768   .     S
C340   C342    1.410   .     A
C341   C343    1.414   .     A
C342   C344    1.413   .     A
C343   C377    1.508   .     S
C343   C345    1.395   .     A
C344   C381    1.510   .     S
C344   C346    1.395   .     A
C345   C347    1.395   .     A
C345   H351    1.084   .     S
C346   C348    1.397   .     A
C346   H352    1.084   .     S
C348   C155    1.462   1_565 S
Cu349  Cu350   2.674   .     S
Cu349  N362    2.009   .     S
Cu349  O366    1.952   .     S
Cu349  O363    1.952   .     S
Cu349  O367    1.977   .     S
Cu349  O370    1.976   .     S
Cu350  N361    2.009   .     S
Cu350  O365    1.952   .     S
Cu350  O364    1.952   .     S
Cu350  O368    1.977   .     S
Cu350  O369    1.976   .     S
Cl371  C207    1.773   1_655 S
C377   H378    1.111   .     S
C377   H379    1.108   .     S
C377   H380    1.111   .     S
C381   H384    1.111   .     S
C381   H382    1.111   .     S
C381   H383    1.110   .     S
C385   C405    1.462   .     S
C385   O429    1.292   .     A
C385   O427    1.291   .     A
C386   C406    1.458   .     S
C386   O430    1.290   .     A
C386   O428    1.291   .     A
C387   C389    1.406   .     A
C387   H417    1.081   .     S
C387   C395    1.412   .     A
C388   H418    1.081   .     S
C388   C390    1.406   .     A
C388   C396    1.411   .     A
C389   H419    1.079   .     S
C389   N425    1.362   .     A
C390   H420    1.081   .     S
C390   N426    1.364   .     A
C391   H421    1.081   .     S
C391   C393    1.407   .     A
C391   N425    1.363   .     A
C392   N426    1.364   .     A
C392   H422    1.081   .     S
C392   C394    1.406   .     A
C393   C395    1.412   .     A
C393   H423    1.081   .     S
C394   C396    1.411   .     A
C394   H424    1.081   .     S
C396   C11     1.517   1_556 S
C397   C399    1.431   .     S
C397   O433    1.290   .     A
C397   O431    1.281   .     A
C398   O432    1.282   .     A
C398   O434    1.291   .     A
C398   C400    1.436   .     S
C399   C528    1.355   1_455 S
C399   Cl563   1.773   1_455 S
C400   C463    1.355   .     S
C400   Cl500   1.778   .     S
C401   C411    1.404   .     A
C401   Cl437   1.769   .     S
C401   C403    1.400   .     A
C402   C412    1.405   .     A
C402   C404    1.399   .     A
C402   Cl438   1.769   .     S
C403   C405    1.413   .     A
C403   Cl439   1.770   .     S
C404   Cl440   1.768   .     S
C404   C406    1.410   .     A
C405   C407    1.414   .     A
C406   C408    1.413   .     A
C407   C441    1.508   .     S
C407   C409    1.395   .     A
C408   C445    1.510   .     S
C408   C410    1.395   .     A
C409   C411    1.395   .     A
C409   H415    1.084   .     S
C410   C412    1.397   .     A
C410   H416    1.084   .     S
C411   C604    1.462   1_545 S
C412   C603    1.462   .     S
Cu413  Cu414   2.674   .     S
Cu413  N426    2.009   .     S
Cu413  O430    1.952   .     S
Cu413  O427    1.952   .     S
Cu413  O431    1.977   .     S
Cu413  O434    1.976   .     S
Cu414  N425    2.009   .     S
Cu414  O429    1.952   .     S
Cu414  O428    1.952   .     S
Cu414  O432    1.977   .     S
Cu414  O433    1.976   .     S
Cl435  C463    1.773   .     S
Cl436  C528    1.778   1_455 S
C441   H442    1.111   .     S
C441   H443    1.108   .     S
C441   H444    1.111   .     S
C445   H448    1.111   .     S
C445   H446    1.111   .     S
C445   H447    1.110   .     S
C449   C469    1.462   .     S
C449   O493    1.292   .     A
C449   O491    1.291   .     A
C450   C470    1.458   .     S
C450   O494    1.290   .     A
C450   O492    1.291   .     A
C451   C453    1.406   .     A
C451   H481    1.081   .     S
C451   C459    1.412   .     A
C452   H482    1.081   .     S
C452   C454    1.406   .     A
C452   C460    1.411   .     A
C453   H483    1.079   .     S
C453   N489    1.362   .     A
C454   H484    1.081   .     S
C454   N490    1.364   .     A
C455   H485    1.081   .     S
C455   C457    1.407   .     A
C455   N489    1.363   .     A
C456   N490    1.364   .     A
C456   H486    1.081   .     S
C456   C458    1.406   .     A
C457   C459    1.412   .     A
C457   H487    1.081   .     S
C458   C460    1.411   .     A
C458   H488    1.081   .     S
C460   C75     1.517   1_556 S
C461   C463    1.431   .     S
C461   O497    1.290   .     A
C461   O495    1.281   .     A
C462   O496    1.282   .     A
C462   O498    1.291   .     A
C462   C464    1.436   .     S
C464   C527    1.355   .     S
C464   Cl564   1.778   .     S
C465   C475    1.404   .     A
C465   Cl501   1.769   .     S
C465   C467    1.400   .     A
C466   C476    1.405   .     A
C466   C468    1.399   .     A
C466   Cl502   1.769   .     S
C467   C469    1.413   .     A
C467   Cl503   1.770   .     S
C468   Cl504   1.768   .     S
C468   C470    1.410   .     A
C469   C471    1.414   .     A
C470   C472    1.413   .     A
C471   C505    1.508   .     S
C471   C473    1.395   .     A
C472   C509    1.510   .     S
C472   C474    1.395   .     A
C473   C475    1.395   .     A
C473   H479    1.084   .     S
C474   C476    1.397   .     A
C474   H480    1.084   .     S
C475   C668    1.462   1_545 S
C476   C667    1.462   .     S
Cu477  Cu478   2.674   .     S
Cu477  N490    2.009   .     S
Cu477  O494    1.952   .     S
Cu477  O491    1.952   .     S
Cu477  O495    1.977   .     S
Cu477  O498    1.976   .     S
Cu478  N489    2.009   .     S
Cu478  O493    1.952   .     S
Cu478  O492    1.952   .     S
Cu478  O496    1.977   .     S
Cu478  O497    1.976   .     S
Cl499  C527    1.773   .     S
C505   H506    1.111   .     S
C505   H507    1.108   .     S
C505   H508    1.111   .     S
C509   H512    1.111   .     S
C509   H510    1.111   .     S
C509   H511    1.110   .     S
C513   C533    1.462   .     S
C513   O557    1.292   .     A
C513   O555    1.291   .     A
C514   C534    1.458   .     S
C514   O558    1.290   .     A
C514   O556    1.291   .     A
C515   C517    1.406   .     A
C515   H545    1.081   .     S
C515   C523    1.412   .     A
C516   H546    1.081   .     S
C516   C518    1.406   .     A
C516   C524    1.411   .     A
C517   H547    1.079   .     S
C517   N553    1.362   .     A
C518   H548    1.081   .     S
C518   N554    1.364   .     A
C519   H549    1.081   .     S
C519   C521    1.407   .     A
C519   N553    1.363   .     A
C520   N554    1.364   .     A
C520   H550    1.081   .     S
C520   C522    1.406   .     A
C521   C523    1.412   .     A
C521   H551    1.081   .     S
C522   C524    1.411   .     A
C522   H552    1.081   .     S
C524   C139    1.517   1_556 S
C525   C527    1.431   .     S
C525   O561    1.290   .     A
C525   O559    1.281   .     A
C526   O560    1.282   .     A
C526   O562    1.291   .     A
C526   C528    1.436   .     S
C528   C399    1.355   1_655 S
C528   Cl436   1.778   1_655 S
C529   C539    1.404   .     A
C529   Cl565   1.769   .     S
C529   C531    1.400   .     A
C530   C540    1.405   .     A
C530   C532    1.399   .     A
C530   Cl566   1.769   .     S
C531   C533    1.413   .     A
C531   Cl567   1.770   .     S
C532   Cl568   1.768   .     S
C532   C534    1.410   .     A
C533   C535    1.414   .     A
C534   C536    1.413   .     A
C535   C569    1.508   .     S
C535   C537    1.395   .     A
C536   C573    1.510   .     S
C536   C538    1.395   .     A
C537   C539    1.395   .     A
C537   H543    1.084   .     S
C538   C540    1.397   .     A
C538   H544    1.084   .     S
C539   C732    1.462   1_545 S
C540   C731    1.462   .     S
Cu541  Cu542   2.674   .     S
Cu541  N554    2.009   .     S
Cu541  O558    1.952   .     S
Cu541  O555    1.952   .     S
Cu541  O559    1.977   .     S
Cu541  O562    1.976   .     S
Cu542  N553    2.009   .     S
Cu542  O557    1.952   .     S
Cu542  O556    1.952   .     S
Cu542  O560    1.977   .     S
Cu542  O561    1.976   .     S
Cl563  C399    1.773   1_655 S
C569   H570    1.111   .     S
C569   H571    1.108   .     S
C569   H572    1.111   .     S
C573   H576    1.111   .     S
C573   H574    1.111   .     S
C573   H575    1.110   .     S
C577   C597    1.462   .     S
C577   O621    1.292   .     A
C577   O619    1.291   .     A
C578   C598    1.458   .     S
C578   O622    1.290   .     A
C578   O620    1.291   .     A
C579   C581    1.406   .     A
C579   H609    1.081   .     S
C579   C587    1.412   .     A
C580   H610    1.081   .     S
C580   C582    1.406   .     A
C580   C588    1.411   .     A
C581   H611    1.079   .     S
C581   N617    1.362   .     A
C582   H612    1.081   .     S
C582   N618    1.364   .     A
C583   H613    1.081   .     S
C583   C585    1.407   .     A
C583   N617    1.363   .     A
C584   N618    1.364   .     A
C584   H614    1.081   .     S
C584   C586    1.406   .     A
C585   C587    1.412   .     A
C585   H615    1.081   .     S
C586   C588    1.411   .     A
C586   H616    1.081   .     S
C588   C203    1.517   1_556 S
C589   C591    1.431   .     S
C589   O625    1.290   .     A
C589   O623    1.281   .     A
C590   O624    1.282   .     A
C590   O626    1.291   .     A
C590   C592    1.436   .     S
C591   C720    1.355   1_455 S
C591   Cl755   1.773   1_455 S
C592   C655    1.355   .     S
C592   Cl692   1.778   .     S
C593   C603    1.404   .     A
C593   Cl629   1.769   .     S
C593   C595    1.400   .     A
C594   C604    1.405   .     A
C594   C596    1.399   .     A
C594   Cl630   1.769   .     S
C595   C597    1.413   .     A
C595   Cl631   1.770   .     S
C596   Cl632   1.768   .     S
C596   C598    1.410   .     A
C597   C599    1.414   .     A
C598   C600    1.413   .     A
C599   C633    1.508   .     S
C599   C601    1.395   .     A
C600   C637    1.510   .     S
C600   C602    1.395   .     A
C601   C603    1.395   .     A
C601   H607    1.084   .     S
C602   C604    1.397   .     A
C602   H608    1.084   .     S
C604   C411    1.462   1_565 S
Cu605  Cu606   2.674   .     S
Cu605  N618    2.009   .     S
Cu605  O622    1.952   .     S
Cu605  O619    1.952   .     S
Cu605  O623    1.977   .     S
Cu605  O626    1.976   .     S
Cu606  N617    2.009   .     S
Cu606  O621    1.952   .     S
Cu606  O620    1.952   .     S
Cu606  O624    1.977   .     S
Cu606  O625    1.976   .     S
Cl627  C655    1.773   .     S
Cl628  C720    1.778   1_455 S
C633   H634    1.111   .     S
C633   H635    1.108   .     S
C633   H636    1.111   .     S
C637   H640    1.111   .     S
C637   H638    1.111   .     S
C637   H639    1.110   .     S
C641   C661    1.462   .     S
C641   O685    1.292   .     A
C641   O683    1.291   .     A
C642   C662    1.458   .     S
C642   O686    1.290   .     A
C642   O684    1.291   .     A
C643   C645    1.406   .     A
C643   H673    1.081   .     S
C643   C651    1.412   .     A
C644   H674    1.081   .     S
C644   C646    1.406   .     A
C644   C652    1.411   .     A
C645   H675    1.079   .     S
C645   N681    1.362   .     A
C646   H676    1.081   .     S
C646   N682    1.364   .     A
C647   H677    1.081   .     S
C647   C649    1.407   .     A
C647   N681    1.363   .     A
C648   N682    1.364   .     A
C648   H678    1.081   .     S
C648   C650    1.406   .     A
C649   C651    1.412   .     A
C649   H679    1.081   .     S
C650   C652    1.411   .     A
C650   H680    1.081   .     S
C652   C267    1.517   1_556 S
C653   C655    1.431   .     S
C653   O689    1.290   .     A
C653   O687    1.281   .     A
C654   O688    1.282   .     A
C654   O690    1.291   .     A
C654   C656    1.436   .     S
C656   C719    1.355   .     S
C656   Cl756   1.778   .     S
C657   C667    1.404   .     A
C657   Cl693   1.769   .     S
C657   C659    1.400   .     A
C658   C668    1.405   .     A
C658   C660    1.399   .     A
C658   Cl694   1.769   .     S
C659   C661    1.413   .     A
C659   Cl695   1.770   .     S
C660   Cl696   1.768   .     S
C660   C662    1.410   .     A
C661   C663    1.414   .     A
C662   C664    1.413   .     A
C663   C697    1.508   .     S
C663   C665    1.395   .     A
C664   C701    1.510   .     S
C664   C666    1.395   .     A
C665   C667    1.395   .     A
C665   H671    1.084   .     S
C666   C668    1.397   .     A
C666   H672    1.084   .     S
C668   C475    1.462   1_565 S
Cu669  Cu670   2.674   .     S
Cu669  N682    2.009   .     S
Cu669  O686    1.952   .     S
Cu669  O683    1.952   .     S
Cu669  O687    1.977   .     S
Cu669  O690    1.976   .     S
Cu670  N681    2.009   .     S
Cu670  O685    1.952   .     S
Cu670  O684    1.952   .     S
Cu670  O688    1.977   .     S
Cu670  O689    1.976   .     S
Cl691  C719    1.773   .     S
C697   H698    1.111   .     S
C697   H699    1.108   .     S
C697   H700    1.111   .     S
C701   H704    1.111   .     S
C701   H702    1.111   .     S
C701   H703    1.110   .     S
C705   C725    1.462   .     S
C705   O749    1.292   .     A
C705   O747    1.291   .     A
C706   C726    1.458   .     S
C706   O750    1.290   .     A
C706   O748    1.291   .     A
C707   C709    1.406   .     A
C707   H737    1.081   .     S
C707   C715    1.412   .     A
C708   H738    1.081   .     S
C708   C710    1.406   .     A
C708   C716    1.411   .     A
C709   H739    1.079   .     S
C709   N745    1.362   .     A
C710   H740    1.081   .     S
C710   N746    1.364   .     A
C711   H741    1.081   .     S
C711   C713    1.407   .     A
C711   N745    1.363   .     A
C712   N746    1.364   .     A
C712   H742    1.081   .     S
C712   C714    1.406   .     A
C713   C715    1.412   .     A
C713   H743    1.081   .     S
C714   C716    1.411   .     A
C714   H744    1.081   .     S
C716   C331    1.517   1_556 S
C717   C719    1.431   .     S
C717   O753    1.290   .     A
C717   O751    1.281   .     A
C718   O752    1.282   .     A
C718   O754    1.291   .     A
C718   C720    1.436   .     S
C720   C591    1.355   1_655 S
C720   Cl628   1.778   1_655 S
C721   C731    1.404   .     A
C721   Cl757   1.769   .     S
C721   C723    1.400   .     A
C722   C732    1.405   .     A
C722   C724    1.399   .     A
C722   Cl758   1.769   .     S
C723   C725    1.413   .     A
C723   Cl759   1.770   .     S
C724   Cl760   1.768   .     S
C724   C726    1.410   .     A
C725   C727    1.414   .     A
C726   C728    1.413   .     A
C727   C761    1.508   .     S
C727   C729    1.395   .     A
C728   C765    1.510   .     S
C728   C730    1.395   .     A
C729   C731    1.395   .     A
C729   H735    1.084   .     S
C730   C732    1.397   .     A
C730   H736    1.084   .     S
C732   C539    1.462   1_565 S
Cu733  Cu734   2.674   .     S
Cu733  N746    2.009   .     S
Cu733  O750    1.952   .     S
Cu733  O747    1.952   .     S
Cu733  O751    1.977   .     S
Cu733  O754    1.976   .     S
Cu734  N745    2.009   .     S
Cu734  O749    1.952   .     S
Cu734  O748    1.952   .     S
Cu734  O752    1.977   .     S
Cu734  O753    1.976   .     S
Cl755  C591    1.773   1_655 S
C761   H762    1.111   .     S
C761   H763    1.108   .     S
C761   H764    1.111   .     S
C765   H768    1.111   .     S
C765   H766    1.111   .     S
C765   H767    1.110   .     S
