data_str_m2_o1_o2_pcu_sym.32
_audit_creation_date              2020-01-03
_audit_creation_method            'Materials Studio'
_symmetry_space_group_name_H-M    'P1'
_symmetry_Int_Tables_number       1
_symmetry_cell_setting            triclinic
loop_
_symmetry_equiv_pos_as_xyz
  x,y,z
_cell_length_a                    32.5602
_cell_length_b                    28.9445
_cell_length_c                    30.6626
_cell_angle_alpha                 89.1134
_cell_angle_beta                  94.6374
_cell_angle_gamma                 89.4927
loop_
_atom_site_label
_atom_site_type_symbol
_atom_site_fract_x
_atom_site_fract_y
_atom_site_fract_z
_atom_site_U_iso_or_equiv
_atom_site_adp_type
_atom_site_occupancy
O1     O     0.10655   0.20625   0.25000   0.00000  Uiso   1.00
O2     O     0.22679   0.12709   0.25001   0.00000  Uiso   1.00
O3     O     0.22679   0.20625   0.25001   0.00000  Uiso   1.00
O4     O     0.10655   0.12709   0.25000   0.00000  Uiso   1.00
N5     N     0.16667   0.28402   0.25000   0.00000  Uiso   1.00
N6     N     0.16667   0.04931   0.25000   0.00000  Uiso   1.00
C7     C     0.08767   0.16686   0.25401   0.00000  Uiso   1.00
C8     C     0.24554   0.16671   0.24581   0.00000  Uiso   1.00
O9     O     0.16666   0.20626   0.18573   0.00000  Uiso   1.00
O10    O     0.16667   0.12707   0.31427   0.00000  Uiso   1.00
O11    O     0.16667   0.20626   0.31427   0.00000  Uiso   1.00
O12    O     0.16666   0.12707   0.18573   0.00000  Uiso   1.00
C13    C     0.16929   0.16699   0.16520   0.00000  Uiso   1.00
C14    C     0.16414   0.16645   0.33491   0.00000  Uiso   1.00
Cu15   Cu    0.16667   0.21355   0.25000   0.00000  Uiso   1.00
Cu16   Cu    0.16667   0.11978   0.25000   0.00000  Uiso   1.00
C17    C     0.14106   0.02557   0.22053   0.00000  Uiso   1.00
C18    C     0.19498   0.30833   0.27692   0.00000  Uiso   1.00
C19    C     0.19168   0.02408   0.27995   0.00000  Uiso   1.00
C20    C     0.13791   0.30974   0.22358   0.00000  Uiso   1.00
C21    C     0.02087   0.12561   0.25865   0.00000  Uiso   1.00
C22    C     0.31185   0.20937   0.23989   0.00000  Uiso   1.00
C23    C     0.31284   0.12549   0.24230   0.00000  Uiso   1.00
C24    C     0.02018   0.20976   0.25573   0.00000  Uiso   1.00
C25    C     0.15496   0.20312   0.04490   0.00000  Uiso   1.00
C26    C     0.15922   0.12558   0.45402   0.00000  Uiso   1.00
C27    C     0.17589   0.20618   0.45287   0.00000  Uiso   1.00
C28    C     0.19146   0.13060   0.04959   0.00000  Uiso   1.00
H29    H     0.14039   0.23112   0.02526   0.00000  Uiso   1.00
H30    H     0.15261   0.09512   0.47312   0.00000  Uiso   1.00
H31    H     0.18370   0.23755   0.47042   0.00000  Uiso   1.00
H32    H     0.20638   0.10279   0.03333   0.00000  Uiso   1.00
C33    C     0.15752   0.20597   0.09022   0.00000  Uiso   1.00
C34    C     0.15340   0.12522   0.40821   0.00000  Uiso   1.00
C35    C     0.16906   0.20804   0.40745   0.00000  Uiso   1.00
C36    C     0.19286   0.13085   0.09542   0.00000  Uiso   1.00
C37    C     0.17349   0.16791   0.11689   0.00000  Uiso   1.00
C38    C     0.16115   0.16649   0.38358   0.00000  Uiso   1.00
C39    C     0.17208   0.16604   0.02436   0.00000  Uiso   1.00
C40    C     0.17055   0.16548   0.47628   0.00000  Uiso   1.00
C41    C     0.29036   0.16723   0.24096   0.00000  Uiso   1.00
C42    C     0.04260   0.16755   0.25794   0.00000  Uiso   1.00
C43    C     0.11697   0.05012   0.18377   0.00000  Uiso   1.00
O44    O     0.08629   0.07273   0.19011   0.00000  Uiso   1.00
O45    O     0.12665   0.04258   0.14090   0.00000  Uiso   1.00
H46    H     0.10761   0.06003   0.11845   0.00000  Uiso   1.00
C47    C     0.23173   0.28608   0.30179   0.00000  Uiso   1.00
O48    O     0.22922   0.25054   0.32292   0.00000  Uiso   1.00
O49    O     0.26975   0.30822   0.30316   0.00000  Uiso   1.00
H50    H     0.29163   0.29192   0.32334   0.00000  Uiso   1.00
C51    C     0.21436   0.04670   0.31771   0.00000  Uiso   1.00
O52    O     0.24292   0.07262   0.31256   0.00000  Uiso   1.00
O53    O     0.20575   0.03397   0.35999   0.00000  Uiso   1.00
H54    H     0.22405   0.05001   0.38332   0.00000  Uiso   1.00
C55    C     0.10091   0.28875   0.19951   0.00000  Uiso   1.00
O56    O     0.10284   0.25213   0.18106   0.00000  Uiso   1.00
O57    O     0.06314   0.31236   0.19659   0.00000  Uiso   1.00
H58    H     0.04142   0.29674   0.17654   0.00000  Uiso   1.00
C59    C     0.14527   0.25134   0.10631   0.00000  Uiso   1.00
O60    O     0.16995   0.27422   0.12887   0.00000  Uiso   1.00
O61    O     0.10683   0.27010   0.09134   0.00000  Uiso   1.00
H62    H     0.10230   0.30240   0.10232   0.00000  Uiso   1.00
C63    C     0.13488   0.08219   0.38966   0.00000  Uiso   1.00
O64    O     0.11580   0.08246   0.35392   0.00000  Uiso   1.00
O65    O     0.13678   0.04138   0.41491   0.00000  Uiso   1.00
H66    H     0.11937   0.01591   0.40100   0.00000  Uiso   1.00
C67    C     0.16756   0.25519   0.38781   0.00000  Uiso   1.00
O68    O     0.19411   0.28301   0.39946   0.00000  Uiso   1.00
O69    O     0.13447   0.26888   0.35843   0.00000  Uiso   1.00
H70    H     0.13778   0.30110   0.34590   0.00000  Uiso   1.00
C71    C     0.21962   0.09445   0.11771   0.00000  Uiso   1.00
O72    O     0.25432   0.08851   0.10603   0.00000  Uiso   1.00
O73    O     0.20484   0.06409   0.14830   0.00000  Uiso   1.00
H74    H     0.22447   0.03744   0.15636   0.00000  Uiso   1.00
C75    C     0.03225   0.09122   0.29552   0.00000  Uiso   1.00
C76    C     0.05313   0.04718   0.28133   0.00000  Uiso   1.00
H77    H     0.05079   0.01978   0.30671   0.00000  Uiso   1.00
H78    H     0.03837   0.03489   0.24999   0.00000  Uiso   1.00
H79    H     0.08620   0.05270   0.27805   0.00000  Uiso   1.00
H80    H     0.05163   0.10833   0.32165   0.00000  Uiso   1.00
H81    H     0.00406   0.08114   0.31146   0.00000  Uiso   1.00
C82    C     0.29381   0.25117   0.21396   0.00000  Uiso   1.00
C83    C     0.27959   0.23891   0.16683   0.00000  Uiso   1.00
H84    H     0.30551   0.22339   0.15047   0.00000  Uiso   1.00
H85    H     0.25367   0.21424   0.16582   0.00000  Uiso   1.00
H86    H     0.26888   0.27071   0.14844   0.00000  Uiso   1.00
H87    H     0.26819   0.26748   0.22953   0.00000  Uiso   1.00
H88    H     0.31735   0.27819   0.21170   0.00000  Uiso   1.00
C89    C     0.30091   0.08962   0.20836   0.00000  Uiso   1.00
C90    C     0.28479   0.04493   0.22684   0.00000  Uiso   1.00
H91    H     0.30251   0.03403   0.25752   0.00000  Uiso   1.00
H92    H     0.25202   0.04889   0.23257   0.00000  Uiso   1.00
H93    H     0.28695   0.01745   0.20237   0.00000  Uiso   1.00
H94    H     0.27731   0.10433   0.18402   0.00000  Uiso   1.00
H95    H     0.32803   0.08129   0.18991   0.00000  Uiso   1.00
C96    C     0.03594   0.25147   0.28166   0.00000  Uiso   1.00
C97    C     0.04273   0.23928   0.33039   0.00000  Uiso   1.00
H98    H     0.01407   0.22504   0.34242   0.00000  Uiso   1.00
H99    H     0.06800   0.21338   0.33643   0.00000  Uiso   1.00
H100   H     0.05107   0.27083   0.34910   0.00000  Uiso   1.00
H101   H     0.06448   0.26570   0.27032   0.00000  Uiso   1.00
H102   H     0.01339   0.28043   0.27869   0.00000  Uiso   1.00
O103   O     0.43988   0.20625   0.25000   0.00000  Uiso   1.00
O104   O     0.56012   0.12709   0.25001   0.00000  Uiso   1.00
O105   O     0.56012   0.20625   0.25001   0.00000  Uiso   1.00
O106   O     0.43988   0.12709   0.25000   0.00000  Uiso   1.00
N107   N     0.50000   0.28402   0.25000   0.00000  Uiso   1.00
N108   N     0.50000   0.04931   0.25000   0.00000  Uiso   1.00
C109   C     0.42101   0.16686   0.25401   0.00000  Uiso   1.00
C110   C     0.57887   0.16671   0.24581   0.00000  Uiso   1.00
O111   O     0.50000   0.20626   0.18573   0.00000  Uiso   1.00
O112   O     0.50000   0.12707   0.31427   0.00000  Uiso   1.00
O113   O     0.50000   0.20626   0.31427   0.00000  Uiso   1.00
O114   O     0.50000   0.12707   0.18573   0.00000  Uiso   1.00
C115   C     0.50262   0.16699   0.16520   0.00000  Uiso   1.00
C116   C     0.49747   0.16645   0.33491   0.00000  Uiso   1.00
Cu117  Cu    0.50000   0.21355   0.25000   0.00000  Uiso   1.00
Cu118  Cu    0.50000   0.11978   0.25000   0.00000  Uiso   1.00
C119   C     0.47439   0.02557   0.22053   0.00000  Uiso   1.00
C120   C     0.52831   0.30833   0.27692   0.00000  Uiso   1.00
C121   C     0.52502   0.02408   0.27995   0.00000  Uiso   1.00
C122   C     0.47125   0.30974   0.22358   0.00000  Uiso   1.00
C123   C     0.35420   0.12561   0.25865   0.00000  Uiso   1.00
C124   C     0.64518   0.20937   0.23989   0.00000  Uiso   1.00
C125   C     0.64617   0.12549   0.24230   0.00000  Uiso   1.00
C126   C     0.35352   0.20976   0.25573   0.00000  Uiso   1.00
C127   C     0.48830   0.20312   0.04490   0.00000  Uiso   1.00
C128   C     0.49255   0.12558   0.45402   0.00000  Uiso   1.00
C129   C     0.50922   0.20618   0.45287   0.00000  Uiso   1.00
C130   C     0.52479   0.13060   0.04959   0.00000  Uiso   1.00
H131   H     0.47373   0.23112   0.02526   0.00000  Uiso   1.00
H132   H     0.48594   0.09512   0.47312   0.00000  Uiso   1.00
H133   H     0.51703   0.23755   0.47042   0.00000  Uiso   1.00
H134   H     0.53972   0.10279   0.03333   0.00000  Uiso   1.00
C135   C     0.49085   0.20597   0.09022   0.00000  Uiso   1.00
C136   C     0.48673   0.12522   0.40821   0.00000  Uiso   1.00
C137   C     0.50239   0.20804   0.40745   0.00000  Uiso   1.00
C138   C     0.52620   0.13085   0.09542   0.00000  Uiso   1.00
C139   C     0.50682   0.16791   0.11689   0.00000  Uiso   1.00
C140   C     0.49448   0.16649   0.38358   0.00000  Uiso   1.00
C141   C     0.50541   0.16604   0.02436   0.00000  Uiso   1.00
C142   C     0.50389   0.16548   0.47628   0.00000  Uiso   1.00
C143   C     0.62370   0.16723   0.24096   0.00000  Uiso   1.00
C144   C     0.37593   0.16755   0.25794   0.00000  Uiso   1.00
C145   C     0.45031   0.05012   0.18377   0.00000  Uiso   1.00
O146   O     0.41962   0.07273   0.19011   0.00000  Uiso   1.00
O147   O     0.45998   0.04258   0.14090   0.00000  Uiso   1.00
H148   H     0.44094   0.06003   0.11845   0.00000  Uiso   1.00
C149   C     0.56506   0.28608   0.30179   0.00000  Uiso   1.00
O150   O     0.56256   0.25054   0.32292   0.00000  Uiso   1.00
O151   O     0.60308   0.30822   0.30316   0.00000  Uiso   1.00
H152   H     0.62497   0.29192   0.32334   0.00000  Uiso   1.00
C153   C     0.54769   0.04670   0.31771   0.00000  Uiso   1.00
O154   O     0.57626   0.07262   0.31256   0.00000  Uiso   1.00
O155   O     0.53909   0.03397   0.35999   0.00000  Uiso   1.00
H156   H     0.55739   0.05001   0.38332   0.00000  Uiso   1.00
C157   C     0.43425   0.28875   0.19951   0.00000  Uiso   1.00
O158   O     0.43617   0.25213   0.18106   0.00000  Uiso   1.00
O159   O     0.39648   0.31236   0.19659   0.00000  Uiso   1.00
H160   H     0.37475   0.29674   0.17654   0.00000  Uiso   1.00
C161   C     0.47860   0.25134   0.10631   0.00000  Uiso   1.00
O162   O     0.50328   0.27422   0.12887   0.00000  Uiso   1.00
O163   O     0.44017   0.27010   0.09134   0.00000  Uiso   1.00
H164   H     0.43563   0.30240   0.10232   0.00000  Uiso   1.00
C165   C     0.46822   0.08219   0.38966   0.00000  Uiso   1.00
O166   O     0.44913   0.08246   0.35392   0.00000  Uiso   1.00
O167   O     0.47011   0.04138   0.41491   0.00000  Uiso   1.00
H168   H     0.45270   0.01591   0.40100   0.00000  Uiso   1.00
C169   C     0.50090   0.25519   0.38781   0.00000  Uiso   1.00
O170   O     0.52744   0.28301   0.39946   0.00000  Uiso   1.00
O171   O     0.46780   0.26888   0.35843   0.00000  Uiso   1.00
H172   H     0.47111   0.30110   0.34590   0.00000  Uiso   1.00
C173   C     0.55296   0.09445   0.11771   0.00000  Uiso   1.00
O174   O     0.58765   0.08851   0.10603   0.00000  Uiso   1.00
O175   O     0.53817   0.06409   0.14830   0.00000  Uiso   1.00
H176   H     0.55781   0.03744   0.15636   0.00000  Uiso   1.00
C177   C     0.36558   0.09122   0.29552   0.00000  Uiso   1.00
C178   C     0.38646   0.04718   0.28133   0.00000  Uiso   1.00
H179   H     0.38412   0.01978   0.30671   0.00000  Uiso   1.00
H180   H     0.37170   0.03489   0.24999   0.00000  Uiso   1.00
H181   H     0.41954   0.05270   0.27805   0.00000  Uiso   1.00
H182   H     0.38496   0.10833   0.32165   0.00000  Uiso   1.00
H183   H     0.33740   0.08114   0.31146   0.00000  Uiso   1.00
C184   C     0.62714   0.25117   0.21396   0.00000  Uiso   1.00
C185   C     0.61293   0.23891   0.16683   0.00000  Uiso   1.00
H186   H     0.63884   0.22339   0.15047   0.00000  Uiso   1.00
H187   H     0.58701   0.21424   0.16582   0.00000  Uiso   1.00
H188   H     0.60222   0.27071   0.14844   0.00000  Uiso   1.00
H189   H     0.60152   0.26748   0.22953   0.00000  Uiso   1.00
H190   H     0.65069   0.27819   0.21170   0.00000  Uiso   1.00
C191   C     0.63425   0.08962   0.20836   0.00000  Uiso   1.00
C192   C     0.61812   0.04493   0.22684   0.00000  Uiso   1.00
H193   H     0.63584   0.03403   0.25752   0.00000  Uiso   1.00
H194   H     0.58535   0.04889   0.23257   0.00000  Uiso   1.00
H195   H     0.62029   0.01745   0.20237   0.00000  Uiso   1.00
H196   H     0.61065   0.10433   0.18402   0.00000  Uiso   1.00
H197   H     0.66136   0.08129   0.18991   0.00000  Uiso   1.00
C198   C     0.36927   0.25147   0.28166   0.00000  Uiso   1.00
C199   C     0.37606   0.23928   0.33039   0.00000  Uiso   1.00
H200   H     0.34740   0.22504   0.34242   0.00000  Uiso   1.00
H201   H     0.40133   0.21338   0.33643   0.00000  Uiso   1.00
H202   H     0.38440   0.27083   0.34910   0.00000  Uiso   1.00
H203   H     0.39782   0.26570   0.27032   0.00000  Uiso   1.00
H204   H     0.34673   0.28043   0.27869   0.00000  Uiso   1.00
O205   O     0.77321   0.20625   0.25000   0.00000  Uiso   1.00
O206   O     0.89345   0.12709   0.25001   0.00000  Uiso   1.00
O207   O     0.89345   0.20625   0.25001   0.00000  Uiso   1.00
O208   O     0.77321   0.12709   0.25000   0.00000  Uiso   1.00
N209   N     0.83333   0.28402   0.25000   0.00000  Uiso   1.00
N210   N     0.83333   0.04931   0.25000   0.00000  Uiso   1.00
C211   C     0.75434   0.16686   0.25401   0.00000  Uiso   1.00
C212   C     0.91221   0.16671   0.24581   0.00000  Uiso   1.00
O213   O     0.83333   0.20626   0.18573   0.00000  Uiso   1.00
O214   O     0.83334   0.12707   0.31427   0.00000  Uiso   1.00
O215   O     0.83334   0.20626   0.31427   0.00000  Uiso   1.00
O216   O     0.83333   0.12707   0.18573   0.00000  Uiso   1.00
C217   C     0.83596   0.16699   0.16520   0.00000  Uiso   1.00
C218   C     0.83081   0.16645   0.33491   0.00000  Uiso   1.00
Cu219  Cu    0.83333   0.21355   0.25000   0.00000  Uiso   1.00
Cu220  Cu    0.83333   0.11978   0.25000   0.00000  Uiso   1.00
C221   C     0.80773   0.02557   0.22053   0.00000  Uiso   1.00
C222   C     0.86165   0.30833   0.27692   0.00000  Uiso   1.00
C223   C     0.85835   0.02408   0.27995   0.00000  Uiso   1.00
C224   C     0.80458   0.30974   0.22358   0.00000  Uiso   1.00
C225   C     0.68753   0.12561   0.25865   0.00000  Uiso   1.00
C226   C     0.97852   0.20937   0.23989   0.00000  Uiso   1.00
C227   C     0.97951   0.12549   0.24230   0.00000  Uiso   1.00
C228   C     0.68685   0.20976   0.25573   0.00000  Uiso   1.00
C229   C     0.82163   0.20312   0.04490   0.00000  Uiso   1.00
C230   C     0.82589   0.12558   0.45402   0.00000  Uiso   1.00
C231   C     0.84255   0.20618   0.45287   0.00000  Uiso   1.00
C232   C     0.85813   0.13060   0.04959   0.00000  Uiso   1.00
H233   H     0.80706   0.23112   0.02526   0.00000  Uiso   1.00
H234   H     0.81927   0.09512   0.47312   0.00000  Uiso   1.00
H235   H     0.85037   0.23755   0.47042   0.00000  Uiso   1.00
H236   H     0.87305   0.10279   0.03333   0.00000  Uiso   1.00
C237   C     0.82418   0.20597   0.09022   0.00000  Uiso   1.00
C238   C     0.82007   0.12522   0.40821   0.00000  Uiso   1.00
C239   C     0.83572   0.20804   0.40745   0.00000  Uiso   1.00
C240   C     0.85953   0.13085   0.09542   0.00000  Uiso   1.00
C241   C     0.84016   0.16791   0.11689   0.00000  Uiso   1.00
C242   C     0.82782   0.16649   0.38358   0.00000  Uiso   1.00
C243   C     0.83875   0.16604   0.02436   0.00000  Uiso   1.00
C244   C     0.83722   0.16548   0.47628   0.00000  Uiso   1.00
C245   C     0.95703   0.16723   0.24096   0.00000  Uiso   1.00
C246   C     0.70926   0.16755   0.25794   0.00000  Uiso   1.00
C247   C     0.78364   0.05012   0.18377   0.00000  Uiso   1.00
O248   O     0.75295   0.07273   0.19011   0.00000  Uiso   1.00
O249   O     0.79332   0.04258   0.14090   0.00000  Uiso   1.00
H250   H     0.77428   0.06003   0.11845   0.00000  Uiso   1.00
C251   C     0.89839   0.28608   0.30179   0.00000  Uiso   1.00
O252   O     0.89589   0.25054   0.32292   0.00000  Uiso   1.00
O253   O     0.93642   0.30822   0.30316   0.00000  Uiso   1.00
H254   H     0.95830   0.29192   0.32334   0.00000  Uiso   1.00
C255   C     0.88103   0.04670   0.31771   0.00000  Uiso   1.00
O256   O     0.90959   0.07262   0.31256   0.00000  Uiso   1.00
O257   O     0.87242   0.03397   0.35999   0.00000  Uiso   1.00
H258   H     0.89072   0.05001   0.38332   0.00000  Uiso   1.00
C259   C     0.76758   0.28875   0.19951   0.00000  Uiso   1.00
O260   O     0.76951   0.25213   0.18106   0.00000  Uiso   1.00
O261   O     0.72981   0.31236   0.19659   0.00000  Uiso   1.00
H262   H     0.70809   0.29674   0.17654   0.00000  Uiso   1.00
C263   C     0.81194   0.25134   0.10631   0.00000  Uiso   1.00
O264   O     0.83661   0.27422   0.12887   0.00000  Uiso   1.00
O265   O     0.77350   0.27010   0.09134   0.00000  Uiso   1.00
H266   H     0.76896   0.30240   0.10232   0.00000  Uiso   1.00
C267   C     0.80155   0.08219   0.38966   0.00000  Uiso   1.00
O268   O     0.78247   0.08246   0.35392   0.00000  Uiso   1.00
O269   O     0.80344   0.04138   0.41491   0.00000  Uiso   1.00
H270   H     0.78603   0.01591   0.40100   0.00000  Uiso   1.00
C271   C     0.83423   0.25519   0.38781   0.00000  Uiso   1.00
O272   O     0.86078   0.28301   0.39946   0.00000  Uiso   1.00
O273   O     0.80113   0.26888   0.35843   0.00000  Uiso   1.00
H274   H     0.80445   0.30110   0.34590   0.00000  Uiso   1.00
C275   C     0.88629   0.09445   0.11771   0.00000  Uiso   1.00
O276   O     0.92099   0.08851   0.10603   0.00000  Uiso   1.00
O277   O     0.87150   0.06409   0.14830   0.00000  Uiso   1.00
H278   H     0.89114   0.03744   0.15636   0.00000  Uiso   1.00
C279   C     0.69891   0.09122   0.29552   0.00000  Uiso   1.00
C280   C     0.71980   0.04718   0.28133   0.00000  Uiso   1.00
H281   H     0.71745   0.01978   0.30671   0.00000  Uiso   1.00
H282   H     0.70503   0.03489   0.24999   0.00000  Uiso   1.00
H283   H     0.75287   0.05270   0.27805   0.00000  Uiso   1.00
H284   H     0.71830   0.10833   0.32165   0.00000  Uiso   1.00
H285   H     0.67073   0.08114   0.31146   0.00000  Uiso   1.00
C286   C     0.96047   0.25117   0.21396   0.00000  Uiso   1.00
C287   C     0.94626   0.23891   0.16683   0.00000  Uiso   1.00
H288   H     0.97218   0.22339   0.15047   0.00000  Uiso   1.00
H289   H     0.92034   0.21424   0.16582   0.00000  Uiso   1.00
H290   H     0.93555   0.27071   0.14844   0.00000  Uiso   1.00
H291   H     0.93485   0.26748   0.22953   0.00000  Uiso   1.00
H292   H     0.98402   0.27819   0.21170   0.00000  Uiso   1.00
C293   C     0.96758   0.08962   0.20836   0.00000  Uiso   1.00
C294   C     0.95146   0.04493   0.22684   0.00000  Uiso   1.00
H295   H     0.96917   0.03403   0.25752   0.00000  Uiso   1.00
H296   H     0.91869   0.04889   0.23257   0.00000  Uiso   1.00
H297   H     0.95362   0.01745   0.20237   0.00000  Uiso   1.00
H298   H     0.94398   0.10433   0.18402   0.00000  Uiso   1.00
H299   H     0.99469   0.08129   0.18991   0.00000  Uiso   1.00
C300   C     0.70260   0.25147   0.28166   0.00000  Uiso   1.00
C301   C     0.70939   0.23928   0.33039   0.00000  Uiso   1.00
H302   H     0.68073   0.22504   0.34242   0.00000  Uiso   1.00
H303   H     0.73467   0.21338   0.33643   0.00000  Uiso   1.00
H304   H     0.71773   0.27083   0.34910   0.00000  Uiso   1.00
H305   H     0.73115   0.26570   0.27032   0.00000  Uiso   1.00
H306   H     0.68006   0.28043   0.27869   0.00000  Uiso   1.00
O307   O     0.10655   0.53958   0.25000   0.00000  Uiso   1.00
O308   O     0.22679   0.46042   0.25001   0.00000  Uiso   1.00
O309   O     0.22679   0.53958   0.25001   0.00000  Uiso   1.00
O310   O     0.10655   0.46042   0.25000   0.00000  Uiso   1.00
N311   N     0.16667   0.61736   0.25000   0.00000  Uiso   1.00
N312   N     0.16667   0.38264   0.25000   0.00000  Uiso   1.00
C313   C     0.08767   0.50019   0.25401   0.00000  Uiso   1.00
C314   C     0.24554   0.50005   0.24581   0.00000  Uiso   1.00
O315   O     0.16666   0.53959   0.18573   0.00000  Uiso   1.00
O316   O     0.16667   0.46041   0.31427   0.00000  Uiso   1.00
O317   O     0.16667   0.53959   0.31427   0.00000  Uiso   1.00
O318   O     0.16666   0.46041   0.18573   0.00000  Uiso   1.00
C319   C     0.16929   0.50033   0.16520   0.00000  Uiso   1.00
C320   C     0.16414   0.49978   0.33491   0.00000  Uiso   1.00
Cu321  Cu    0.16667   0.54689   0.25000   0.00000  Uiso   1.00
Cu322  Cu    0.16667   0.45311   0.25000   0.00000  Uiso   1.00
C323   C     0.14106   0.35890   0.22053   0.00000  Uiso   1.00
C324   C     0.19498   0.64166   0.27692   0.00000  Uiso   1.00
C325   C     0.19168   0.35741   0.27995   0.00000  Uiso   1.00
C326   C     0.13791   0.64308   0.22358   0.00000  Uiso   1.00
C327   C     0.02087   0.45894   0.25865   0.00000  Uiso   1.00
C328   C     0.31185   0.54270   0.23989   0.00000  Uiso   1.00
C329   C     0.31284   0.45883   0.24230   0.00000  Uiso   1.00
C330   C     0.02018   0.54309   0.25573   0.00000  Uiso   1.00
C331   C     0.15496   0.53645   0.04490   0.00000  Uiso   1.00
C332   C     0.15922   0.45892   0.45402   0.00000  Uiso   1.00
C333   C     0.17589   0.53951   0.45287   0.00000  Uiso   1.00
C334   C     0.19146   0.46393   0.04959   0.00000  Uiso   1.00
H335   H     0.14039   0.56446   0.02526   0.00000  Uiso   1.00
H336   H     0.15261   0.42846   0.47312   0.00000  Uiso   1.00
H337   H     0.18370   0.57089   0.47042   0.00000  Uiso   1.00
H338   H     0.20638   0.43612   0.03333   0.00000  Uiso   1.00
C339   C     0.15752   0.53930   0.09022   0.00000  Uiso   1.00
C340   C     0.15340   0.45855   0.40821   0.00000  Uiso   1.00
C341   C     0.16906   0.54138   0.40745   0.00000  Uiso   1.00
C342   C     0.19286   0.46418   0.09542   0.00000  Uiso   1.00
C343   C     0.17349   0.50125   0.11689   0.00000  Uiso   1.00
C344   C     0.16115   0.49982   0.38358   0.00000  Uiso   1.00
C345   C     0.17208   0.49937   0.02436   0.00000  Uiso   1.00
C346   C     0.17055   0.49881   0.47628   0.00000  Uiso   1.00
C347   C     0.29036   0.50056   0.24096   0.00000  Uiso   1.00
C348   C     0.04260   0.50089   0.25794   0.00000  Uiso   1.00
C349   C     0.11697   0.38346   0.18377   0.00000  Uiso   1.00
O350   O     0.08629   0.40607   0.19011   0.00000  Uiso   1.00
O351   O     0.12665   0.37591   0.14090   0.00000  Uiso   1.00
H352   H     0.10761   0.39336   0.11845   0.00000  Uiso   1.00
C353   C     0.23173   0.61942   0.30179   0.00000  Uiso   1.00
O354   O     0.22922   0.58388   0.32292   0.00000  Uiso   1.00
O355   O     0.26975   0.64155   0.30316   0.00000  Uiso   1.00
H356   H     0.29163   0.62526   0.32334   0.00000  Uiso   1.00
C357   C     0.21436   0.38004   0.31771   0.00000  Uiso   1.00
O358   O     0.24292   0.40595   0.31256   0.00000  Uiso   1.00
O359   O     0.20575   0.36730   0.35999   0.00000  Uiso   1.00
H360   H     0.22405   0.38335   0.38332   0.00000  Uiso   1.00
C361   C     0.10091   0.62208   0.19951   0.00000  Uiso   1.00
O362   O     0.10284   0.58547   0.18106   0.00000  Uiso   1.00
O363   O     0.06314   0.64569   0.19659   0.00000  Uiso   1.00
H364   H     0.04142   0.63008   0.17654   0.00000  Uiso   1.00
C365   C     0.14527   0.58468   0.10631   0.00000  Uiso   1.00
O366   O     0.16995   0.60756   0.12887   0.00000  Uiso   1.00
O367   O     0.10683   0.60343   0.09134   0.00000  Uiso   1.00
H368   H     0.10230   0.63573   0.10232   0.00000  Uiso   1.00
C369   C     0.13488   0.41552   0.38966   0.00000  Uiso   1.00
O370   O     0.11580   0.41579   0.35392   0.00000  Uiso   1.00
O371   O     0.13678   0.37472   0.41491   0.00000  Uiso   1.00
H372   H     0.11937   0.34924   0.40100   0.00000  Uiso   1.00
C373   C     0.16756   0.58852   0.38781   0.00000  Uiso   1.00
O374   O     0.19411   0.61634   0.39946   0.00000  Uiso   1.00
O375   O     0.13447   0.60221   0.35843   0.00000  Uiso   1.00
H376   H     0.13778   0.63443   0.34590   0.00000  Uiso   1.00
C377   C     0.21962   0.42778   0.11771   0.00000  Uiso   1.00
O378   O     0.25432   0.42185   0.10603   0.00000  Uiso   1.00
O379   O     0.20484   0.39743   0.14830   0.00000  Uiso   1.00
H380   H     0.22447   0.37077   0.15636   0.00000  Uiso   1.00
C381   C     0.03225   0.42456   0.29552   0.00000  Uiso   1.00
C382   C     0.05313   0.38052   0.28133   0.00000  Uiso   1.00
H383   H     0.05079   0.35311   0.30671   0.00000  Uiso   1.00
H384   H     0.03837   0.36823   0.24999   0.00000  Uiso   1.00
H385   H     0.08620   0.38604   0.27805   0.00000  Uiso   1.00
H386   H     0.05163   0.44167   0.32165   0.00000  Uiso   1.00
H387   H     0.00406   0.41447   0.31146   0.00000  Uiso   1.00
C388   C     0.29381   0.58451   0.21396   0.00000  Uiso   1.00
C389   C     0.27959   0.57224   0.16683   0.00000  Uiso   1.00
H390   H     0.30551   0.55673   0.15047   0.00000  Uiso   1.00
H391   H     0.25367   0.54757   0.16582   0.00000  Uiso   1.00
H392   H     0.26888   0.60405   0.14844   0.00000  Uiso   1.00
H393   H     0.26819   0.60082   0.22953   0.00000  Uiso   1.00
H394   H     0.31735   0.61152   0.21170   0.00000  Uiso   1.00
C395   C     0.30091   0.42295   0.20836   0.00000  Uiso   1.00
C396   C     0.28479   0.37826   0.22684   0.00000  Uiso   1.00
H397   H     0.30251   0.36736   0.25752   0.00000  Uiso   1.00
H398   H     0.25202   0.38223   0.23257   0.00000  Uiso   1.00
H399   H     0.28695   0.35079   0.20237   0.00000  Uiso   1.00
H400   H     0.27731   0.43766   0.18402   0.00000  Uiso   1.00
H401   H     0.32803   0.41462   0.18991   0.00000  Uiso   1.00
C402   C     0.03594   0.58480   0.28166   0.00000  Uiso   1.00
C403   C     0.04273   0.57261   0.33039   0.00000  Uiso   1.00
H404   H     0.01407   0.55837   0.34242   0.00000  Uiso   1.00
H405   H     0.06800   0.54671   0.33643   0.00000  Uiso   1.00
H406   H     0.05107   0.60417   0.34910   0.00000  Uiso   1.00
H407   H     0.06448   0.59903   0.27032   0.00000  Uiso   1.00
H408   H     0.01339   0.61376   0.27869   0.00000  Uiso   1.00
O409   O     0.43988   0.53958   0.25000   0.00000  Uiso   1.00
O410   O     0.56012   0.46042   0.25001   0.00000  Uiso   1.00
O411   O     0.56012   0.53958   0.25001   0.00000  Uiso   1.00
O412   O     0.43988   0.46042   0.25000   0.00000  Uiso   1.00
N413   N     0.50000   0.61736   0.25000   0.00000  Uiso   1.00
N414   N     0.50000   0.38264   0.25000   0.00000  Uiso   1.00
C415   C     0.42101   0.50019   0.25401   0.00000  Uiso   1.00
C416   C     0.57887   0.50005   0.24581   0.00000  Uiso   1.00
O417   O     0.50000   0.53959   0.18573   0.00000  Uiso   1.00
O418   O     0.50000   0.46041   0.31427   0.00000  Uiso   1.00
O419   O     0.50000   0.53959   0.31427   0.00000  Uiso   1.00
O420   O     0.50000   0.46041   0.18573   0.00000  Uiso   1.00
C421   C     0.50262   0.50033   0.16520   0.00000  Uiso   1.00
C422   C     0.49747   0.49978   0.33491   0.00000  Uiso   1.00
Cu423  Cu    0.50000   0.54689   0.25000   0.00000  Uiso   1.00
Cu424  Cu    0.50000   0.45311   0.25000   0.00000  Uiso   1.00
C425   C     0.47439   0.35890   0.22053   0.00000  Uiso   1.00
C426   C     0.52831   0.64166   0.27692   0.00000  Uiso   1.00
C427   C     0.52502   0.35741   0.27995   0.00000  Uiso   1.00
C428   C     0.47125   0.64308   0.22358   0.00000  Uiso   1.00
C429   C     0.35420   0.45894   0.25865   0.00000  Uiso   1.00
C430   C     0.64518   0.54270   0.23989   0.00000  Uiso   1.00
C431   C     0.64617   0.45883   0.24230   0.00000  Uiso   1.00
C432   C     0.35352   0.54309   0.25573   0.00000  Uiso   1.00
C433   C     0.48830   0.53645   0.04490   0.00000  Uiso   1.00
C434   C     0.49255   0.45892   0.45402   0.00000  Uiso   1.00
C435   C     0.50922   0.53951   0.45287   0.00000  Uiso   1.00
C436   C     0.52479   0.46393   0.04959   0.00000  Uiso   1.00
H437   H     0.47373   0.56446   0.02526   0.00000  Uiso   1.00
H438   H     0.48594   0.42846   0.47312   0.00000  Uiso   1.00
H439   H     0.51703   0.57089   0.47042   0.00000  Uiso   1.00
H440   H     0.53972   0.43612   0.03333   0.00000  Uiso   1.00
C441   C     0.49085   0.53930   0.09022   0.00000  Uiso   1.00
C442   C     0.48673   0.45855   0.40821   0.00000  Uiso   1.00
C443   C     0.50239   0.54138   0.40745   0.00000  Uiso   1.00
C444   C     0.52620   0.46418   0.09542   0.00000  Uiso   1.00
C445   C     0.50682   0.50125   0.11689   0.00000  Uiso   1.00
C446   C     0.49448   0.49982   0.38358   0.00000  Uiso   1.00
C447   C     0.50541   0.49937   0.02436   0.00000  Uiso   1.00
C448   C     0.50389   0.49881   0.47628   0.00000  Uiso   1.00
C449   C     0.62370   0.50056   0.24096   0.00000  Uiso   1.00
C450   C     0.37593   0.50089   0.25794   0.00000  Uiso   1.00
C451   C     0.45031   0.38346   0.18377   0.00000  Uiso   1.00
O452   O     0.41962   0.40607   0.19011   0.00000  Uiso   1.00
O453   O     0.45998   0.37591   0.14090   0.00000  Uiso   1.00
H454   H     0.44094   0.39336   0.11845   0.00000  Uiso   1.00
C455   C     0.56506   0.61942   0.30179   0.00000  Uiso   1.00
O456   O     0.56256   0.58388   0.32292   0.00000  Uiso   1.00
O457   O     0.60308   0.64155   0.30316   0.00000  Uiso   1.00
H458   H     0.62497   0.62526   0.32334   0.00000  Uiso   1.00
C459   C     0.54769   0.38004   0.31771   0.00000  Uiso   1.00
O460   O     0.57626   0.40595   0.31256   0.00000  Uiso   1.00
O461   O     0.53909   0.36730   0.35999   0.00000  Uiso   1.00
H462   H     0.55739   0.38335   0.38332   0.00000  Uiso   1.00
C463   C     0.43425   0.62208   0.19951   0.00000  Uiso   1.00
O464   O     0.43617   0.58547   0.18106   0.00000  Uiso   1.00
O465   O     0.39648   0.64569   0.19659   0.00000  Uiso   1.00
H466   H     0.37475   0.63008   0.17654   0.00000  Uiso   1.00
C467   C     0.47860   0.58468   0.10631   0.00000  Uiso   1.00
O468   O     0.50328   0.60756   0.12887   0.00000  Uiso   1.00
O469   O     0.44017   0.60343   0.09134   0.00000  Uiso   1.00
H470   H     0.43563   0.63573   0.10232   0.00000  Uiso   1.00
C471   C     0.46822   0.41552   0.38966   0.00000  Uiso   1.00
O472   O     0.44913   0.41579   0.35392   0.00000  Uiso   1.00
O473   O     0.47011   0.37472   0.41491   0.00000  Uiso   1.00
H474   H     0.45270   0.34924   0.40100   0.00000  Uiso   1.00
C475   C     0.50090   0.58852   0.38781   0.00000  Uiso   1.00
O476   O     0.52744   0.61634   0.39946   0.00000  Uiso   1.00
O477   O     0.46780   0.60221   0.35843   0.00000  Uiso   1.00
H478   H     0.47111   0.63443   0.34590   0.00000  Uiso   1.00
C479   C     0.55296   0.42778   0.11771   0.00000  Uiso   1.00
O480   O     0.58765   0.42185   0.10603   0.00000  Uiso   1.00
O481   O     0.53817   0.39743   0.14830   0.00000  Uiso   1.00
H482   H     0.55781   0.37077   0.15636   0.00000  Uiso   1.00
C483   C     0.36558   0.42456   0.29552   0.00000  Uiso   1.00
C484   C     0.38646   0.38052   0.28133   0.00000  Uiso   1.00
H485   H     0.38412   0.35311   0.30671   0.00000  Uiso   1.00
H486   H     0.37170   0.36823   0.24999   0.00000  Uiso   1.00
H487   H     0.41954   0.38604   0.27805   0.00000  Uiso   1.00
H488   H     0.38496   0.44167   0.32165   0.00000  Uiso   1.00
H489   H     0.33740   0.41447   0.31146   0.00000  Uiso   1.00
C490   C     0.62714   0.58451   0.21396   0.00000  Uiso   1.00
C491   C     0.61293   0.57224   0.16683   0.00000  Uiso   1.00
H492   H     0.63884   0.55673   0.15047   0.00000  Uiso   1.00
H493   H     0.58701   0.54757   0.16582   0.00000  Uiso   1.00
H494   H     0.60222   0.60405   0.14844   0.00000  Uiso   1.00
H495   H     0.60152   0.60082   0.22953   0.00000  Uiso   1.00
H496   H     0.65069   0.61152   0.21170   0.00000  Uiso   1.00
C497   C     0.63425   0.42295   0.20836   0.00000  Uiso   1.00
C498   C     0.61812   0.37826   0.22684   0.00000  Uiso   1.00
H499   H     0.63584   0.36736   0.25752   0.00000  Uiso   1.00
H500   H     0.58535   0.38223   0.23257   0.00000  Uiso   1.00
H501   H     0.62029   0.35079   0.20237   0.00000  Uiso   1.00
H502   H     0.61065   0.43766   0.18402   0.00000  Uiso   1.00
H503   H     0.66136   0.41462   0.18991   0.00000  Uiso   1.00
C504   C     0.36927   0.58480   0.28166   0.00000  Uiso   1.00
C505   C     0.37606   0.57261   0.33039   0.00000  Uiso   1.00
H506   H     0.34740   0.55837   0.34242   0.00000  Uiso   1.00
H507   H     0.40133   0.54671   0.33643   0.00000  Uiso   1.00
H508   H     0.38440   0.60417   0.34910   0.00000  Uiso   1.00
H509   H     0.39782   0.59903   0.27032   0.00000  Uiso   1.00
H510   H     0.34673   0.61376   0.27869   0.00000  Uiso   1.00
O511   O     0.77321   0.53958   0.25000   0.00000  Uiso   1.00
O512   O     0.89345   0.46042   0.25001   0.00000  Uiso   1.00
O513   O     0.89345   0.53958   0.25001   0.00000  Uiso   1.00
O514   O     0.77321   0.46042   0.25000   0.00000  Uiso   1.00
N515   N     0.83333   0.61736   0.25000   0.00000  Uiso   1.00
N516   N     0.83333   0.38264   0.25000   0.00000  Uiso   1.00
C517   C     0.75434   0.50019   0.25401   0.00000  Uiso   1.00
C518   C     0.91221   0.50005   0.24581   0.00000  Uiso   1.00
O519   O     0.83333   0.53959   0.18573   0.00000  Uiso   1.00
O520   O     0.83334   0.46041   0.31427   0.00000  Uiso   1.00
O521   O     0.83334   0.53959   0.31427   0.00000  Uiso   1.00
O522   O     0.83333   0.46041   0.18573   0.00000  Uiso   1.00
C523   C     0.83596   0.50033   0.16520   0.00000  Uiso   1.00
C524   C     0.83081   0.49978   0.33491   0.00000  Uiso   1.00
Cu525  Cu    0.83333   0.54689   0.25000   0.00000  Uiso   1.00
Cu526  Cu    0.83333   0.45311   0.25000   0.00000  Uiso   1.00
C527   C     0.80773   0.35890   0.22053   0.00000  Uiso   1.00
C528   C     0.86165   0.64166   0.27692   0.00000  Uiso   1.00
C529   C     0.85835   0.35741   0.27995   0.00000  Uiso   1.00
C530   C     0.80458   0.64308   0.22358   0.00000  Uiso   1.00
C531   C     0.68753   0.45894   0.25865   0.00000  Uiso   1.00
C532   C     0.97852   0.54270   0.23989   0.00000  Uiso   1.00
C533   C     0.97951   0.45883   0.24230   0.00000  Uiso   1.00
C534   C     0.68685   0.54309   0.25573   0.00000  Uiso   1.00
C535   C     0.82163   0.53645   0.04490   0.00000  Uiso   1.00
C536   C     0.82589   0.45892   0.45402   0.00000  Uiso   1.00
C537   C     0.84255   0.53951   0.45287   0.00000  Uiso   1.00
C538   C     0.85813   0.46393   0.04959   0.00000  Uiso   1.00
H539   H     0.80706   0.56446   0.02526   0.00000  Uiso   1.00
H540   H     0.81927   0.42846   0.47312   0.00000  Uiso   1.00
H541   H     0.85037   0.57089   0.47042   0.00000  Uiso   1.00
H542   H     0.87305   0.43612   0.03333   0.00000  Uiso   1.00
C543   C     0.82418   0.53930   0.09022   0.00000  Uiso   1.00
C544   C     0.82007   0.45855   0.40821   0.00000  Uiso   1.00
C545   C     0.83572   0.54138   0.40745   0.00000  Uiso   1.00
C546   C     0.85953   0.46418   0.09542   0.00000  Uiso   1.00
C547   C     0.84016   0.50125   0.11689   0.00000  Uiso   1.00
C548   C     0.82782   0.49982   0.38358   0.00000  Uiso   1.00
C549   C     0.83875   0.49937   0.02436   0.00000  Uiso   1.00
C550   C     0.83722   0.49881   0.47628   0.00000  Uiso   1.00
C551   C     0.95703   0.50056   0.24096   0.00000  Uiso   1.00
C552   C     0.70926   0.50089   0.25794   0.00000  Uiso   1.00
C553   C     0.78364   0.38346   0.18377   0.00000  Uiso   1.00
O554   O     0.75295   0.40607   0.19011   0.00000  Uiso   1.00
O555   O     0.79332   0.37591   0.14090   0.00000  Uiso   1.00
H556   H     0.77428   0.39336   0.11845   0.00000  Uiso   1.00
C557   C     0.89839   0.61942   0.30179   0.00000  Uiso   1.00
O558   O     0.89589   0.58388   0.32292   0.00000  Uiso   1.00
O559   O     0.93642   0.64155   0.30316   0.00000  Uiso   1.00
H560   H     0.95830   0.62526   0.32334   0.00000  Uiso   1.00
C561   C     0.88103   0.38004   0.31771   0.00000  Uiso   1.00
O562   O     0.90959   0.40595   0.31256   0.00000  Uiso   1.00
O563   O     0.87242   0.36730   0.35999   0.00000  Uiso   1.00
H564   H     0.89072   0.38335   0.38332   0.00000  Uiso   1.00
C565   C     0.76758   0.62208   0.19951   0.00000  Uiso   1.00
O566   O     0.76951   0.58547   0.18106   0.00000  Uiso   1.00
O567   O     0.72981   0.64569   0.19659   0.00000  Uiso   1.00
H568   H     0.70809   0.63008   0.17654   0.00000  Uiso   1.00
C569   C     0.81194   0.58468   0.10631   0.00000  Uiso   1.00
O570   O     0.83661   0.60756   0.12887   0.00000  Uiso   1.00
O571   O     0.77350   0.60343   0.09134   0.00000  Uiso   1.00
H572   H     0.76896   0.63573   0.10232   0.00000  Uiso   1.00
C573   C     0.80155   0.41552   0.38966   0.00000  Uiso   1.00
O574   O     0.78247   0.41579   0.35392   0.00000  Uiso   1.00
O575   O     0.80344   0.37472   0.41491   0.00000  Uiso   1.00
H576   H     0.78603   0.34924   0.40100   0.00000  Uiso   1.00
C577   C     0.83423   0.58852   0.38781   0.00000  Uiso   1.00
O578   O     0.86078   0.61634   0.39946   0.00000  Uiso   1.00
O579   O     0.80113   0.60221   0.35843   0.00000  Uiso   1.00
H580   H     0.80445   0.63443   0.34590   0.00000  Uiso   1.00
C581   C     0.88629   0.42778   0.11771   0.00000  Uiso   1.00
O582   O     0.92099   0.42185   0.10603   0.00000  Uiso   1.00
O583   O     0.87150   0.39743   0.14830   0.00000  Uiso   1.00
H584   H     0.89114   0.37077   0.15636   0.00000  Uiso   1.00
C585   C     0.69891   0.42456   0.29552   0.00000  Uiso   1.00
C586   C     0.71980   0.38052   0.28133   0.00000  Uiso   1.00
H587   H     0.71745   0.35311   0.30671   0.00000  Uiso   1.00
H588   H     0.70503   0.36823   0.24999   0.00000  Uiso   1.00
H589   H     0.75287   0.38604   0.27805   0.00000  Uiso   1.00
H590   H     0.71830   0.44167   0.32165   0.00000  Uiso   1.00
H591   H     0.67073   0.41447   0.31146   0.00000  Uiso   1.00
C592   C     0.96047   0.58451   0.21396   0.00000  Uiso   1.00
C593   C     0.94626   0.57224   0.16683   0.00000  Uiso   1.00
H594   H     0.97218   0.55673   0.15047   0.00000  Uiso   1.00
H595   H     0.92034   0.54757   0.16582   0.00000  Uiso   1.00
H596   H     0.93555   0.60405   0.14844   0.00000  Uiso   1.00
H597   H     0.93485   0.60082   0.22953   0.00000  Uiso   1.00
H598   H     0.98402   0.61152   0.21170   0.00000  Uiso   1.00
C599   C     0.96758   0.42295   0.20836   0.00000  Uiso   1.00
C600   C     0.95146   0.37826   0.22684   0.00000  Uiso   1.00
H601   H     0.96917   0.36736   0.25752   0.00000  Uiso   1.00
H602   H     0.91869   0.38223   0.23257   0.00000  Uiso   1.00
H603   H     0.95362   0.35079   0.20237   0.00000  Uiso   1.00
H604   H     0.94398   0.43766   0.18402   0.00000  Uiso   1.00
H605   H     0.99469   0.41462   0.18991   0.00000  Uiso   1.00
C606   C     0.70260   0.58480   0.28166   0.00000  Uiso   1.00
C607   C     0.70939   0.57261   0.33039   0.00000  Uiso   1.00
H608   H     0.68073   0.55837   0.34242   0.00000  Uiso   1.00
H609   H     0.73467   0.54671   0.33643   0.00000  Uiso   1.00
H610   H     0.71773   0.60417   0.34910   0.00000  Uiso   1.00
H611   H     0.73115   0.59903   0.27032   0.00000  Uiso   1.00
H612   H     0.68006   0.61376   0.27869   0.00000  Uiso   1.00
O613   O     0.10655   0.87291   0.25000   0.00000  Uiso   1.00
O614   O     0.22679   0.79375   0.25001   0.00000  Uiso   1.00
O615   O     0.22679   0.87291   0.25001   0.00000  Uiso   1.00
O616   O     0.10655   0.79375   0.25000   0.00000  Uiso   1.00
N617   N     0.16667   0.95069   0.25000   0.00000  Uiso   1.00
N618   N     0.16667   0.71598   0.25000   0.00000  Uiso   1.00
C619   C     0.08767   0.83353   0.25401   0.00000  Uiso   1.00
C620   C     0.24554   0.83338   0.24581   0.00000  Uiso   1.00
O621   O     0.16666   0.87293   0.18573   0.00000  Uiso   1.00
O622   O     0.16667   0.79374   0.31427   0.00000  Uiso   1.00
O623   O     0.16667   0.87293   0.31427   0.00000  Uiso   1.00
O624   O     0.16666   0.79374   0.18573   0.00000  Uiso   1.00
C625   C     0.16929   0.83366   0.16520   0.00000  Uiso   1.00
C626   C     0.16414   0.83312   0.33491   0.00000  Uiso   1.00
Cu627  Cu    0.16667   0.88022   0.25000   0.00000  Uiso   1.00
Cu628  Cu    0.16667   0.78645   0.25000   0.00000  Uiso   1.00
C629   C     0.14106   0.69223   0.22053   0.00000  Uiso   1.00
C630   C     0.19498   0.97499   0.27692   0.00000  Uiso   1.00
C631   C     0.19168   0.69075   0.27995   0.00000  Uiso   1.00
C632   C     0.13791   0.97641   0.22358   0.00000  Uiso   1.00
C633   C     0.02087   0.79228   0.25865   0.00000  Uiso   1.00
C634   C     0.31185   0.87604   0.23989   0.00000  Uiso   1.00
C635   C     0.31284   0.79216   0.24230   0.00000  Uiso   1.00
C636   C     0.02018   0.87642   0.25573   0.00000  Uiso   1.00
C637   C     0.15496   0.86978   0.04490   0.00000  Uiso   1.00
C638   C     0.15922   0.79225   0.45402   0.00000  Uiso   1.00
C639   C     0.17589   0.87284   0.45287   0.00000  Uiso   1.00
C640   C     0.19146   0.79726   0.04959   0.00000  Uiso   1.00
H641   H     0.14039   0.89779   0.02526   0.00000  Uiso   1.00
H642   H     0.15261   0.76179   0.47312   0.00000  Uiso   1.00
H643   H     0.18370   0.90422   0.47042   0.00000  Uiso   1.00
H644   H     0.20638   0.76946   0.03333   0.00000  Uiso   1.00
C645   C     0.15752   0.87264   0.09022   0.00000  Uiso   1.00
C646   C     0.15340   0.79189   0.40821   0.00000  Uiso   1.00
C647   C     0.16906   0.87471   0.40745   0.00000  Uiso   1.00
C648   C     0.19286   0.79751   0.09542   0.00000  Uiso   1.00
C649   C     0.17349   0.83458   0.11689   0.00000  Uiso   1.00
C650   C     0.16115   0.83316   0.38358   0.00000  Uiso   1.00
C651   C     0.17208   0.83271   0.02436   0.00000  Uiso   1.00
C652   C     0.17055   0.83215   0.47628   0.00000  Uiso   1.00
C653   C     0.29036   0.83390   0.24096   0.00000  Uiso   1.00
C654   C     0.04260   0.83422   0.25794   0.00000  Uiso   1.00
C655   C     0.11697   0.71679   0.18377   0.00000  Uiso   1.00
O656   O     0.08629   0.73940   0.19011   0.00000  Uiso   1.00
O657   O     0.12665   0.70924   0.14090   0.00000  Uiso   1.00
H658   H     0.10761   0.72669   0.11845   0.00000  Uiso   1.00
C659   C     0.23173   0.95275   0.30179   0.00000  Uiso   1.00
O660   O     0.22922   0.91721   0.32292   0.00000  Uiso   1.00
O661   O     0.26975   0.97489   0.30316   0.00000  Uiso   1.00
H662   H     0.29163   0.95859   0.32334   0.00000  Uiso   1.00
C663   C     0.21436   0.71337   0.31771   0.00000  Uiso   1.00
O664   O     0.24292   0.73928   0.31256   0.00000  Uiso   1.00
O665   O     0.20575   0.70064   0.35999   0.00000  Uiso   1.00
H666   H     0.22405   0.71668   0.38332   0.00000  Uiso   1.00
C667   C     0.10091   0.95541   0.19951   0.00000  Uiso   1.00
O668   O     0.10284   0.91880   0.18106   0.00000  Uiso   1.00
O669   O     0.06314   0.97903   0.19659   0.00000  Uiso   1.00
H670   H     0.04142   0.96341   0.17654   0.00000  Uiso   1.00
C671   C     0.14527   0.91801   0.10631   0.00000  Uiso   1.00
O672   O     0.16995   0.94089   0.12887   0.00000  Uiso   1.00
O673   O     0.10683   0.93677   0.09134   0.00000  Uiso   1.00
H674   H     0.10230   0.96906   0.10232   0.00000  Uiso   1.00
C675   C     0.13488   0.74885   0.38966   0.00000  Uiso   1.00
O676   O     0.11580   0.74913   0.35392   0.00000  Uiso   1.00
O677   O     0.13678   0.70805   0.41491   0.00000  Uiso   1.00
H678   H     0.11937   0.68257   0.40100   0.00000  Uiso   1.00
C679   C     0.16756   0.92185   0.38781   0.00000  Uiso   1.00
O680   O     0.19411   0.94967   0.39946   0.00000  Uiso   1.00
O681   O     0.13447   0.93554   0.35843   0.00000  Uiso   1.00
H682   H     0.13778   0.96776   0.34590   0.00000  Uiso   1.00
C683   C     0.21962   0.76112   0.11771   0.00000  Uiso   1.00
O684   O     0.25432   0.75518   0.10603   0.00000  Uiso   1.00
O685   O     0.20484   0.73076   0.14830   0.00000  Uiso   1.00
H686   H     0.22447   0.70410   0.15636   0.00000  Uiso   1.00
C687   C     0.03225   0.75789   0.29552   0.00000  Uiso   1.00
C688   C     0.05313   0.71385   0.28133   0.00000  Uiso   1.00
H689   H     0.05079   0.68644   0.30671   0.00000  Uiso   1.00
H690   H     0.03837   0.70156   0.24999   0.00000  Uiso   1.00
H691   H     0.08620   0.71937   0.27805   0.00000  Uiso   1.00
H692   H     0.05163   0.77500   0.32165   0.00000  Uiso   1.00
H693   H     0.00406   0.74781   0.31146   0.00000  Uiso   1.00
C694   C     0.29381   0.91784   0.21396   0.00000  Uiso   1.00
C695   C     0.27959   0.90558   0.16683   0.00000  Uiso   1.00
H696   H     0.30551   0.89006   0.15047   0.00000  Uiso   1.00
H697   H     0.25367   0.88090   0.16582   0.00000  Uiso   1.00
H698   H     0.26888   0.93738   0.14844   0.00000  Uiso   1.00
H699   H     0.26819   0.93415   0.22953   0.00000  Uiso   1.00
H700   H     0.31735   0.94486   0.21170   0.00000  Uiso   1.00
C701   C     0.30091   0.75628   0.20836   0.00000  Uiso   1.00
C702   C     0.28479   0.71160   0.22684   0.00000  Uiso   1.00
H703   H     0.30251   0.70069   0.25752   0.00000  Uiso   1.00
H704   H     0.25202   0.71556   0.23257   0.00000  Uiso   1.00
H705   H     0.28695   0.68412   0.20237   0.00000  Uiso   1.00
H706   H     0.27731   0.77100   0.18402   0.00000  Uiso   1.00
H707   H     0.32803   0.74795   0.18991   0.00000  Uiso   1.00
C708   C     0.03594   0.91813   0.28166   0.00000  Uiso   1.00
C709   C     0.04273   0.90594   0.33039   0.00000  Uiso   1.00
H710   H     0.01407   0.89170   0.34242   0.00000  Uiso   1.00
H711   H     0.06800   0.88005   0.33643   0.00000  Uiso   1.00
H712   H     0.05107   0.93750   0.34910   0.00000  Uiso   1.00
H713   H     0.06448   0.93236   0.27032   0.00000  Uiso   1.00
H714   H     0.01339   0.94710   0.27869   0.00000  Uiso   1.00
O715   O     0.43988   0.87291   0.25000   0.00000  Uiso   1.00
O716   O     0.56012   0.79375   0.25001   0.00000  Uiso   1.00
O717   O     0.56012   0.87291   0.25001   0.00000  Uiso   1.00
O718   O     0.43988   0.79375   0.25000   0.00000  Uiso   1.00
N719   N     0.50000   0.95069   0.25000   0.00000  Uiso   1.00
N720   N     0.50000   0.71598   0.25000   0.00000  Uiso   1.00
C721   C     0.42101   0.83353   0.25401   0.00000  Uiso   1.00
C722   C     0.57887   0.83338   0.24581   0.00000  Uiso   1.00
O723   O     0.50000   0.87293   0.18573   0.00000  Uiso   1.00
O724   O     0.50000   0.79374   0.31427   0.00000  Uiso   1.00
O725   O     0.50000   0.87293   0.31427   0.00000  Uiso   1.00
O726   O     0.50000   0.79374   0.18573   0.00000  Uiso   1.00
C727   C     0.50262   0.83366   0.16520   0.00000  Uiso   1.00
C728   C     0.49747   0.83312   0.33491   0.00000  Uiso   1.00
Cu729  Cu    0.50000   0.88022   0.25000   0.00000  Uiso   1.00
Cu730  Cu    0.50000   0.78645   0.25000   0.00000  Uiso   1.00
C731   C     0.47439   0.69223   0.22053   0.00000  Uiso   1.00
C732   C     0.52831   0.97499   0.27692   0.00000  Uiso   1.00
C733   C     0.52502   0.69075   0.27995   0.00000  Uiso   1.00
C734   C     0.47125   0.97641   0.22358   0.00000  Uiso   1.00
C735   C     0.35420   0.79228   0.25865   0.00000  Uiso   1.00
C736   C     0.64518   0.87604   0.23989   0.00000  Uiso   1.00
C737   C     0.64617   0.79216   0.24230   0.00000  Uiso   1.00
C738   C     0.35352   0.87642   0.25573   0.00000  Uiso   1.00
C739   C     0.48830   0.86978   0.04490   0.00000  Uiso   1.00
C740   C     0.49255   0.79225   0.45402   0.00000  Uiso   1.00
C741   C     0.50922   0.87284   0.45287   0.00000  Uiso   1.00
C742   C     0.52479   0.79726   0.04959   0.00000  Uiso   1.00
H743   H     0.47373   0.89779   0.02526   0.00000  Uiso   1.00
H744   H     0.48594   0.76179   0.47312   0.00000  Uiso   1.00
H745   H     0.51703   0.90422   0.47042   0.00000  Uiso   1.00
H746   H     0.53972   0.76946   0.03333   0.00000  Uiso   1.00
C747   C     0.49085   0.87264   0.09022   0.00000  Uiso   1.00
C748   C     0.48673   0.79189   0.40821   0.00000  Uiso   1.00
C749   C     0.50239   0.87471   0.40745   0.00000  Uiso   1.00
C750   C     0.52620   0.79751   0.09542   0.00000  Uiso   1.00
C751   C     0.50682   0.83458   0.11689   0.00000  Uiso   1.00
C752   C     0.49448   0.83316   0.38358   0.00000  Uiso   1.00
C753   C     0.50541   0.83271   0.02436   0.00000  Uiso   1.00
C754   C     0.50389   0.83215   0.47628   0.00000  Uiso   1.00
C755   C     0.62370   0.83390   0.24096   0.00000  Uiso   1.00
C756   C     0.37593   0.83422   0.25794   0.00000  Uiso   1.00
C757   C     0.45031   0.71679   0.18377   0.00000  Uiso   1.00
O758   O     0.41962   0.73940   0.19011   0.00000  Uiso   1.00
O759   O     0.45998   0.70924   0.14090   0.00000  Uiso   1.00
H760   H     0.44094   0.72669   0.11845   0.00000  Uiso   1.00
C761   C     0.56506   0.95275   0.30179   0.00000  Uiso   1.00
O762   O     0.56256   0.91721   0.32292   0.00000  Uiso   1.00
O763   O     0.60308   0.97489   0.30316   0.00000  Uiso   1.00
H764   H     0.62497   0.95859   0.32334   0.00000  Uiso   1.00
C765   C     0.54769   0.71337   0.31771   0.00000  Uiso   1.00
O766   O     0.57626   0.73928   0.31256   0.00000  Uiso   1.00
O767   O     0.53909   0.70064   0.35999   0.00000  Uiso   1.00
H768   H     0.55739   0.71668   0.38332   0.00000  Uiso   1.00
C769   C     0.43425   0.95541   0.19951   0.00000  Uiso   1.00
O770   O     0.43617   0.91880   0.18106   0.00000  Uiso   1.00
O771   O     0.39648   0.97903   0.19659   0.00000  Uiso   1.00
H772   H     0.37475   0.96341   0.17654   0.00000  Uiso   1.00
C773   C     0.47860   0.91801   0.10631   0.00000  Uiso   1.00
O774   O     0.50328   0.94089   0.12887   0.00000  Uiso   1.00
O775   O     0.44017   0.93677   0.09134   0.00000  Uiso   1.00
H776   H     0.43563   0.96906   0.10232   0.00000  Uiso   1.00
C777   C     0.46822   0.74885   0.38966   0.00000  Uiso   1.00
O778   O     0.44913   0.74913   0.35392   0.00000  Uiso   1.00
O779   O     0.47011   0.70805   0.41491   0.00000  Uiso   1.00
H780   H     0.45270   0.68257   0.40100   0.00000  Uiso   1.00
C781   C     0.50090   0.92185   0.38781   0.00000  Uiso   1.00
O782   O     0.52744   0.94967   0.39946   0.00000  Uiso   1.00
O783   O     0.46780   0.93554   0.35843   0.00000  Uiso   1.00
H784   H     0.47111   0.96776   0.34590   0.00000  Uiso   1.00
C785   C     0.55296   0.76112   0.11771   0.00000  Uiso   1.00
O786   O     0.58765   0.75518   0.10603   0.00000  Uiso   1.00
O787   O     0.53817   0.73076   0.14830   0.00000  Uiso   1.00
H788   H     0.55781   0.70410   0.15636   0.00000  Uiso   1.00
C789   C     0.36558   0.75789   0.29552   0.00000  Uiso   1.00
C790   C     0.38646   0.71385   0.28133   0.00000  Uiso   1.00
H791   H     0.38412   0.68644   0.30671   0.00000  Uiso   1.00
H792   H     0.37170   0.70156   0.24999   0.00000  Uiso   1.00
H793   H     0.41954   0.71937   0.27805   0.00000  Uiso   1.00
H794   H     0.38496   0.77500   0.32165   0.00000  Uiso   1.00
H795   H     0.33740   0.74781   0.31146   0.00000  Uiso   1.00
C796   C     0.62714   0.91784   0.21396   0.00000  Uiso   1.00
C797   C     0.61293   0.90558   0.16683   0.00000  Uiso   1.00
H798   H     0.63884   0.89006   0.15047   0.00000  Uiso   1.00
H799   H     0.58701   0.88090   0.16582   0.00000  Uiso   1.00
H800   H     0.60222   0.93738   0.14844   0.00000  Uiso   1.00
H801   H     0.60152   0.93415   0.22953   0.00000  Uiso   1.00
H802   H     0.65069   0.94486   0.21170   0.00000  Uiso   1.00
C803   C     0.63425   0.75628   0.20836   0.00000  Uiso   1.00
C804   C     0.61812   0.71160   0.22684   0.00000  Uiso   1.00
H805   H     0.63584   0.70069   0.25752   0.00000  Uiso   1.00
H806   H     0.58535   0.71556   0.23257   0.00000  Uiso   1.00
H807   H     0.62029   0.68412   0.20237   0.00000  Uiso   1.00
H808   H     0.61065   0.77100   0.18402   0.00000  Uiso   1.00
H809   H     0.66136   0.74795   0.18991   0.00000  Uiso   1.00
C810   C     0.36927   0.91813   0.28166   0.00000  Uiso   1.00
C811   C     0.37606   0.90594   0.33039   0.00000  Uiso   1.00
H812   H     0.34740   0.89170   0.34242   0.00000  Uiso   1.00
H813   H     0.40133   0.88005   0.33643   0.00000  Uiso   1.00
H814   H     0.38440   0.93750   0.34910   0.00000  Uiso   1.00
H815   H     0.39782   0.93236   0.27032   0.00000  Uiso   1.00
H816   H     0.34673   0.94710   0.27869   0.00000  Uiso   1.00
O817   O     0.77321   0.87291   0.25000   0.00000  Uiso   1.00
O818   O     0.89345   0.79375   0.25001   0.00000  Uiso   1.00
O819   O     0.89345   0.87291   0.25001   0.00000  Uiso   1.00
O820   O     0.77321   0.79375   0.25000   0.00000  Uiso   1.00
N821   N     0.83333   0.95069   0.25000   0.00000  Uiso   1.00
N822   N     0.83333   0.71598   0.25000   0.00000  Uiso   1.00
C823   C     0.75434   0.83353   0.25401   0.00000  Uiso   1.00
C824   C     0.91221   0.83338   0.24581   0.00000  Uiso   1.00
O825   O     0.83333   0.87293   0.18573   0.00000  Uiso   1.00
O826   O     0.83334   0.79374   0.31427   0.00000  Uiso   1.00
O827   O     0.83334   0.87293   0.31427   0.00000  Uiso   1.00
O828   O     0.83333   0.79374   0.18573   0.00000  Uiso   1.00
C829   C     0.83596   0.83366   0.16520   0.00000  Uiso   1.00
C830   C     0.83081   0.83312   0.33491   0.00000  Uiso   1.00
Cu831  Cu    0.83333   0.88022   0.25000   0.00000  Uiso   1.00
Cu832  Cu    0.83333   0.78645   0.25000   0.00000  Uiso   1.00
C833   C     0.80773   0.69223   0.22053   0.00000  Uiso   1.00
C834   C     0.86165   0.97499   0.27692   0.00000  Uiso   1.00
C835   C     0.85835   0.69075   0.27995   0.00000  Uiso   1.00
C836   C     0.80458   0.97641   0.22358   0.00000  Uiso   1.00
C837   C     0.68753   0.79228   0.25865   0.00000  Uiso   1.00
C838   C     0.97852   0.87604   0.23989   0.00000  Uiso   1.00
C839   C     0.97951   0.79216   0.24230   0.00000  Uiso   1.00
C840   C     0.68685   0.87642   0.25573   0.00000  Uiso   1.00
C841   C     0.82163   0.86978   0.04490   0.00000  Uiso   1.00
C842   C     0.82589   0.79225   0.45402   0.00000  Uiso   1.00
C843   C     0.84255   0.87284   0.45287   0.00000  Uiso   1.00
C844   C     0.85813   0.79726   0.04959   0.00000  Uiso   1.00
H845   H     0.80706   0.89779   0.02526   0.00000  Uiso   1.00
H846   H     0.81927   0.76179   0.47312   0.00000  Uiso   1.00
H847   H     0.85037   0.90422   0.47042   0.00000  Uiso   1.00
H848   H     0.87305   0.76946   0.03333   0.00000  Uiso   1.00
C849   C     0.82418   0.87264   0.09022   0.00000  Uiso   1.00
C850   C     0.82007   0.79189   0.40821   0.00000  Uiso   1.00
C851   C     0.83572   0.87471   0.40745   0.00000  Uiso   1.00
C852   C     0.85953   0.79751   0.09542   0.00000  Uiso   1.00
C853   C     0.84016   0.83458   0.11689   0.00000  Uiso   1.00
C854   C     0.82782   0.83316   0.38358   0.00000  Uiso   1.00
C855   C     0.83875   0.83271   0.02436   0.00000  Uiso   1.00
C856   C     0.83722   0.83215   0.47628   0.00000  Uiso   1.00
C857   C     0.95703   0.83390   0.24096   0.00000  Uiso   1.00
C858   C     0.70926   0.83422   0.25794   0.00000  Uiso   1.00
C859   C     0.78364   0.71679   0.18377   0.00000  Uiso   1.00
O860   O     0.75295   0.73940   0.19011   0.00000  Uiso   1.00
O861   O     0.79332   0.70924   0.14090   0.00000  Uiso   1.00
H862   H     0.77428   0.72669   0.11845   0.00000  Uiso   1.00
C863   C     0.89839   0.95275   0.30179   0.00000  Uiso   1.00
O864   O     0.89589   0.91721   0.32292   0.00000  Uiso   1.00
O865   O     0.93642   0.97489   0.30316   0.00000  Uiso   1.00
H866   H     0.95830   0.95859   0.32334   0.00000  Uiso   1.00
C867   C     0.88103   0.71337   0.31771   0.00000  Uiso   1.00
O868   O     0.90959   0.73928   0.31256   0.00000  Uiso   1.00
O869   O     0.87242   0.70064   0.35999   0.00000  Uiso   1.00
H870   H     0.89072   0.71668   0.38332   0.00000  Uiso   1.00
C871   C     0.76758   0.95541   0.19951   0.00000  Uiso   1.00
O872   O     0.76951   0.91880   0.18106   0.00000  Uiso   1.00
O873   O     0.72981   0.97903   0.19659   0.00000  Uiso   1.00
H874   H     0.70809   0.96341   0.17654   0.00000  Uiso   1.00
C875   C     0.81194   0.91801   0.10631   0.00000  Uiso   1.00
O876   O     0.83661   0.94089   0.12887   0.00000  Uiso   1.00
O877   O     0.77350   0.93677   0.09134   0.00000  Uiso   1.00
H878   H     0.76896   0.96906   0.10232   0.00000  Uiso   1.00
C879   C     0.80155   0.74885   0.38966   0.00000  Uiso   1.00
O880   O     0.78247   0.74913   0.35392   0.00000  Uiso   1.00
O881   O     0.80344   0.70805   0.41491   0.00000  Uiso   1.00
H882   H     0.78603   0.68257   0.40100   0.00000  Uiso   1.00
C883   C     0.83423   0.92185   0.38781   0.00000  Uiso   1.00
O884   O     0.86078   0.94967   0.39946   0.00000  Uiso   1.00
O885   O     0.80113   0.93554   0.35843   0.00000  Uiso   1.00
H886   H     0.80445   0.96776   0.34590   0.00000  Uiso   1.00
C887   C     0.88629   0.76112   0.11771   0.00000  Uiso   1.00
O888   O     0.92099   0.75518   0.10603   0.00000  Uiso   1.00
O889   O     0.87150   0.73076   0.14830   0.00000  Uiso   1.00
H890   H     0.89114   0.70410   0.15636   0.00000  Uiso   1.00
C891   C     0.69891   0.75789   0.29552   0.00000  Uiso   1.00
C892   C     0.71980   0.71385   0.28133   0.00000  Uiso   1.00
H893   H     0.71745   0.68644   0.30671   0.00000  Uiso   1.00
H894   H     0.70503   0.70156   0.24999   0.00000  Uiso   1.00
H895   H     0.75287   0.71937   0.27805   0.00000  Uiso   1.00
H896   H     0.71830   0.77500   0.32165   0.00000  Uiso   1.00
H897   H     0.67073   0.74781   0.31146   0.00000  Uiso   1.00
C898   C     0.96047   0.91784   0.21396   0.00000  Uiso   1.00
C899   C     0.94626   0.90558   0.16683   0.00000  Uiso   1.00
H900   H     0.97218   0.89006   0.15047   0.00000  Uiso   1.00
H901   H     0.92034   0.88090   0.16582   0.00000  Uiso   1.00
H902   H     0.93555   0.93738   0.14844   0.00000  Uiso   1.00
H903   H     0.93485   0.93415   0.22953   0.00000  Uiso   1.00
H904   H     0.98402   0.94486   0.21170   0.00000  Uiso   1.00
C905   C     0.96758   0.75628   0.20836   0.00000  Uiso   1.00
C906   C     0.95146   0.71160   0.22684   0.00000  Uiso   1.00
H907   H     0.96917   0.70069   0.25752   0.00000  Uiso   1.00
H908   H     0.91869   0.71556   0.23257   0.00000  Uiso   1.00
H909   H     0.95362   0.68412   0.20237   0.00000  Uiso   1.00
H910   H     0.94398   0.77100   0.18402   0.00000  Uiso   1.00
H911   H     0.99469   0.74795   0.18991   0.00000  Uiso   1.00
C912   C     0.70260   0.91813   0.28166   0.00000  Uiso   1.00
C913   C     0.70939   0.90594   0.33039   0.00000  Uiso   1.00
H914   H     0.68073   0.89170   0.34242   0.00000  Uiso   1.00
H915   H     0.73467   0.88005   0.33643   0.00000  Uiso   1.00
H916   H     0.71773   0.93750   0.34910   0.00000  Uiso   1.00
H917   H     0.73115   0.93236   0.27032   0.00000  Uiso   1.00
H918   H     0.68006   0.94710   0.27869   0.00000  Uiso   1.00
O919   O     0.10655   0.20625   0.75000   0.00000  Uiso   1.00
O920   O     0.22679   0.12709   0.75001   0.00000  Uiso   1.00
O921   O     0.22679   0.20625   0.75001   0.00000  Uiso   1.00
O922   O     0.10655   0.12709   0.75000   0.00000  Uiso   1.00
N923   N     0.16667   0.28402   0.75000   0.00000  Uiso   1.00
N924   N     0.16667   0.04931   0.75000   0.00000  Uiso   1.00
C925   C     0.08767   0.16686   0.75401   0.00000  Uiso   1.00
C926   C     0.24554   0.16671   0.74581   0.00000  Uiso   1.00
O927   O     0.16666   0.20626   0.68573   0.00000  Uiso   1.00
O928   O     0.16667   0.12707   0.81427   0.00000  Uiso   1.00
O929   O     0.16667   0.20626   0.81427   0.00000  Uiso   1.00
O930   O     0.16666   0.12707   0.68573   0.00000  Uiso   1.00
C931   C     0.16929   0.16699   0.66520   0.00000  Uiso   1.00
C932   C     0.16414   0.16645   0.83491   0.00000  Uiso   1.00
Cu933  Cu    0.16667   0.21355   0.75000   0.00000  Uiso   1.00
Cu934  Cu    0.16667   0.11978   0.75000   0.00000  Uiso   1.00
C935   C     0.14106   0.02557   0.72053   0.00000  Uiso   1.00
C936   C     0.19498   0.30833   0.77692   0.00000  Uiso   1.00
C937   C     0.19168   0.02408   0.77995   0.00000  Uiso   1.00
C938   C     0.13791   0.30974   0.72358   0.00000  Uiso   1.00
C939   C     0.02087   0.12561   0.75865   0.00000  Uiso   1.00
C940   C     0.31185   0.20937   0.73989   0.00000  Uiso   1.00
C941   C     0.31284   0.12549   0.74230   0.00000  Uiso   1.00
C942   C     0.02018   0.20976   0.75573   0.00000  Uiso   1.00
C943   C     0.15496   0.20312   0.54490   0.00000  Uiso   1.00
C944   C     0.15922   0.12558   0.95402   0.00000  Uiso   1.00
C945   C     0.17589   0.20618   0.95287   0.00000  Uiso   1.00
C946   C     0.19146   0.13060   0.54959   0.00000  Uiso   1.00
H947   H     0.14039   0.23112   0.52526   0.00000  Uiso   1.00
H948   H     0.15261   0.09512   0.97312   0.00000  Uiso   1.00
H949   H     0.18370   0.23755   0.97042   0.00000  Uiso   1.00
H950   H     0.20638   0.10279   0.53333   0.00000  Uiso   1.00
C951   C     0.15752   0.20597   0.59022   0.00000  Uiso   1.00
C952   C     0.15340   0.12522   0.90821   0.00000  Uiso   1.00
C953   C     0.16906   0.20804   0.90745   0.00000  Uiso   1.00
C954   C     0.19286   0.13085   0.59542   0.00000  Uiso   1.00
C955   C     0.17349   0.16791   0.61689   0.00000  Uiso   1.00
C956   C     0.16115   0.16649   0.88358   0.00000  Uiso   1.00
C957   C     0.17208   0.16604   0.52436   0.00000  Uiso   1.00
C958   C     0.17055   0.16548   0.97628   0.00000  Uiso   1.00
C959   C     0.29036   0.16723   0.74096   0.00000  Uiso   1.00
C960   C     0.04260   0.16755   0.75794   0.00000  Uiso   1.00
C961   C     0.11697   0.05012   0.68377   0.00000  Uiso   1.00
O962   O     0.08629   0.07273   0.69011   0.00000  Uiso   1.00
O963   O     0.12665   0.04258   0.64090   0.00000  Uiso   1.00
H964   H     0.10761   0.06003   0.61845   0.00000  Uiso   1.00
C965   C     0.23173   0.28608   0.80179   0.00000  Uiso   1.00
O966   O     0.22922   0.25054   0.82292   0.00000  Uiso   1.00
O967   O     0.26975   0.30822   0.80316   0.00000  Uiso   1.00
H968   H     0.29163   0.29192   0.82334   0.00000  Uiso   1.00
C969   C     0.21436   0.04670   0.81771   0.00000  Uiso   1.00
O970   O     0.24292   0.07262   0.81256   0.00000  Uiso   1.00
O971   O     0.20575   0.03397   0.85999   0.00000  Uiso   1.00
H972   H     0.22405   0.05001   0.88332   0.00000  Uiso   1.00
C973   C     0.10091   0.28875   0.69951   0.00000  Uiso   1.00
O974   O     0.10284   0.25213   0.68106   0.00000  Uiso   1.00
O975   O     0.06314   0.31236   0.69659   0.00000  Uiso   1.00
H976   H     0.04142   0.29674   0.67654   0.00000  Uiso   1.00
C977   C     0.14527   0.25134   0.60631   0.00000  Uiso   1.00
O978   O     0.16995   0.27422   0.62887   0.00000  Uiso   1.00
O979   O     0.10683   0.27010   0.59134   0.00000  Uiso   1.00
H980   H     0.10230   0.30240   0.60232   0.00000  Uiso   1.00
C981   C     0.13488   0.08219   0.88966   0.00000  Uiso   1.00
O982   O     0.11580   0.08246   0.85392   0.00000  Uiso   1.00
O983   O     0.13678   0.04138   0.91491   0.00000  Uiso   1.00
H984   H     0.11937   0.01591   0.90100   0.00000  Uiso   1.00
C985   C     0.16756   0.25519   0.88781   0.00000  Uiso   1.00
O986   O     0.19411   0.28301   0.89946   0.00000  Uiso   1.00
O987   O     0.13447   0.26888   0.85843   0.00000  Uiso   1.00
H988   H     0.13778   0.30110   0.84590   0.00000  Uiso   1.00
C989   C     0.21962   0.09445   0.61771   0.00000  Uiso   1.00
O990   O     0.25432   0.08851   0.60603   0.00000  Uiso   1.00
O991   O     0.20484   0.06409   0.64830   0.00000  Uiso   1.00
H992   H     0.22447   0.03744   0.65636   0.00000  Uiso   1.00
C993   C     0.03225   0.09122   0.79552   0.00000  Uiso   1.00
C994   C     0.05313   0.04718   0.78133   0.00000  Uiso   1.00
H995   H     0.05079   0.01978   0.80671   0.00000  Uiso   1.00
H996   H     0.03837   0.03489   0.74999   0.00000  Uiso   1.00
H997   H     0.08620   0.05270   0.77805   0.00000  Uiso   1.00
H998   H     0.05163   0.10833   0.82165   0.00000  Uiso   1.00
H999   H     0.00406   0.08114   0.81146   0.00000  Uiso   1.00
C1000  C     0.29381   0.25117   0.71396   0.00000  Uiso   1.00
C1001  C     0.27959   0.23891   0.66683   0.00000  Uiso   1.00
H1002  H     0.30551   0.22339   0.65047   0.00000  Uiso   1.00
H1003  H     0.25367   0.21424   0.66582   0.00000  Uiso   1.00
H1004  H     0.26888   0.27071   0.64844   0.00000  Uiso   1.00
H1005  H     0.26819   0.26748   0.72953   0.00000  Uiso   1.00
H1006  H     0.31735   0.27819   0.71170   0.00000  Uiso   1.00
C1007  C     0.30091   0.08962   0.70836   0.00000  Uiso   1.00
C1008  C     0.28479   0.04493   0.72684   0.00000  Uiso   1.00
H1009  H     0.30251   0.03403   0.75752   0.00000  Uiso   1.00
H1010  H     0.25202   0.04889   0.73257   0.00000  Uiso   1.00
H1011  H     0.28695   0.01745   0.70237   0.00000  Uiso   1.00
H1012  H     0.27731   0.10433   0.68402   0.00000  Uiso   1.00
H1013  H     0.32803   0.08129   0.68991   0.00000  Uiso   1.00
C1014  C     0.03594   0.25147   0.78166   0.00000  Uiso   1.00
C1015  C     0.04273   0.23928   0.83039   0.00000  Uiso   1.00
H1016  H     0.01407   0.22504   0.84242   0.00000  Uiso   1.00
H1017  H     0.06800   0.21338   0.83643   0.00000  Uiso   1.00
H1018  H     0.05107   0.27083   0.84910   0.00000  Uiso   1.00
H1019  H     0.06448   0.26570   0.77032   0.00000  Uiso   1.00
H1020  H     0.01339   0.28043   0.77869   0.00000  Uiso   1.00
O1021  O     0.43988   0.20625   0.75000   0.00000  Uiso   1.00
O1022  O     0.56012   0.12709   0.75001   0.00000  Uiso   1.00
O1023  O     0.56012   0.20625   0.75001   0.00000  Uiso   1.00
O1024  O     0.43988   0.12709   0.75000   0.00000  Uiso   1.00
N1025  N     0.50000   0.28402   0.75000   0.00000  Uiso   1.00
N1026  N     0.50000   0.04931   0.75000   0.00000  Uiso   1.00
C1027  C     0.42101   0.16686   0.75401   0.00000  Uiso   1.00
C1028  C     0.57887   0.16671   0.74581   0.00000  Uiso   1.00
O1029  O     0.50000   0.20626   0.68573   0.00000  Uiso   1.00
O1030  O     0.50000   0.12707   0.81427   0.00000  Uiso   1.00
O1031  O     0.50000   0.20626   0.81427   0.00000  Uiso   1.00
O1032  O     0.50000   0.12707   0.68573   0.00000  Uiso   1.00
C1033  C     0.50262   0.16699   0.66520   0.00000  Uiso   1.00
C1034  C     0.49747   0.16645   0.83491   0.00000  Uiso   1.00
Cu1035 Cu    0.50000   0.21355   0.75000   0.00000  Uiso   1.00
Cu1036 Cu    0.50000   0.11978   0.75000   0.00000  Uiso   1.00
C1037  C     0.47439   0.02557   0.72053   0.00000  Uiso   1.00
C1038  C     0.52831   0.30833   0.77692   0.00000  Uiso   1.00
C1039  C     0.52502   0.02408   0.77995   0.00000  Uiso   1.00
C1040  C     0.47125   0.30974   0.72358   0.00000  Uiso   1.00
C1041  C     0.35420   0.12561   0.75865   0.00000  Uiso   1.00
C1042  C     0.64518   0.20937   0.73989   0.00000  Uiso   1.00
C1043  C     0.64617   0.12549   0.74230   0.00000  Uiso   1.00
C1044  C     0.35352   0.20976   0.75573   0.00000  Uiso   1.00
C1045  C     0.48830   0.20312   0.54490   0.00000  Uiso   1.00
C1046  C     0.49255   0.12558   0.95402   0.00000  Uiso   1.00
C1047  C     0.50922   0.20618   0.95287   0.00000  Uiso   1.00
C1048  C     0.52479   0.13060   0.54959   0.00000  Uiso   1.00
H1049  H     0.47373   0.23112   0.52526   0.00000  Uiso   1.00
H1050  H     0.48594   0.09512   0.97312   0.00000  Uiso   1.00
H1051  H     0.51703   0.23755   0.97042   0.00000  Uiso   1.00
H1052  H     0.53972   0.10279   0.53333   0.00000  Uiso   1.00
C1053  C     0.49085   0.20597   0.59022   0.00000  Uiso   1.00
C1054  C     0.48673   0.12522   0.90821   0.00000  Uiso   1.00
C1055  C     0.50239   0.20804   0.90745   0.00000  Uiso   1.00
C1056  C     0.52620   0.13085   0.59542   0.00000  Uiso   1.00
C1057  C     0.50682   0.16791   0.61689   0.00000  Uiso   1.00
C1058  C     0.49448   0.16649   0.88358   0.00000  Uiso   1.00
C1059  C     0.50541   0.16604   0.52436   0.00000  Uiso   1.00
C1060  C     0.50389   0.16548   0.97628   0.00000  Uiso   1.00
C1061  C     0.62370   0.16723   0.74096   0.00000  Uiso   1.00
C1062  C     0.37593   0.16755   0.75794   0.00000  Uiso   1.00
C1063  C     0.45031   0.05012   0.68377   0.00000  Uiso   1.00
O1064  O     0.41962   0.07273   0.69011   0.00000  Uiso   1.00
O1065  O     0.45998   0.04258   0.64090   0.00000  Uiso   1.00
H1066  H     0.44094   0.06003   0.61845   0.00000  Uiso   1.00
C1067  C     0.56506   0.28608   0.80179   0.00000  Uiso   1.00
O1068  O     0.56256   0.25054   0.82292   0.00000  Uiso   1.00
O1069  O     0.60308   0.30822   0.80316   0.00000  Uiso   1.00
H1070  H     0.62497   0.29192   0.82334   0.00000  Uiso   1.00
C1071  C     0.54769   0.04670   0.81771   0.00000  Uiso   1.00
O1072  O     0.57626   0.07262   0.81256   0.00000  Uiso   1.00
O1073  O     0.53909   0.03397   0.85999   0.00000  Uiso   1.00
H1074  H     0.55739   0.05001   0.88332   0.00000  Uiso   1.00
C1075  C     0.43425   0.28875   0.69951   0.00000  Uiso   1.00
O1076  O     0.43617   0.25213   0.68106   0.00000  Uiso   1.00
O1077  O     0.39648   0.31236   0.69659   0.00000  Uiso   1.00
H1078  H     0.37475   0.29674   0.67654   0.00000  Uiso   1.00
C1079  C     0.47860   0.25134   0.60631   0.00000  Uiso   1.00
O1080  O     0.50328   0.27422   0.62887   0.00000  Uiso   1.00
O1081  O     0.44017   0.27010   0.59134   0.00000  Uiso   1.00
H1082  H     0.43563   0.30240   0.60232   0.00000  Uiso   1.00
C1083  C     0.46822   0.08219   0.88966   0.00000  Uiso   1.00
O1084  O     0.44913   0.08246   0.85392   0.00000  Uiso   1.00
O1085  O     0.47011   0.04138   0.91491   0.00000  Uiso   1.00
H1086  H     0.45270   0.01591   0.90100   0.00000  Uiso   1.00
C1087  C     0.50090   0.25519   0.88781   0.00000  Uiso   1.00
O1088  O     0.52744   0.28301   0.89946   0.00000  Uiso   1.00
O1089  O     0.46780   0.26888   0.85843   0.00000  Uiso   1.00
H1090  H     0.47111   0.30110   0.84590   0.00000  Uiso   1.00
C1091  C     0.55296   0.09445   0.61771   0.00000  Uiso   1.00
O1092  O     0.58765   0.08851   0.60603   0.00000  Uiso   1.00
O1093  O     0.53817   0.06409   0.64830   0.00000  Uiso   1.00
H1094  H     0.55781   0.03744   0.65636   0.00000  Uiso   1.00
C1095  C     0.36558   0.09122   0.79552   0.00000  Uiso   1.00
C1096  C     0.38646   0.04718   0.78133   0.00000  Uiso   1.00
H1097  H     0.38412   0.01978   0.80671   0.00000  Uiso   1.00
H1098  H     0.37170   0.03489   0.74999   0.00000  Uiso   1.00
H1099  H     0.41954   0.05270   0.77805   0.00000  Uiso   1.00
H1100  H     0.38496   0.10833   0.82165   0.00000  Uiso   1.00
H1101  H     0.33740   0.08114   0.81146   0.00000  Uiso   1.00
C1102  C     0.62714   0.25117   0.71396   0.00000  Uiso   1.00
C1103  C     0.61293   0.23891   0.66683   0.00000  Uiso   1.00
H1104  H     0.63884   0.22339   0.65047   0.00000  Uiso   1.00
H1105  H     0.58701   0.21424   0.66582   0.00000  Uiso   1.00
H1106  H     0.60222   0.27071   0.64844   0.00000  Uiso   1.00
H1107  H     0.60152   0.26748   0.72953   0.00000  Uiso   1.00
H1108  H     0.65069   0.27819   0.71170   0.00000  Uiso   1.00
C1109  C     0.63425   0.08962   0.70836   0.00000  Uiso   1.00
C1110  C     0.61812   0.04493   0.72684   0.00000  Uiso   1.00
H1111  H     0.63584   0.03403   0.75752   0.00000  Uiso   1.00
H1112  H     0.58535   0.04889   0.73257   0.00000  Uiso   1.00
H1113  H     0.62029   0.01745   0.70237   0.00000  Uiso   1.00
H1114  H     0.61065   0.10433   0.68402   0.00000  Uiso   1.00
H1115  H     0.66136   0.08129   0.68991   0.00000  Uiso   1.00
C1116  C     0.36927   0.25147   0.78166   0.00000  Uiso   1.00
C1117  C     0.37606   0.23928   0.83039   0.00000  Uiso   1.00
H1118  H     0.34740   0.22504   0.84242   0.00000  Uiso   1.00
H1119  H     0.40133   0.21338   0.83643   0.00000  Uiso   1.00
H1120  H     0.38440   0.27083   0.84910   0.00000  Uiso   1.00
H1121  H     0.39782   0.26570   0.77032   0.00000  Uiso   1.00
H1122  H     0.34673   0.28043   0.77869   0.00000  Uiso   1.00
O1123  O     0.77321   0.20625   0.75000   0.00000  Uiso   1.00
O1124  O     0.89345   0.12709   0.75001   0.00000  Uiso   1.00
O1125  O     0.89345   0.20625   0.75001   0.00000  Uiso   1.00
O1126  O     0.77321   0.12709   0.75000   0.00000  Uiso   1.00
N1127  N     0.83333   0.28402   0.75000   0.00000  Uiso   1.00
N1128  N     0.83333   0.04931   0.75000   0.00000  Uiso   1.00
C1129  C     0.75434   0.16686   0.75401   0.00000  Uiso   1.00
C1130  C     0.91221   0.16671   0.74581   0.00000  Uiso   1.00
O1131  O     0.83333   0.20626   0.68573   0.00000  Uiso   1.00
O1132  O     0.83334   0.12707   0.81427   0.00000  Uiso   1.00
O1133  O     0.83334   0.20626   0.81427   0.00000  Uiso   1.00
O1134  O     0.83333   0.12707   0.68573   0.00000  Uiso   1.00
C1135  C     0.83596   0.16699   0.66520   0.00000  Uiso   1.00
C1136  C     0.83081   0.16645   0.83491   0.00000  Uiso   1.00
Cu1137 Cu    0.83333   0.21355   0.75000   0.00000  Uiso   1.00
Cu1138 Cu    0.83333   0.11978   0.75000   0.00000  Uiso   1.00
C1139  C     0.80773   0.02557   0.72053   0.00000  Uiso   1.00
C1140  C     0.86165   0.30833   0.77692   0.00000  Uiso   1.00
C1141  C     0.85835   0.02408   0.77995   0.00000  Uiso   1.00
C1142  C     0.80458   0.30974   0.72358   0.00000  Uiso   1.00
C1143  C     0.68753   0.12561   0.75865   0.00000  Uiso   1.00
C1144  C     0.97852   0.20937   0.73989   0.00000  Uiso   1.00
C1145  C     0.97951   0.12549   0.74230   0.00000  Uiso   1.00
C1146  C     0.68685   0.20976   0.75573   0.00000  Uiso   1.00
C1147  C     0.82163   0.20312   0.54490   0.00000  Uiso   1.00
C1148  C     0.82589   0.12558   0.95402   0.00000  Uiso   1.00
C1149  C     0.84255   0.20618   0.95287   0.00000  Uiso   1.00
C1150  C     0.85813   0.13060   0.54959   0.00000  Uiso   1.00
H1151  H     0.80706   0.23112   0.52526   0.00000  Uiso   1.00
H1152  H     0.81927   0.09512   0.97312   0.00000  Uiso   1.00
H1153  H     0.85037   0.23755   0.97042   0.00000  Uiso   1.00
H1154  H     0.87305   0.10279   0.53333   0.00000  Uiso   1.00
C1155  C     0.82418   0.20597   0.59022   0.00000  Uiso   1.00
C1156  C     0.82007   0.12522   0.90821   0.00000  Uiso   1.00
C1157  C     0.83572   0.20804   0.90745   0.00000  Uiso   1.00
C1158  C     0.85953   0.13085   0.59542   0.00000  Uiso   1.00
C1159  C     0.84016   0.16791   0.61689   0.00000  Uiso   1.00
C1160  C     0.82782   0.16649   0.88358   0.00000  Uiso   1.00
C1161  C     0.83875   0.16604   0.52436   0.00000  Uiso   1.00
C1162  C     0.83722   0.16548   0.97628   0.00000  Uiso   1.00
C1163  C     0.95703   0.16723   0.74096   0.00000  Uiso   1.00
C1164  C     0.70926   0.16755   0.75794   0.00000  Uiso   1.00
C1165  C     0.78364   0.05012   0.68377   0.00000  Uiso   1.00
O1166  O     0.75295   0.07273   0.69011   0.00000  Uiso   1.00
O1167  O     0.79332   0.04258   0.64090   0.00000  Uiso   1.00
H1168  H     0.77428   0.06003   0.61845   0.00000  Uiso   1.00
C1169  C     0.89839   0.28608   0.80179   0.00000  Uiso   1.00
O1170  O     0.89589   0.25054   0.82292   0.00000  Uiso   1.00
O1171  O     0.93642   0.30822   0.80316   0.00000  Uiso   1.00
H1172  H     0.95830   0.29192   0.82334   0.00000  Uiso   1.00
C1173  C     0.88103   0.04670   0.81771   0.00000  Uiso   1.00
O1174  O     0.90959   0.07262   0.81256   0.00000  Uiso   1.00
O1175  O     0.87242   0.03397   0.85999   0.00000  Uiso   1.00
H1176  H     0.89072   0.05001   0.88332   0.00000  Uiso   1.00
C1177  C     0.76758   0.28875   0.69951   0.00000  Uiso   1.00
O1178  O     0.76951   0.25213   0.68106   0.00000  Uiso   1.00
O1179  O     0.72981   0.31236   0.69659   0.00000  Uiso   1.00
H1180  H     0.70809   0.29674   0.67654   0.00000  Uiso   1.00
C1181  C     0.81194   0.25134   0.60631   0.00000  Uiso   1.00
O1182  O     0.83661   0.27422   0.62887   0.00000  Uiso   1.00
O1183  O     0.77350   0.27010   0.59134   0.00000  Uiso   1.00
H1184  H     0.76896   0.30240   0.60232   0.00000  Uiso   1.00
C1185  C     0.80155   0.08219   0.88966   0.00000  Uiso   1.00
O1186  O     0.78247   0.08246   0.85392   0.00000  Uiso   1.00
O1187  O     0.80344   0.04138   0.91491   0.00000  Uiso   1.00
H1188  H     0.78603   0.01591   0.90100   0.00000  Uiso   1.00
C1189  C     0.83423   0.25519   0.88781   0.00000  Uiso   1.00
O1190  O     0.86078   0.28301   0.89946   0.00000  Uiso   1.00
O1191  O     0.80113   0.26888   0.85843   0.00000  Uiso   1.00
H1192  H     0.80445   0.30110   0.84590   0.00000  Uiso   1.00
C1193  C     0.88629   0.09445   0.61771   0.00000  Uiso   1.00
O1194  O     0.92099   0.08851   0.60603   0.00000  Uiso   1.00
O1195  O     0.87150   0.06409   0.64830   0.00000  Uiso   1.00
H1196  H     0.89114   0.03744   0.65636   0.00000  Uiso   1.00
C1197  C     0.69891   0.09122   0.79552   0.00000  Uiso   1.00
C1198  C     0.71980   0.04718   0.78133   0.00000  Uiso   1.00
H1199  H     0.71745   0.01978   0.80671   0.00000  Uiso   1.00
H1200  H     0.70503   0.03489   0.74999   0.00000  Uiso   1.00
H1201  H     0.75287   0.05270   0.77805   0.00000  Uiso   1.00
H1202  H     0.71830   0.10833   0.82165   0.00000  Uiso   1.00
H1203  H     0.67073   0.08114   0.81146   0.00000  Uiso   1.00
C1204  C     0.96047   0.25117   0.71396   0.00000  Uiso   1.00
C1205  C     0.94626   0.23891   0.66683   0.00000  Uiso   1.00
H1206  H     0.97218   0.22339   0.65047   0.00000  Uiso   1.00
H1207  H     0.92034   0.21424   0.66582   0.00000  Uiso   1.00
H1208  H     0.93555   0.27071   0.64844   0.00000  Uiso   1.00
H1209  H     0.93485   0.26748   0.72953   0.00000  Uiso   1.00
H1210  H     0.98402   0.27819   0.71170   0.00000  Uiso   1.00
C1211  C     0.96758   0.08962   0.70836   0.00000  Uiso   1.00
C1212  C     0.95146   0.04493   0.72684   0.00000  Uiso   1.00
H1213  H     0.96917   0.03403   0.75752   0.00000  Uiso   1.00
H1214  H     0.91869   0.04889   0.73257   0.00000  Uiso   1.00
H1215  H     0.95362   0.01745   0.70237   0.00000  Uiso   1.00
H1216  H     0.94398   0.10433   0.68402   0.00000  Uiso   1.00
H1217  H     0.99469   0.08129   0.68991   0.00000  Uiso   1.00
C1218  C     0.70260   0.25147   0.78166   0.00000  Uiso   1.00
C1219  C     0.70939   0.23928   0.83039   0.00000  Uiso   1.00
H1220  H     0.68073   0.22504   0.84242   0.00000  Uiso   1.00
H1221  H     0.73467   0.21338   0.83643   0.00000  Uiso   1.00
H1222  H     0.71773   0.27083   0.84910   0.00000  Uiso   1.00
H1223  H     0.73115   0.26570   0.77032   0.00000  Uiso   1.00
H1224  H     0.68006   0.28043   0.77869   0.00000  Uiso   1.00
O1225  O     0.10655   0.53958   0.75000   0.00000  Uiso   1.00
O1226  O     0.22679   0.46042   0.75001   0.00000  Uiso   1.00
O1227  O     0.22679   0.53958   0.75001   0.00000  Uiso   1.00
O1228  O     0.10655   0.46042   0.75000   0.00000  Uiso   1.00
N1229  N     0.16667   0.61736   0.75000   0.00000  Uiso   1.00
N1230  N     0.16667   0.38264   0.75000   0.00000  Uiso   1.00
C1231  C     0.08767   0.50019   0.75401   0.00000  Uiso   1.00
C1232  C     0.24554   0.50005   0.74581   0.00000  Uiso   1.00
O1233  O     0.16666   0.53959   0.68573   0.00000  Uiso   1.00
O1234  O     0.16667   0.46041   0.81427   0.00000  Uiso   1.00
O1235  O     0.16667   0.53959   0.81427   0.00000  Uiso   1.00
O1236  O     0.16666   0.46041   0.68573   0.00000  Uiso   1.00
C1237  C     0.16929   0.50033   0.66520   0.00000  Uiso   1.00
C1238  C     0.16414   0.49978   0.83491   0.00000  Uiso   1.00
Cu1239 Cu    0.16667   0.54689   0.75000   0.00000  Uiso   1.00
Cu1240 Cu    0.16667   0.45311   0.75000   0.00000  Uiso   1.00
C1241  C     0.14106   0.35890   0.72053   0.00000  Uiso   1.00
C1242  C     0.19498   0.64166   0.77692   0.00000  Uiso   1.00
C1243  C     0.19168   0.35741   0.77995   0.00000  Uiso   1.00
C1244  C     0.13791   0.64308   0.72358   0.00000  Uiso   1.00
C1245  C     0.02087   0.45894   0.75865   0.00000  Uiso   1.00
C1246  C     0.31185   0.54270   0.73989   0.00000  Uiso   1.00
C1247  C     0.31284   0.45883   0.74230   0.00000  Uiso   1.00
C1248  C     0.02018   0.54309   0.75573   0.00000  Uiso   1.00
C1249  C     0.15496   0.53645   0.54490   0.00000  Uiso   1.00
C1250  C     0.15922   0.45892   0.95402   0.00000  Uiso   1.00
C1251  C     0.17589   0.53951   0.95287   0.00000  Uiso   1.00
C1252  C     0.19146   0.46393   0.54959   0.00000  Uiso   1.00
H1253  H     0.14039   0.56446   0.52526   0.00000  Uiso   1.00
H1254  H     0.15261   0.42846   0.97312   0.00000  Uiso   1.00
H1255  H     0.18370   0.57089   0.97042   0.00000  Uiso   1.00
H1256  H     0.20638   0.43612   0.53333   0.00000  Uiso   1.00
C1257  C     0.15752   0.53930   0.59022   0.00000  Uiso   1.00
C1258  C     0.15340   0.45855   0.90821   0.00000  Uiso   1.00
C1259  C     0.16906   0.54138   0.90745   0.00000  Uiso   1.00
C1260  C     0.19286   0.46418   0.59542   0.00000  Uiso   1.00
C1261  C     0.17349   0.50125   0.61689   0.00000  Uiso   1.00
C1262  C     0.16115   0.49982   0.88358   0.00000  Uiso   1.00
C1263  C     0.17208   0.49937   0.52436   0.00000  Uiso   1.00
C1264  C     0.17055   0.49881   0.97628   0.00000  Uiso   1.00
C1265  C     0.29036   0.50056   0.74096   0.00000  Uiso   1.00
C1266  C     0.04260   0.50089   0.75794   0.00000  Uiso   1.00
C1267  C     0.11697   0.38346   0.68377   0.00000  Uiso   1.00
O1268  O     0.08629   0.40607   0.69011   0.00000  Uiso   1.00
O1269  O     0.12665   0.37591   0.64090   0.00000  Uiso   1.00
H1270  H     0.10761   0.39336   0.61845   0.00000  Uiso   1.00
C1271  C     0.23173   0.61942   0.80179   0.00000  Uiso   1.00
O1272  O     0.22922   0.58388   0.82292   0.00000  Uiso   1.00
O1273  O     0.26975   0.64155   0.80316   0.00000  Uiso   1.00
H1274  H     0.29163   0.62526   0.82334   0.00000  Uiso   1.00
C1275  C     0.21436   0.38004   0.81771   0.00000  Uiso   1.00
O1276  O     0.24292   0.40595   0.81256   0.00000  Uiso   1.00
O1277  O     0.20575   0.36730   0.85999   0.00000  Uiso   1.00
H1278  H     0.22405   0.38335   0.88332   0.00000  Uiso   1.00
C1279  C     0.10091   0.62208   0.69951   0.00000  Uiso   1.00
O1280  O     0.10284   0.58547   0.68106   0.00000  Uiso   1.00
O1281  O     0.06314   0.64569   0.69659   0.00000  Uiso   1.00
H1282  H     0.04142   0.63008   0.67654   0.00000  Uiso   1.00
C1283  C     0.14527   0.58468   0.60631   0.00000  Uiso   1.00
O1284  O     0.16995   0.60756   0.62887   0.00000  Uiso   1.00
O1285  O     0.10683   0.60343   0.59134   0.00000  Uiso   1.00
H1286  H     0.10230   0.63573   0.60232   0.00000  Uiso   1.00
C1287  C     0.13488   0.41552   0.88966   0.00000  Uiso   1.00
O1288  O     0.11580   0.41579   0.85392   0.00000  Uiso   1.00
O1289  O     0.13678   0.37472   0.91491   0.00000  Uiso   1.00
H1290  H     0.11937   0.34924   0.90100   0.00000  Uiso   1.00
C1291  C     0.16756   0.58852   0.88781   0.00000  Uiso   1.00
O1292  O     0.19411   0.61634   0.89946   0.00000  Uiso   1.00
O1293  O     0.13447   0.60221   0.85843   0.00000  Uiso   1.00
H1294  H     0.13778   0.63443   0.84590   0.00000  Uiso   1.00
C1295  C     0.21962   0.42778   0.61771   0.00000  Uiso   1.00
O1296  O     0.25432   0.42185   0.60603   0.00000  Uiso   1.00
O1297  O     0.20484   0.39743   0.64830   0.00000  Uiso   1.00
H1298  H     0.22447   0.37077   0.65636   0.00000  Uiso   1.00
C1299  C     0.03225   0.42456   0.79552   0.00000  Uiso   1.00
C1300  C     0.05313   0.38052   0.78133   0.00000  Uiso   1.00
H1301  H     0.05079   0.35311   0.80671   0.00000  Uiso   1.00
H1302  H     0.03837   0.36823   0.74999   0.00000  Uiso   1.00
H1303  H     0.08620   0.38604   0.77805   0.00000  Uiso   1.00
H1304  H     0.05163   0.44167   0.82165   0.00000  Uiso   1.00
H1305  H     0.00406   0.41447   0.81146   0.00000  Uiso   1.00
C1306  C     0.29381   0.58451   0.71396   0.00000  Uiso   1.00
C1307  C     0.27959   0.57224   0.66683   0.00000  Uiso   1.00
H1308  H     0.30551   0.55673   0.65047   0.00000  Uiso   1.00
H1309  H     0.25367   0.54757   0.66582   0.00000  Uiso   1.00
H1310  H     0.26888   0.60405   0.64844   0.00000  Uiso   1.00
H1311  H     0.26819   0.60082   0.72953   0.00000  Uiso   1.00
H1312  H     0.31735   0.61152   0.71170   0.00000  Uiso   1.00
C1313  C     0.30091   0.42295   0.70836   0.00000  Uiso   1.00
C1314  C     0.28479   0.37826   0.72684   0.00000  Uiso   1.00
H1315  H     0.30251   0.36736   0.75752   0.00000  Uiso   1.00
H1316  H     0.25202   0.38223   0.73257   0.00000  Uiso   1.00
H1317  H     0.28695   0.35079   0.70237   0.00000  Uiso   1.00
H1318  H     0.27731   0.43766   0.68402   0.00000  Uiso   1.00
H1319  H     0.32803   0.41462   0.68991   0.00000  Uiso   1.00
C1320  C     0.03594   0.58480   0.78166   0.00000  Uiso   1.00
C1321  C     0.04273   0.57261   0.83039   0.00000  Uiso   1.00
H1322  H     0.01407   0.55837   0.84242   0.00000  Uiso   1.00
H1323  H     0.06800   0.54671   0.83643   0.00000  Uiso   1.00
H1324  H     0.05107   0.60417   0.84910   0.00000  Uiso   1.00
H1325  H     0.06448   0.59903   0.77032   0.00000  Uiso   1.00
H1326  H     0.01339   0.61376   0.77869   0.00000  Uiso   1.00
O1327  O     0.43988   0.53958   0.75000   0.00000  Uiso   1.00
O1328  O     0.56012   0.46042   0.75001   0.00000  Uiso   1.00
O1329  O     0.56012   0.53958   0.75001   0.00000  Uiso   1.00
O1330  O     0.43988   0.46042   0.75000   0.00000  Uiso   1.00
N1331  N     0.50000   0.61736   0.75000   0.00000  Uiso   1.00
N1332  N     0.50000   0.38264   0.75000   0.00000  Uiso   1.00
C1333  C     0.42101   0.50019   0.75401   0.00000  Uiso   1.00
C1334  C     0.57887   0.50005   0.74581   0.00000  Uiso   1.00
O1335  O     0.50000   0.53959   0.68573   0.00000  Uiso   1.00
O1336  O     0.50000   0.46041   0.81427   0.00000  Uiso   1.00
O1337  O     0.50000   0.53959   0.81427   0.00000  Uiso   1.00
O1338  O     0.50000   0.46041   0.68573   0.00000  Uiso   1.00
C1339  C     0.50262   0.50033   0.66520   0.00000  Uiso   1.00
C1340  C     0.49747   0.49978   0.83491   0.00000  Uiso   1.00
Cu1341 Cu    0.50000   0.54689   0.75000   0.00000  Uiso   1.00
Cu1342 Cu    0.50000   0.45311   0.75000   0.00000  Uiso   1.00
C1343  C     0.47439   0.35890   0.72053   0.00000  Uiso   1.00
C1344  C     0.52831   0.64166   0.77692   0.00000  Uiso   1.00
C1345  C     0.52502   0.35741   0.77995   0.00000  Uiso   1.00
C1346  C     0.47125   0.64308   0.72358   0.00000  Uiso   1.00
C1347  C     0.35420   0.45894   0.75865   0.00000  Uiso   1.00
C1348  C     0.64518   0.54270   0.73989   0.00000  Uiso   1.00
C1349  C     0.64617   0.45883   0.74230   0.00000  Uiso   1.00
C1350  C     0.35352   0.54309   0.75573   0.00000  Uiso   1.00
C1351  C     0.48830   0.53645   0.54490   0.00000  Uiso   1.00
C1352  C     0.49255   0.45892   0.95402   0.00000  Uiso   1.00
C1353  C     0.50922   0.53951   0.95287   0.00000  Uiso   1.00
C1354  C     0.52479   0.46393   0.54959   0.00000  Uiso   1.00
H1355  H     0.47373   0.56446   0.52526   0.00000  Uiso   1.00
H1356  H     0.48594   0.42846   0.97312   0.00000  Uiso   1.00
H1357  H     0.51703   0.57089   0.97042   0.00000  Uiso   1.00
H1358  H     0.53972   0.43612   0.53333   0.00000  Uiso   1.00
C1359  C     0.49085   0.53930   0.59022   0.00000  Uiso   1.00
C1360  C     0.48673   0.45855   0.90821   0.00000  Uiso   1.00
C1361  C     0.50239   0.54138   0.90745   0.00000  Uiso   1.00
C1362  C     0.52620   0.46418   0.59542   0.00000  Uiso   1.00
C1363  C     0.50682   0.50125   0.61689   0.00000  Uiso   1.00
C1364  C     0.49448   0.49982   0.88358   0.00000  Uiso   1.00
C1365  C     0.50541   0.49937   0.52436   0.00000  Uiso   1.00
C1366  C     0.50389   0.49881   0.97628   0.00000  Uiso   1.00
C1367  C     0.62370   0.50056   0.74096   0.00000  Uiso   1.00
C1368  C     0.37593   0.50089   0.75794   0.00000  Uiso   1.00
C1369  C     0.45031   0.38346   0.68377   0.00000  Uiso   1.00
O1370  O     0.41962   0.40607   0.69011   0.00000  Uiso   1.00
O1371  O     0.45998   0.37591   0.64090   0.00000  Uiso   1.00
H1372  H     0.44094   0.39336   0.61845   0.00000  Uiso   1.00
C1373  C     0.56506   0.61942   0.80179   0.00000  Uiso   1.00
O1374  O     0.56256   0.58388   0.82292   0.00000  Uiso   1.00
O1375  O     0.60308   0.64155   0.80316   0.00000  Uiso   1.00
H1376  H     0.62497   0.62526   0.82334   0.00000  Uiso   1.00
C1377  C     0.54769   0.38004   0.81771   0.00000  Uiso   1.00
O1378  O     0.57626   0.40595   0.81256   0.00000  Uiso   1.00
O1379  O     0.53909   0.36730   0.85999   0.00000  Uiso   1.00
H1380  H     0.55739   0.38335   0.88332   0.00000  Uiso   1.00
C1381  C     0.43425   0.62208   0.69951   0.00000  Uiso   1.00
O1382  O     0.43617   0.58547   0.68106   0.00000  Uiso   1.00
O1383  O     0.39648   0.64569   0.69659   0.00000  Uiso   1.00
H1384  H     0.37475   0.63008   0.67654   0.00000  Uiso   1.00
C1385  C     0.47860   0.58468   0.60631   0.00000  Uiso   1.00
O1386  O     0.50328   0.60756   0.62887   0.00000  Uiso   1.00
O1387  O     0.44017   0.60343   0.59134   0.00000  Uiso   1.00
H1388  H     0.43563   0.63573   0.60232   0.00000  Uiso   1.00
C1389  C     0.46822   0.41552   0.88966   0.00000  Uiso   1.00
O1390  O     0.44913   0.41579   0.85392   0.00000  Uiso   1.00
O1391  O     0.47011   0.37472   0.91491   0.00000  Uiso   1.00
H1392  H     0.45270   0.34924   0.90100   0.00000  Uiso   1.00
C1393  C     0.50090   0.58852   0.88781   0.00000  Uiso   1.00
O1394  O     0.52744   0.61634   0.89946   0.00000  Uiso   1.00
O1395  O     0.46780   0.60221   0.85843   0.00000  Uiso   1.00
H1396  H     0.47111   0.63443   0.84590   0.00000  Uiso   1.00
C1397  C     0.55296   0.42778   0.61771   0.00000  Uiso   1.00
O1398  O     0.58765   0.42185   0.60603   0.00000  Uiso   1.00
O1399  O     0.53817   0.39743   0.64830   0.00000  Uiso   1.00
H1400  H     0.55781   0.37077   0.65636   0.00000  Uiso   1.00
C1401  C     0.36558   0.42456   0.79552   0.00000  Uiso   1.00
C1402  C     0.38646   0.38052   0.78133   0.00000  Uiso   1.00
H1403  H     0.38412   0.35311   0.80671   0.00000  Uiso   1.00
H1404  H     0.37170   0.36823   0.74999   0.00000  Uiso   1.00
H1405  H     0.41954   0.38604   0.77805   0.00000  Uiso   1.00
H1406  H     0.38496   0.44167   0.82165   0.00000  Uiso   1.00
H1407  H     0.33740   0.41447   0.81146   0.00000  Uiso   1.00
C1408  C     0.62714   0.58451   0.71396   0.00000  Uiso   1.00
C1409  C     0.61293   0.57224   0.66683   0.00000  Uiso   1.00
H1410  H     0.63884   0.55673   0.65047   0.00000  Uiso   1.00
H1411  H     0.58701   0.54757   0.66582   0.00000  Uiso   1.00
H1412  H     0.60222   0.60405   0.64844   0.00000  Uiso   1.00
H1413  H     0.60152   0.60082   0.72953   0.00000  Uiso   1.00
H1414  H     0.65069   0.61152   0.71170   0.00000  Uiso   1.00
C1415  C     0.63425   0.42295   0.70836   0.00000  Uiso   1.00
C1416  C     0.61812   0.37826   0.72684   0.00000  Uiso   1.00
H1417  H     0.63584   0.36736   0.75752   0.00000  Uiso   1.00
H1418  H     0.58535   0.38223   0.73257   0.00000  Uiso   1.00
H1419  H     0.62029   0.35079   0.70237   0.00000  Uiso   1.00
H1420  H     0.61065   0.43766   0.68402   0.00000  Uiso   1.00
H1421  H     0.66136   0.41462   0.68991   0.00000  Uiso   1.00
C1422  C     0.36927   0.58480   0.78166   0.00000  Uiso   1.00
C1423  C     0.37606   0.57261   0.83039   0.00000  Uiso   1.00
H1424  H     0.34740   0.55837   0.84242   0.00000  Uiso   1.00
H1425  H     0.40133   0.54671   0.83643   0.00000  Uiso   1.00
H1426  H     0.38440   0.60417   0.84910   0.00000  Uiso   1.00
H1427  H     0.39782   0.59903   0.77032   0.00000  Uiso   1.00
H1428  H     0.34673   0.61376   0.77869   0.00000  Uiso   1.00
O1429  O     0.77321   0.53958   0.75000   0.00000  Uiso   1.00
O1430  O     0.89345   0.46042   0.75001   0.00000  Uiso   1.00
O1431  O     0.89345   0.53958   0.75001   0.00000  Uiso   1.00
O1432  O     0.77321   0.46042   0.75000   0.00000  Uiso   1.00
N1433  N     0.83333   0.61736   0.75000   0.00000  Uiso   1.00
N1434  N     0.83333   0.38264   0.75000   0.00000  Uiso   1.00
C1435  C     0.75434   0.50019   0.75401   0.00000  Uiso   1.00
C1436  C     0.91221   0.50005   0.74581   0.00000  Uiso   1.00
O1437  O     0.83333   0.53959   0.68573   0.00000  Uiso   1.00
O1438  O     0.83334   0.46041   0.81427   0.00000  Uiso   1.00
O1439  O     0.83334   0.53959   0.81427   0.00000  Uiso   1.00
O1440  O     0.83333   0.46041   0.68573   0.00000  Uiso   1.00
C1441  C     0.83596   0.50033   0.66520   0.00000  Uiso   1.00
C1442  C     0.83081   0.49978   0.83491   0.00000  Uiso   1.00
Cu1443 Cu    0.83333   0.54689   0.75000   0.00000  Uiso   1.00
Cu1444 Cu    0.83333   0.45311   0.75000   0.00000  Uiso   1.00
C1445  C     0.80773   0.35890   0.72053   0.00000  Uiso   1.00
C1446  C     0.86165   0.64166   0.77692   0.00000  Uiso   1.00
C1447  C     0.85835   0.35741   0.77995   0.00000  Uiso   1.00
C1448  C     0.80458   0.64308   0.72358   0.00000  Uiso   1.00
C1449  C     0.68753   0.45894   0.75865   0.00000  Uiso   1.00
C1450  C     0.97852   0.54270   0.73989   0.00000  Uiso   1.00
C1451  C     0.97951   0.45883   0.74230   0.00000  Uiso   1.00
C1452  C     0.68685   0.54309   0.75573   0.00000  Uiso   1.00
C1453  C     0.82163   0.53645   0.54490   0.00000  Uiso   1.00
C1454  C     0.82589   0.45892   0.95402   0.00000  Uiso   1.00
C1455  C     0.84255   0.53951   0.95287   0.00000  Uiso   1.00
C1456  C     0.85813   0.46393   0.54959   0.00000  Uiso   1.00
H1457  H     0.80706   0.56446   0.52526   0.00000  Uiso   1.00
H1458  H     0.81927   0.42846   0.97312   0.00000  Uiso   1.00
H1459  H     0.85037   0.57089   0.97042   0.00000  Uiso   1.00
H1460  H     0.87305   0.43612   0.53333   0.00000  Uiso   1.00
C1461  C     0.82418   0.53930   0.59022   0.00000  Uiso   1.00
C1462  C     0.82007   0.45855   0.90821   0.00000  Uiso   1.00
C1463  C     0.83572   0.54138   0.90745   0.00000  Uiso   1.00
C1464  C     0.85953   0.46418   0.59542   0.00000  Uiso   1.00
C1465  C     0.84016   0.50125   0.61689   0.00000  Uiso   1.00
C1466  C     0.82782   0.49982   0.88358   0.00000  Uiso   1.00
C1467  C     0.83875   0.49937   0.52436   0.00000  Uiso   1.00
C1468  C     0.83722   0.49881   0.97628   0.00000  Uiso   1.00
C1469  C     0.95703   0.50056   0.74096   0.00000  Uiso   1.00
C1470  C     0.70926   0.50089   0.75794   0.00000  Uiso   1.00
C1471  C     0.78364   0.38346   0.68377   0.00000  Uiso   1.00
O1472  O     0.75295   0.40607   0.69011   0.00000  Uiso   1.00
O1473  O     0.79332   0.37591   0.64090   0.00000  Uiso   1.00
H1474  H     0.77428   0.39336   0.61845   0.00000  Uiso   1.00
C1475  C     0.89839   0.61942   0.80179   0.00000  Uiso   1.00
O1476  O     0.89589   0.58388   0.82292   0.00000  Uiso   1.00
O1477  O     0.93642   0.64155   0.80316   0.00000  Uiso   1.00
H1478  H     0.95830   0.62526   0.82334   0.00000  Uiso   1.00
C1479  C     0.88103   0.38004   0.81771   0.00000  Uiso   1.00
O1480  O     0.90959   0.40595   0.81256   0.00000  Uiso   1.00
O1481  O     0.87242   0.36730   0.85999   0.00000  Uiso   1.00
H1482  H     0.89072   0.38335   0.88332   0.00000  Uiso   1.00
C1483  C     0.76758   0.62208   0.69951   0.00000  Uiso   1.00
O1484  O     0.76951   0.58547   0.68106   0.00000  Uiso   1.00
O1485  O     0.72981   0.64569   0.69659   0.00000  Uiso   1.00
H1486  H     0.70809   0.63008   0.67654   0.00000  Uiso   1.00
C1487  C     0.81194   0.58468   0.60631   0.00000  Uiso   1.00
O1488  O     0.83661   0.60756   0.62887   0.00000  Uiso   1.00
O1489  O     0.77350   0.60343   0.59134   0.00000  Uiso   1.00
H1490  H     0.76896   0.63573   0.60232   0.00000  Uiso   1.00
C1491  C     0.80155   0.41552   0.88966   0.00000  Uiso   1.00
O1492  O     0.78247   0.41579   0.85392   0.00000  Uiso   1.00
O1493  O     0.80344   0.37472   0.91491   0.00000  Uiso   1.00
H1494  H     0.78603   0.34924   0.90100   0.00000  Uiso   1.00
C1495  C     0.83423   0.58852   0.88781   0.00000  Uiso   1.00
O1496  O     0.86078   0.61634   0.89946   0.00000  Uiso   1.00
O1497  O     0.80113   0.60221   0.85843   0.00000  Uiso   1.00
H1498  H     0.80445   0.63443   0.84590   0.00000  Uiso   1.00
C1499  C     0.88629   0.42778   0.61771   0.00000  Uiso   1.00
O1500  O     0.92099   0.42185   0.60603   0.00000  Uiso   1.00
O1501  O     0.87150   0.39743   0.64830   0.00000  Uiso   1.00
H1502  H     0.89114   0.37077   0.65636   0.00000  Uiso   1.00
C1503  C     0.69891   0.42456   0.79552   0.00000  Uiso   1.00
C1504  C     0.71980   0.38052   0.78133   0.00000  Uiso   1.00
H1505  H     0.71745   0.35311   0.80671   0.00000  Uiso   1.00
H1506  H     0.70503   0.36823   0.74999   0.00000  Uiso   1.00
H1507  H     0.75287   0.38604   0.77805   0.00000  Uiso   1.00
H1508  H     0.71830   0.44167   0.82165   0.00000  Uiso   1.00
H1509  H     0.67073   0.41447   0.81146   0.00000  Uiso   1.00
C1510  C     0.96047   0.58451   0.71396   0.00000  Uiso   1.00
C1511  C     0.94626   0.57224   0.66683   0.00000  Uiso   1.00
H1512  H     0.97218   0.55673   0.65047   0.00000  Uiso   1.00
H1513  H     0.92034   0.54757   0.66582   0.00000  Uiso   1.00
H1514  H     0.93555   0.60405   0.64844   0.00000  Uiso   1.00
H1515  H     0.93485   0.60082   0.72953   0.00000  Uiso   1.00
H1516  H     0.98402   0.61152   0.71170   0.00000  Uiso   1.00
C1517  C     0.96758   0.42295   0.70836   0.00000  Uiso   1.00
C1518  C     0.95146   0.37826   0.72684   0.00000  Uiso   1.00
H1519  H     0.96917   0.36736   0.75752   0.00000  Uiso   1.00
H1520  H     0.91869   0.38223   0.73257   0.00000  Uiso   1.00
H1521  H     0.95362   0.35079   0.70237   0.00000  Uiso   1.00
H1522  H     0.94398   0.43766   0.68402   0.00000  Uiso   1.00
H1523  H     0.99469   0.41462   0.68991   0.00000  Uiso   1.00
C1524  C     0.70260   0.58480   0.78166   0.00000  Uiso   1.00
C1525  C     0.70939   0.57261   0.83039   0.00000  Uiso   1.00
H1526  H     0.68073   0.55837   0.84242   0.00000  Uiso   1.00
H1527  H     0.73467   0.54671   0.83643   0.00000  Uiso   1.00
H1528  H     0.71773   0.60417   0.84910   0.00000  Uiso   1.00
H1529  H     0.73115   0.59903   0.77032   0.00000  Uiso   1.00
H1530  H     0.68006   0.61376   0.77869   0.00000  Uiso   1.00
O1531  O     0.10655   0.87291   0.75000   0.00000  Uiso   1.00
O1532  O     0.22679   0.79375   0.75001   0.00000  Uiso   1.00
O1533  O     0.22679   0.87291   0.75001   0.00000  Uiso   1.00
O1534  O     0.10655   0.79375   0.75000   0.00000  Uiso   1.00
N1535  N     0.16667   0.95069   0.75000   0.00000  Uiso   1.00
N1536  N     0.16667   0.71598   0.75000   0.00000  Uiso   1.00
C1537  C     0.08767   0.83353   0.75401   0.00000  Uiso   1.00
C1538  C     0.24554   0.83338   0.74581   0.00000  Uiso   1.00
O1539  O     0.16666   0.87293   0.68573   0.00000  Uiso   1.00
O1540  O     0.16667   0.79374   0.81427   0.00000  Uiso   1.00
O1541  O     0.16667   0.87293   0.81427   0.00000  Uiso   1.00
O1542  O     0.16666   0.79374   0.68573   0.00000  Uiso   1.00
C1543  C     0.16929   0.83366   0.66520   0.00000  Uiso   1.00
C1544  C     0.16414   0.83312   0.83491   0.00000  Uiso   1.00
Cu1545 Cu    0.16667   0.88022   0.75000   0.00000  Uiso   1.00
Cu1546 Cu    0.16667   0.78645   0.75000   0.00000  Uiso   1.00
C1547  C     0.14106   0.69223   0.72053   0.00000  Uiso   1.00
C1548  C     0.19498   0.97499   0.77692   0.00000  Uiso   1.00
C1549  C     0.19168   0.69075   0.77995   0.00000  Uiso   1.00
C1550  C     0.13791   0.97641   0.72358   0.00000  Uiso   1.00
C1551  C     0.02087   0.79228   0.75865   0.00000  Uiso   1.00
C1552  C     0.31185   0.87604   0.73989   0.00000  Uiso   1.00
C1553  C     0.31284   0.79216   0.74230   0.00000  Uiso   1.00
C1554  C     0.02018   0.87642   0.75573   0.00000  Uiso   1.00
C1555  C     0.15496   0.86978   0.54490   0.00000  Uiso   1.00
C1556  C     0.15922   0.79225   0.95402   0.00000  Uiso   1.00
C1557  C     0.17589   0.87284   0.95287   0.00000  Uiso   1.00
C1558  C     0.19146   0.79726   0.54959   0.00000  Uiso   1.00
H1559  H     0.14039   0.89779   0.52526   0.00000  Uiso   1.00
H1560  H     0.15261   0.76179   0.97312   0.00000  Uiso   1.00
H1561  H     0.18370   0.90422   0.97042   0.00000  Uiso   1.00
H1562  H     0.20638   0.76946   0.53333   0.00000  Uiso   1.00
C1563  C     0.15752   0.87264   0.59022   0.00000  Uiso   1.00
C1564  C     0.15340   0.79189   0.90821   0.00000  Uiso   1.00
C1565  C     0.16906   0.87471   0.90745   0.00000  Uiso   1.00
C1566  C     0.19286   0.79751   0.59542   0.00000  Uiso   1.00
C1567  C     0.17349   0.83458   0.61689   0.00000  Uiso   1.00
C1568  C     0.16115   0.83316   0.88358   0.00000  Uiso   1.00
C1569  C     0.17208   0.83271   0.52436   0.00000  Uiso   1.00
C1570  C     0.17055   0.83215   0.97628   0.00000  Uiso   1.00
C1571  C     0.29036   0.83390   0.74096   0.00000  Uiso   1.00
C1572  C     0.04260   0.83422   0.75794   0.00000  Uiso   1.00
C1573  C     0.11697   0.71679   0.68377   0.00000  Uiso   1.00
O1574  O     0.08629   0.73940   0.69011   0.00000  Uiso   1.00
O1575  O     0.12665   0.70924   0.64090   0.00000  Uiso   1.00
H1576  H     0.10761   0.72669   0.61845   0.00000  Uiso   1.00
C1577  C     0.23173   0.95275   0.80179   0.00000  Uiso   1.00
O1578  O     0.22922   0.91721   0.82292   0.00000  Uiso   1.00
O1579  O     0.26975   0.97489   0.80316   0.00000  Uiso   1.00
H1580  H     0.29163   0.95859   0.82334   0.00000  Uiso   1.00
C1581  C     0.21436   0.71337   0.81771   0.00000  Uiso   1.00
O1582  O     0.24292   0.73928   0.81256   0.00000  Uiso   1.00
O1583  O     0.20575   0.70064   0.85999   0.00000  Uiso   1.00
H1584  H     0.22405   0.71668   0.88332   0.00000  Uiso   1.00
C1585  C     0.10091   0.95541   0.69951   0.00000  Uiso   1.00
O1586  O     0.10284   0.91880   0.68106   0.00000  Uiso   1.00
O1587  O     0.06314   0.97903   0.69659   0.00000  Uiso   1.00
H1588  H     0.04142   0.96341   0.67654   0.00000  Uiso   1.00
C1589  C     0.14527   0.91801   0.60631   0.00000  Uiso   1.00
O1590  O     0.16995   0.94089   0.62887   0.00000  Uiso   1.00
O1591  O     0.10683   0.93677   0.59134   0.00000  Uiso   1.00
H1592  H     0.10230   0.96906   0.60232   0.00000  Uiso   1.00
C1593  C     0.13488   0.74885   0.88966   0.00000  Uiso   1.00
O1594  O     0.11580   0.74913   0.85392   0.00000  Uiso   1.00
O1595  O     0.13678   0.70805   0.91491   0.00000  Uiso   1.00
H1596  H     0.11937   0.68257   0.90100   0.00000  Uiso   1.00
C1597  C     0.16756   0.92185   0.88781   0.00000  Uiso   1.00
O1598  O     0.19411   0.94967   0.89946   0.00000  Uiso   1.00
O1599  O     0.13447   0.93554   0.85843   0.00000  Uiso   1.00
H1600  H     0.13778   0.96776   0.84590   0.00000  Uiso   1.00
C1601  C     0.21962   0.76112   0.61771   0.00000  Uiso   1.00
O1602  O     0.25432   0.75518   0.60603   0.00000  Uiso   1.00
O1603  O     0.20484   0.73076   0.64830   0.00000  Uiso   1.00
H1604  H     0.22447   0.70410   0.65636   0.00000  Uiso   1.00
C1605  C     0.03225   0.75789   0.79552   0.00000  Uiso   1.00
C1606  C     0.05313   0.71385   0.78133   0.00000  Uiso   1.00
H1607  H     0.05079   0.68644   0.80671   0.00000  Uiso   1.00
H1608  H     0.03837   0.70156   0.74999   0.00000  Uiso   1.00
H1609  H     0.08620   0.71937   0.77805   0.00000  Uiso   1.00
H1610  H     0.05163   0.77500   0.82165   0.00000  Uiso   1.00
H1611  H     0.00406   0.74781   0.81146   0.00000  Uiso   1.00
C1612  C     0.29381   0.91784   0.71396   0.00000  Uiso   1.00
C1613  C     0.27959   0.90558   0.66683   0.00000  Uiso   1.00
H1614  H     0.30551   0.89006   0.65047   0.00000  Uiso   1.00
H1615  H     0.25367   0.88090   0.66582   0.00000  Uiso   1.00
H1616  H     0.26888   0.93738   0.64844   0.00000  Uiso   1.00
H1617  H     0.26819   0.93415   0.72953   0.00000  Uiso   1.00
H1618  H     0.31735   0.94486   0.71170   0.00000  Uiso   1.00
C1619  C     0.30091   0.75628   0.70836   0.00000  Uiso   1.00
C1620  C     0.28479   0.71160   0.72684   0.00000  Uiso   1.00
H1621  H     0.30251   0.70069   0.75752   0.00000  Uiso   1.00
H1622  H     0.25202   0.71556   0.73257   0.00000  Uiso   1.00
H1623  H     0.28695   0.68412   0.70237   0.00000  Uiso   1.00
H1624  H     0.27731   0.77100   0.68402   0.00000  Uiso   1.00
H1625  H     0.32803   0.74795   0.68991   0.00000  Uiso   1.00
C1626  C     0.03594   0.91813   0.78166   0.00000  Uiso   1.00
C1627  C     0.04273   0.90594   0.83039   0.00000  Uiso   1.00
H1628  H     0.01407   0.89170   0.84242   0.00000  Uiso   1.00
H1629  H     0.06800   0.88005   0.83643   0.00000  Uiso   1.00
H1630  H     0.05107   0.93750   0.84910   0.00000  Uiso   1.00
H1631  H     0.06448   0.93236   0.77032   0.00000  Uiso   1.00
H1632  H     0.01339   0.94710   0.77869   0.00000  Uiso   1.00
O1633  O     0.43988   0.87291   0.75000   0.00000  Uiso   1.00
O1634  O     0.56012   0.79375   0.75001   0.00000  Uiso   1.00
O1635  O     0.56012   0.87291   0.75001   0.00000  Uiso   1.00
O1636  O     0.43988   0.79375   0.75000   0.00000  Uiso   1.00
N1637  N     0.50000   0.95069   0.75000   0.00000  Uiso   1.00
N1638  N     0.50000   0.71598   0.75000   0.00000  Uiso   1.00
C1639  C     0.42101   0.83353   0.75401   0.00000  Uiso   1.00
C1640  C     0.57887   0.83338   0.74581   0.00000  Uiso   1.00
O1641  O     0.50000   0.87293   0.68573   0.00000  Uiso   1.00
O1642  O     0.50000   0.79374   0.81427   0.00000  Uiso   1.00
O1643  O     0.50000   0.87293   0.81427   0.00000  Uiso   1.00
O1644  O     0.50000   0.79374   0.68573   0.00000  Uiso   1.00
C1645  C     0.50262   0.83366   0.66520   0.00000  Uiso   1.00
C1646  C     0.49747   0.83312   0.83491   0.00000  Uiso   1.00
Cu1647 Cu    0.50000   0.88022   0.75000   0.00000  Uiso   1.00
Cu1648 Cu    0.50000   0.78645   0.75000   0.00000  Uiso   1.00
C1649  C     0.47439   0.69223   0.72053   0.00000  Uiso   1.00
C1650  C     0.52831   0.97499   0.77692   0.00000  Uiso   1.00
C1651  C     0.52502   0.69075   0.77995   0.00000  Uiso   1.00
C1652  C     0.47125   0.97641   0.72358   0.00000  Uiso   1.00
C1653  C     0.35420   0.79228   0.75865   0.00000  Uiso   1.00
C1654  C     0.64518   0.87604   0.73989   0.00000  Uiso   1.00
C1655  C     0.64617   0.79216   0.74230   0.00000  Uiso   1.00
C1656  C     0.35352   0.87642   0.75573   0.00000  Uiso   1.00
C1657  C     0.48830   0.86978   0.54490   0.00000  Uiso   1.00
C1658  C     0.49255   0.79225   0.95402   0.00000  Uiso   1.00
C1659  C     0.50922   0.87284   0.95287   0.00000  Uiso   1.00
C1660  C     0.52479   0.79726   0.54959   0.00000  Uiso   1.00
H1661  H     0.47373   0.89779   0.52526   0.00000  Uiso   1.00
H1662  H     0.48594   0.76179   0.97312   0.00000  Uiso   1.00
H1663  H     0.51703   0.90422   0.97042   0.00000  Uiso   1.00
H1664  H     0.53972   0.76946   0.53333   0.00000  Uiso   1.00
C1665  C     0.49085   0.87264   0.59022   0.00000  Uiso   1.00
C1666  C     0.48673   0.79189   0.90821   0.00000  Uiso   1.00
C1667  C     0.50239   0.87471   0.90745   0.00000  Uiso   1.00
C1668  C     0.52620   0.79751   0.59542   0.00000  Uiso   1.00
C1669  C     0.50682   0.83458   0.61689   0.00000  Uiso   1.00
C1670  C     0.49448   0.83316   0.88358   0.00000  Uiso   1.00
C1671  C     0.50541   0.83271   0.52436   0.00000  Uiso   1.00
C1672  C     0.50389   0.83215   0.97628   0.00000  Uiso   1.00
C1673  C     0.62370   0.83390   0.74096   0.00000  Uiso   1.00
C1674  C     0.37593   0.83422   0.75794   0.00000  Uiso   1.00
C1675  C     0.45031   0.71679   0.68377   0.00000  Uiso   1.00
O1676  O     0.41962   0.73940   0.69011   0.00000  Uiso   1.00
O1677  O     0.45998   0.70924   0.64090   0.00000  Uiso   1.00
H1678  H     0.44094   0.72669   0.61845   0.00000  Uiso   1.00
C1679  C     0.56506   0.95275   0.80179   0.00000  Uiso   1.00
O1680  O     0.56256   0.91721   0.82292   0.00000  Uiso   1.00
O1681  O     0.60308   0.97489   0.80316   0.00000  Uiso   1.00
H1682  H     0.62497   0.95859   0.82334   0.00000  Uiso   1.00
C1683  C     0.54769   0.71337   0.81771   0.00000  Uiso   1.00
O1684  O     0.57626   0.73928   0.81256   0.00000  Uiso   1.00
O1685  O     0.53909   0.70064   0.85999   0.00000  Uiso   1.00
H1686  H     0.55739   0.71668   0.88332   0.00000  Uiso   1.00
C1687  C     0.43425   0.95541   0.69951   0.00000  Uiso   1.00
O1688  O     0.43617   0.91880   0.68106   0.00000  Uiso   1.00
O1689  O     0.39648   0.97903   0.69659   0.00000  Uiso   1.00
H1690  H     0.37475   0.96341   0.67654   0.00000  Uiso   1.00
C1691  C     0.47860   0.91801   0.60631   0.00000  Uiso   1.00
O1692  O     0.50328   0.94089   0.62887   0.00000  Uiso   1.00
O1693  O     0.44017   0.93677   0.59134   0.00000  Uiso   1.00
H1694  H     0.43563   0.96906   0.60232   0.00000  Uiso   1.00
C1695  C     0.46822   0.74885   0.88966   0.00000  Uiso   1.00
O1696  O     0.44913   0.74913   0.85392   0.00000  Uiso   1.00
O1697  O     0.47011   0.70805   0.91491   0.00000  Uiso   1.00
H1698  H     0.45270   0.68257   0.90100   0.00000  Uiso   1.00
C1699  C     0.50090   0.92185   0.88781   0.00000  Uiso   1.00
O1700  O     0.52744   0.94967   0.89946   0.00000  Uiso   1.00
O1701  O     0.46780   0.93554   0.85843   0.00000  Uiso   1.00
H1702  H     0.47111   0.96776   0.84590   0.00000  Uiso   1.00
C1703  C     0.55296   0.76112   0.61771   0.00000  Uiso   1.00
O1704  O     0.58765   0.75518   0.60603   0.00000  Uiso   1.00
O1705  O     0.53817   0.73076   0.64830   0.00000  Uiso   1.00
H1706  H     0.55781   0.70410   0.65636   0.00000  Uiso   1.00
C1707  C     0.36558   0.75789   0.79552   0.00000  Uiso   1.00
C1708  C     0.38646   0.71385   0.78133   0.00000  Uiso   1.00
H1709  H     0.38412   0.68644   0.80671   0.00000  Uiso   1.00
H1710  H     0.37170   0.70156   0.74999   0.00000  Uiso   1.00
H1711  H     0.41954   0.71937   0.77805   0.00000  Uiso   1.00
H1712  H     0.38496   0.77500   0.82165   0.00000  Uiso   1.00
H1713  H     0.33740   0.74781   0.81146   0.00000  Uiso   1.00
C1714  C     0.62714   0.91784   0.71396   0.00000  Uiso   1.00
C1715  C     0.61293   0.90558   0.66683   0.00000  Uiso   1.00
H1716  H     0.63884   0.89006   0.65047   0.00000  Uiso   1.00
H1717  H     0.58701   0.88090   0.66582   0.00000  Uiso   1.00
H1718  H     0.60222   0.93738   0.64844   0.00000  Uiso   1.00
H1719  H     0.60152   0.93415   0.72953   0.00000  Uiso   1.00
H1720  H     0.65069   0.94486   0.71170   0.00000  Uiso   1.00
C1721  C     0.63425   0.75628   0.70836   0.00000  Uiso   1.00
C1722  C     0.61812   0.71160   0.72684   0.00000  Uiso   1.00
H1723  H     0.63584   0.70069   0.75752   0.00000  Uiso   1.00
H1724  H     0.58535   0.71556   0.73257   0.00000  Uiso   1.00
H1725  H     0.62029   0.68412   0.70237   0.00000  Uiso   1.00
H1726  H     0.61065   0.77100   0.68402   0.00000  Uiso   1.00
H1727  H     0.66136   0.74795   0.68991   0.00000  Uiso   1.00
C1728  C     0.36927   0.91813   0.78166   0.00000  Uiso   1.00
C1729  C     0.37606   0.90594   0.83039   0.00000  Uiso   1.00
H1730  H     0.34740   0.89170   0.84242   0.00000  Uiso   1.00
H1731  H     0.40133   0.88005   0.83643   0.00000  Uiso   1.00
H1732  H     0.38440   0.93750   0.84910   0.00000  Uiso   1.00
H1733  H     0.39782   0.93236   0.77032   0.00000  Uiso   1.00
H1734  H     0.34673   0.94710   0.77869   0.00000  Uiso   1.00
O1735  O     0.77321   0.87291   0.75000   0.00000  Uiso   1.00
O1736  O     0.89345   0.79375   0.75001   0.00000  Uiso   1.00
O1737  O     0.89345   0.87291   0.75001   0.00000  Uiso   1.00
O1738  O     0.77321   0.79375   0.75000   0.00000  Uiso   1.00
N1739  N     0.83333   0.95069   0.75000   0.00000  Uiso   1.00
N1740  N     0.83333   0.71598   0.75000   0.00000  Uiso   1.00
C1741  C     0.75434   0.83353   0.75401   0.00000  Uiso   1.00
C1742  C     0.91221   0.83338   0.74581   0.00000  Uiso   1.00
O1743  O     0.83333   0.87293   0.68573   0.00000  Uiso   1.00
O1744  O     0.83334   0.79374   0.81427   0.00000  Uiso   1.00
O1745  O     0.83334   0.87293   0.81427   0.00000  Uiso   1.00
O1746  O     0.83333   0.79374   0.68573   0.00000  Uiso   1.00
C1747  C     0.83596   0.83366   0.66520   0.00000  Uiso   1.00
C1748  C     0.83081   0.83312   0.83491   0.00000  Uiso   1.00
Cu1749 Cu    0.83333   0.88022   0.75000   0.00000  Uiso   1.00
Cu1750 Cu    0.83333   0.78645   0.75000   0.00000  Uiso   1.00
C1751  C     0.80773   0.69223   0.72053   0.00000  Uiso   1.00
C1752  C     0.86165   0.97499   0.77692   0.00000  Uiso   1.00
C1753  C     0.85835   0.69075   0.77995   0.00000  Uiso   1.00
C1754  C     0.80458   0.97641   0.72358   0.00000  Uiso   1.00
C1755  C     0.68753   0.79228   0.75865   0.00000  Uiso   1.00
C1756  C     0.97852   0.87604   0.73989   0.00000  Uiso   1.00
C1757  C     0.97951   0.79216   0.74230   0.00000  Uiso   1.00
C1758  C     0.68685   0.87642   0.75573   0.00000  Uiso   1.00
C1759  C     0.82163   0.86978   0.54490   0.00000  Uiso   1.00
C1760  C     0.82589   0.79225   0.95402   0.00000  Uiso   1.00
C1761  C     0.84255   0.87284   0.95287   0.00000  Uiso   1.00
C1762  C     0.85813   0.79726   0.54959   0.00000  Uiso   1.00
H1763  H     0.80706   0.89779   0.52526   0.00000  Uiso   1.00
H1764  H     0.81927   0.76179   0.97312   0.00000  Uiso   1.00
H1765  H     0.85037   0.90422   0.97042   0.00000  Uiso   1.00
H1766  H     0.87305   0.76946   0.53333   0.00000  Uiso   1.00
C1767  C     0.82418   0.87264   0.59022   0.00000  Uiso   1.00
C1768  C     0.82007   0.79189   0.90821   0.00000  Uiso   1.00
C1769  C     0.83572   0.87471   0.90745   0.00000  Uiso   1.00
C1770  C     0.85953   0.79751   0.59542   0.00000  Uiso   1.00
C1771  C     0.84016   0.83458   0.61689   0.00000  Uiso   1.00
C1772  C     0.82782   0.83316   0.88358   0.00000  Uiso   1.00
C1773  C     0.83875   0.83271   0.52436   0.00000  Uiso   1.00
C1774  C     0.83722   0.83215   0.97628   0.00000  Uiso   1.00
C1775  C     0.95703   0.83390   0.74096   0.00000  Uiso   1.00
C1776  C     0.70926   0.83422   0.75794   0.00000  Uiso   1.00
C1777  C     0.78364   0.71679   0.68377   0.00000  Uiso   1.00
O1778  O     0.75295   0.73940   0.69011   0.00000  Uiso   1.00
O1779  O     0.79332   0.70924   0.64090   0.00000  Uiso   1.00
H1780  H     0.77428   0.72669   0.61845   0.00000  Uiso   1.00
C1781  C     0.89839   0.95275   0.80179   0.00000  Uiso   1.00
O1782  O     0.89589   0.91721   0.82292   0.00000  Uiso   1.00
O1783  O     0.93642   0.97489   0.80316   0.00000  Uiso   1.00
H1784  H     0.95830   0.95859   0.82334   0.00000  Uiso   1.00
C1785  C     0.88103   0.71337   0.81771   0.00000  Uiso   1.00
O1786  O     0.90959   0.73928   0.81256   0.00000  Uiso   1.00
O1787  O     0.87242   0.70064   0.85999   0.00000  Uiso   1.00
H1788  H     0.89072   0.71668   0.88332   0.00000  Uiso   1.00
C1789  C     0.76758   0.95541   0.69951   0.00000  Uiso   1.00
O1790  O     0.76951   0.91880   0.68106   0.00000  Uiso   1.00
O1791  O     0.72981   0.97903   0.69659   0.00000  Uiso   1.00
H1792  H     0.70809   0.96341   0.67654   0.00000  Uiso   1.00
C1793  C     0.81194   0.91801   0.60631   0.00000  Uiso   1.00
O1794  O     0.83661   0.94089   0.62887   0.00000  Uiso   1.00
O1795  O     0.77350   0.93677   0.59134   0.00000  Uiso   1.00
H1796  H     0.76896   0.96906   0.60232   0.00000  Uiso   1.00
C1797  C     0.80155   0.74885   0.88966   0.00000  Uiso   1.00
O1798  O     0.78247   0.74913   0.85392   0.00000  Uiso   1.00
O1799  O     0.80344   0.70805   0.91491   0.00000  Uiso   1.00
H1800  H     0.78603   0.68257   0.90100   0.00000  Uiso   1.00
C1801  C     0.83423   0.92185   0.88781   0.00000  Uiso   1.00
O1802  O     0.86078   0.94967   0.89946   0.00000  Uiso   1.00
O1803  O     0.80113   0.93554   0.85843   0.00000  Uiso   1.00
H1804  H     0.80445   0.96776   0.84590   0.00000  Uiso   1.00
C1805  C     0.88629   0.76112   0.61771   0.00000  Uiso   1.00
O1806  O     0.92099   0.75518   0.60603   0.00000  Uiso   1.00
O1807  O     0.87150   0.73076   0.64830   0.00000  Uiso   1.00
H1808  H     0.89114   0.70410   0.65636   0.00000  Uiso   1.00
C1809  C     0.69891   0.75789   0.79552   0.00000  Uiso   1.00
C1810  C     0.71980   0.71385   0.78133   0.00000  Uiso   1.00
H1811  H     0.71745   0.68644   0.80671   0.00000  Uiso   1.00
H1812  H     0.70503   0.70156   0.74999   0.00000  Uiso   1.00
H1813  H     0.75287   0.71937   0.77805   0.00000  Uiso   1.00
H1814  H     0.71830   0.77500   0.82165   0.00000  Uiso   1.00
H1815  H     0.67073   0.74781   0.81146   0.00000  Uiso   1.00
C1816  C     0.96047   0.91784   0.71396   0.00000  Uiso   1.00
C1817  C     0.94626   0.90558   0.66683   0.00000  Uiso   1.00
H1818  H     0.97218   0.89006   0.65047   0.00000  Uiso   1.00
H1819  H     0.92034   0.88090   0.66582   0.00000  Uiso   1.00
H1820  H     0.93555   0.93738   0.64844   0.00000  Uiso   1.00
H1821  H     0.93485   0.93415   0.72953   0.00000  Uiso   1.00
H1822  H     0.98402   0.94486   0.71170   0.00000  Uiso   1.00
C1823  C     0.96758   0.75628   0.70836   0.00000  Uiso   1.00
C1824  C     0.95146   0.71160   0.72684   0.00000  Uiso   1.00
H1825  H     0.96917   0.70069   0.75752   0.00000  Uiso   1.00
H1826  H     0.91869   0.71556   0.73257   0.00000  Uiso   1.00
H1827  H     0.95362   0.68412   0.70237   0.00000  Uiso   1.00
H1828  H     0.94398   0.77100   0.68402   0.00000  Uiso   1.00
H1829  H     0.99469   0.74795   0.68991   0.00000  Uiso   1.00
C1830  C     0.70260   0.91813   0.78166   0.00000  Uiso   1.00
C1831  C     0.70939   0.90594   0.83039   0.00000  Uiso   1.00
H1832  H     0.68073   0.89170   0.84242   0.00000  Uiso   1.00
H1833  H     0.73467   0.88005   0.83643   0.00000  Uiso   1.00
H1834  H     0.71773   0.93750   0.84910   0.00000  Uiso   1.00
H1835  H     0.73115   0.93236   0.77032   0.00000  Uiso   1.00
H1836  H     0.68006   0.94710   0.77869   0.00000  Uiso   1.00
loop_
_geom_bond_atom_site_label_1
_geom_bond_atom_site_label_2
_geom_bond_distance
_geom_bond_site_symmetry_2
_ccdc_geom_bond_type
O1     Cu15    1.971   .     S
O1     C7      1.309   .     A
O2     Cu16    1.971   .     S
O2     C8      1.314   .     A
O3     C8      1.305   .     A
O3     Cu15    1.967   .     S
O4     Cu16    1.967   .     S
O4     C7      1.312   .     A
N5     C20     1.390   .     A
N5     C18     1.390   .     A
N5     Cu15    2.040   .     S
N6     C19     1.374   .     A
N6     C17     1.375   .     A
N6     Cu16    2.040   .     S
C7     C42     1.482   .     S
C8     C41     1.479   .     S
O9     C13     1.313   .     A
O9     Cu15    1.985   .     S
O10    C14     1.317   .     A
O10    Cu16    1.985   .     S
O11    C14     1.313   .     A
O11    Cu15    1.979   .     S
O12    Cu16    1.979   .     S
O12    C13     1.314   .     A
C13    C37     1.498   .     S
C14    C38     1.503   .     S
Cu15   Cu16    2.714   .     S
C17    C43     1.488   .     S
C17    C632    1.430   1_545 S
C18    C47     1.500   .     S
C18    C325    1.429   .     S
C19    C51     1.486   .     S
C19    C630    1.429   1_545 S
C20    C55     1.500   .     S
C20    C323    1.430   .     S
C21    C42     1.411   .     A
C21    C75     1.516   .     S
C21    C227    1.399   1_455 S
C22    C82     1.524   .     S
C22    C41     1.413   .     A
C22    C126    1.404   .     S
C23    C89     1.512   .     S
C23    C41     1.405   .     A
C23    C123    1.399   .     S
C24    C42     1.415   .     A
C24    C96     1.526   .     S
C24    C226    1.404   1_455 S
C25    H29     1.085   .     S
C25    C39     1.388   .     A
C25    C33     1.389   .     A
C26    C34     1.402   .     A
C26    H30     1.084   .     S
C26    C40     1.388   .     A
C27    H31     1.085   .     S
C27    C35     1.392   .     A
C27    C40     1.390   .     A
C28    H32     1.085   .     S
C28    C39     1.391   .     A
C28    C36     1.402   .     A
C33    C59     1.473   .     S
C33    C37     1.430   .     A
C34    C38     1.438   .     A
C34    C63     1.489   .     S
C35    C38     1.432   .     A
C35    C67     1.482   .     S
C36    C37     1.435   .     A
C36    C71     1.484   .     S
C39    C958    1.471   1_554 S
C40    C957    1.471   .     S
C43    O44     1.220   .     D
C43    O45     1.396   .     S
O45    H46     1.014   .     S
C47    O49     1.397   .     S
C47    O48     1.214   .     D
O49    H50     1.013   .     S
C51    O52     1.219   .     D
C51    O53     1.393   .     S
O53    H54     1.014   .     S
C55    O56     1.212   .     D
C55    O57     1.397   .     S
O57    H58     1.013   .     S
C59    O60     1.223   .     D
C59    O61     1.400   .     S
O61    H62     1.012   .     S
C63    O65     1.400   .     S
C63    O64     1.215   .     D
O65    H66     1.012   .     S
C67    O68     1.222   .     D
C67    O69     1.398   .     S
O69    H70     1.013   .     S
C71    O73     1.392   .     S
C71    O72     1.224   .     D
O73    H74     1.012   .     S
C75    H80     1.105   .     S
C75    H81     1.113   .     S
C75    C76     1.525   .     S
C76    H79     1.102   .     S
C76    H78     1.105   .     S
C76    H77     1.110   .     S
C82    C83     1.529   .     S
C82    H88     1.105   .     S
C82    H87     1.101   .     S
C83    H84     1.111   .     S
C83    H85     1.109   .     S
C83    H86     1.111   .     S
C89    H95     1.113   .     S
C89    H94     1.105   .     S
C89    C90     1.519   .     S
C90    H91     1.103   .     S
C90    H92     1.101   .     S
C90    H93     1.107   .     S
C96    H102    1.107   .     S
C96    H101    1.100   .     S
C96    C97     1.528   .     S
C97    H98     1.111   .     S
C97    H99     1.111   .     S
C97    H100    1.110   .     S
O103   Cu117   1.971   .     S
O103   C109    1.309   .     A
O104   Cu118   1.971   .     S
O104   C110    1.314   .     A
O105   C110    1.305   .     A
O105   Cu117   1.967   .     S
O106   Cu118   1.967   .     S
O106   C109    1.312   .     A
N107   C122    1.390   .     A
N107   C120    1.390   .     A
N107   Cu117   2.040   .     S
N108   C121    1.374   .     A
N108   C119    1.375   .     A
N108   Cu118   2.040   .     S
C109   C144    1.482   .     S
C110   C143    1.479   .     S
O111   C115    1.313   .     A
O111   Cu117   1.985   .     S
O112   C116    1.317   .     A
O112   Cu118   1.985   .     S
O113   C116    1.313   .     A
O113   Cu117   1.979   .     S
O114   Cu118   1.979   .     S
O114   C115    1.314   .     A
C115   C139    1.498   .     S
C116   C140    1.503   .     S
Cu117  Cu118   2.714   .     S
C119   C145    1.488   .     S
C119   C734    1.430   1_545 S
C120   C149    1.500   .     S
C120   C427    1.429   .     S
C121   C153    1.486   .     S
C121   C732    1.429   1_545 S
C122   C157    1.500   .     S
C122   C425    1.430   .     S
C123   C144    1.411   .     A
C123   C177    1.516   .     S
C124   C184    1.524   .     S
C124   C143    1.413   .     A
C124   C228    1.404   .     S
C125   C191    1.512   .     S
C125   C143    1.405   .     A
C125   C225    1.399   .     S
C126   C144    1.415   .     A
C126   C198    1.526   .     S
C127   H131    1.085   .     S
C127   C141    1.388   .     A
C127   C135    1.389   .     A
C128   C136    1.402   .     A
C128   H132    1.084   .     S
C128   C142    1.388   .     A
C129   H133    1.085   .     S
C129   C137    1.392   .     A
C129   C142    1.390   .     A
C130   H134    1.085   .     S
C130   C141    1.391   .     A
C130   C138    1.402   .     A
C135   C161    1.473   .     S
C135   C139    1.430   .     A
C136   C140    1.438   .     A
C136   C165    1.489   .     S
C137   C140    1.432   .     A
C137   C169    1.482   .     S
C138   C139    1.435   .     A
C138   C173    1.484   .     S
C141   C1060   1.471   1_554 S
C142   C1059   1.471   .     S
C145   O146    1.220   .     D
C145   O147    1.396   .     S
O147   H148    1.014   .     S
C149   O151    1.397   .     S
C149   O150    1.214   .     D
O151   H152    1.013   .     S
C153   O154    1.219   .     D
C153   O155    1.393   .     S
O155   H156    1.014   .     S
C157   O158    1.212   .     D
C157   O159    1.397   .     S
O159   H160    1.013   .     S
C161   O162    1.223   .     D
C161   O163    1.400   .     S
O163   H164    1.012   .     S
C165   O167    1.400   .     S
C165   O166    1.215   .     D
O167   H168    1.012   .     S
C169   O170    1.222   .     D
C169   O171    1.398   .     S
O171   H172    1.013   .     S
C173   O175    1.392   .     S
C173   O174    1.224   .     D
O175   H176    1.012   .     S
C177   H182    1.105   .     S
C177   H183    1.113   .     S
C177   C178    1.525   .     S
C178   H181    1.102   .     S
C178   H180    1.105   .     S
C178   H179    1.110   .     S
C184   C185    1.529   .     S
C184   H190    1.105   .     S
C184   H189    1.101   .     S
C185   H186    1.111   .     S
C185   H187    1.109   .     S
C185   H188    1.111   .     S
C191   H197    1.113   .     S
C191   H196    1.105   .     S
C191   C192    1.519   .     S
C192   H193    1.103   .     S
C192   H194    1.101   .     S
C192   H195    1.107   .     S
C198   H204    1.107   .     S
C198   H203    1.100   .     S
C198   C199    1.528   .     S
C199   H200    1.111   .     S
C199   H201    1.111   .     S
C199   H202    1.110   .     S
O205   Cu219   1.971   .     S
O205   C211    1.309   .     A
O206   Cu220   1.971   .     S
O206   C212    1.314   .     A
O207   C212    1.305   .     A
O207   Cu219   1.967   .     S
O208   Cu220   1.967   .     S
O208   C211    1.312   .     A
N209   C224    1.390   .     A
N209   C222    1.390   .     A
N209   Cu219   2.040   .     S
N210   C223    1.374   .     A
N210   C221    1.375   .     A
N210   Cu220   2.040   .     S
C211   C246    1.482   .     S
C212   C245    1.479   .     S
O213   C217    1.313   .     A
O213   Cu219   1.985   .     S
O214   C218    1.317   .     A
O214   Cu220   1.985   .     S
O215   C218    1.313   .     A
O215   Cu219   1.979   .     S
O216   Cu220   1.979   .     S
O216   C217    1.314   .     A
C217   C241    1.498   .     S
C218   C242    1.503   .     S
Cu219  Cu220   2.714   .     S
C221   C247    1.488   .     S
C221   C836    1.430   1_545 S
C222   C251    1.500   .     S
C222   C529    1.429   .     S
C223   C255    1.486   .     S
C223   C834    1.429   1_545 S
C224   C259    1.500   .     S
C224   C527    1.430   .     S
C225   C246    1.411   .     A
C225   C279    1.516   .     S
C226   C286    1.524   .     S
C226   C245    1.413   .     A
C226   C24     1.404   1_655 S
C227   C293    1.512   .     S
C227   C245    1.405   .     A
C227   C21     1.399   1_655 S
C228   C246    1.415   .     A
C228   C300    1.526   .     S
C229   H233    1.085   .     S
C229   C243    1.388   .     A
C229   C237    1.389   .     A
C230   C238    1.402   .     A
C230   H234    1.084   .     S
C230   C244    1.388   .     A
C231   H235    1.085   .     S
C231   C239    1.392   .     A
C231   C244    1.390   .     A
C232   H236    1.085   .     S
C232   C243    1.391   .     A
C232   C240    1.402   .     A
C237   C263    1.473   .     S
C237   C241    1.430   .     A
C238   C242    1.438   .     A
C238   C267    1.489   .     S
C239   C242    1.432   .     A
C239   C271    1.482   .     S
C240   C241    1.435   .     A
C240   C275    1.484   .     S
C243   C1162   1.471   1_554 S
C244   C1161   1.471   .     S
C247   O248    1.220   .     D
C247   O249    1.396   .     S
O249   H250    1.014   .     S
C251   O253    1.397   .     S
C251   O252    1.214   .     D
O253   H254    1.013   .     S
C255   O256    1.219   .     D
C255   O257    1.393   .     S
O257   H258    1.014   .     S
C259   O260    1.212   .     D
C259   O261    1.397   .     S
O261   H262    1.013   .     S
C263   O264    1.223   .     D
C263   O265    1.400   .     S
O265   H266    1.012   .     S
C267   O269    1.400   .     S
C267   O268    1.215   .     D
O269   H270    1.012   .     S
C271   O272    1.222   .     D
C271   O273    1.398   .     S
O273   H274    1.013   .     S
C275   O277    1.392   .     S
C275   O276    1.224   .     D
O277   H278    1.012   .     S
C279   H284    1.105   .     S
C279   H285    1.113   .     S
C279   C280    1.525   .     S
C280   H283    1.102   .     S
C280   H282    1.105   .     S
C280   H281    1.110   .     S
C286   C287    1.529   .     S
C286   H292    1.105   .     S
C286   H291    1.101   .     S
C287   H288    1.111   .     S
C287   H289    1.109   .     S
C287   H290    1.111   .     S
C293   H299    1.113   .     S
C293   H298    1.105   .     S
C293   C294    1.519   .     S
C294   H295    1.103   .     S
C294   H296    1.101   .     S
C294   H297    1.107   .     S
C300   H306    1.107   .     S
C300   H305    1.100   .     S
C300   C301    1.528   .     S
C301   H302    1.111   .     S
C301   H303    1.111   .     S
C301   H304    1.110   .     S
O307   Cu321   1.971   .     S
O307   C313    1.309   .     A
O308   Cu322   1.971   .     S
O308   C314    1.314   .     A
O309   C314    1.305   .     A
O309   Cu321   1.967   .     S
O310   Cu322   1.967   .     S
O310   C313    1.312   .     A
N311   C326    1.390   .     A
N311   C324    1.390   .     A
N311   Cu321   2.040   .     S
N312   C325    1.374   .     A
N312   C323    1.375   .     A
N312   Cu322   2.040   .     S
C313   C348    1.482   .     S
C314   C347    1.479   .     S
O315   C319    1.313   .     A
O315   Cu321   1.985   .     S
O316   C320    1.317   .     A
O316   Cu322   1.985   .     S
O317   C320    1.313   .     A
O317   Cu321   1.979   .     S
O318   Cu322   1.979   .     S
O318   C319    1.314   .     A
C319   C343    1.498   .     S
C320   C344    1.503   .     S
Cu321  Cu322   2.714   .     S
C323   C349    1.488   .     S
C324   C353    1.500   .     S
C324   C631    1.429   .     S
C325   C357    1.486   .     S
C326   C361    1.500   .     S
C326   C629    1.430   .     S
C327   C348    1.411   .     A
C327   C381    1.516   .     S
C327   C533    1.399   1_455 S
C328   C388    1.524   .     S
C328   C347    1.413   .     A
C328   C432    1.404   .     S
C329   C395    1.512   .     S
C329   C347    1.405   .     A
C329   C429    1.399   .     S
C330   C348    1.415   .     A
C330   C402    1.526   .     S
C330   C532    1.404   1_455 S
C331   H335    1.085   .     S
C331   C345    1.388   .     A
C331   C339    1.389   .     A
C332   C340    1.402   .     A
C332   H336    1.084   .     S
C332   C346    1.388   .     A
C333   H337    1.085   .     S
C333   C341    1.392   .     A
C333   C346    1.390   .     A
C334   H338    1.085   .     S
C334   C345    1.391   .     A
C334   C342    1.402   .     A
C339   C365    1.473   .     S
C339   C343    1.430   .     A
C340   C344    1.438   .     A
C340   C369    1.489   .     S
C341   C344    1.432   .     A
C341   C373    1.482   .     S
C342   C343    1.435   .     A
C342   C377    1.484   .     S
C345   C1264   1.471   1_554 S
C346   C1263   1.471   .     S
C349   O350    1.220   .     D
C349   O351    1.396   .     S
O351   H352    1.014   .     S
C353   O355    1.397   .     S
C353   O354    1.214   .     D
O355   H356    1.013   .     S
C357   O358    1.219   .     D
C357   O359    1.393   .     S
O359   H360    1.014   .     S
C361   O362    1.212   .     D
C361   O363    1.397   .     S
O363   H364    1.013   .     S
C365   O366    1.223   .     D
C365   O367    1.400   .     S
O367   H368    1.012   .     S
C369   O371    1.400   .     S
C369   O370    1.215   .     D
O371   H372    1.012   .     S
C373   O374    1.222   .     D
C373   O375    1.398   .     S
O375   H376    1.013   .     S
C377   O379    1.392   .     S
C377   O378    1.224   .     D
O379   H380    1.012   .     S
C381   H386    1.105   .     S
C381   H387    1.113   .     S
C381   C382    1.525   .     S
C382   H385    1.102   .     S
C382   H384    1.105   .     S
C382   H383    1.110   .     S
C388   C389    1.529   .     S
C388   H394    1.105   .     S
C388   H393    1.101   .     S
C389   H390    1.111   .     S
C389   H391    1.109   .     S
C389   H392    1.111   .     S
C395   H401    1.113   .     S
C395   H400    1.105   .     S
C395   C396    1.519   .     S
C396   H397    1.103   .     S
C396   H398    1.101   .     S
C396   H399    1.107   .     S
C402   H408    1.107   .     S
C402   H407    1.100   .     S
C402   C403    1.528   .     S
C403   H404    1.111   .     S
C403   H405    1.111   .     S
C403   H406    1.110   .     S
O409   Cu423   1.971   .     S
O409   C415    1.309   .     A
O410   Cu424   1.971   .     S
O410   C416    1.314   .     A
O411   C416    1.305   .     A
O411   Cu423   1.967   .     S
O412   Cu424   1.967   .     S
O412   C415    1.312   .     A
N413   C428    1.390   .     A
N413   C426    1.390   .     A
N413   Cu423   2.040   .     S
N414   C427    1.374   .     A
N414   C425    1.375   .     A
N414   Cu424   2.040   .     S
C415   C450    1.482   .     S
C416   C449    1.479   .     S
O417   C421    1.313   .     A
O417   Cu423   1.985   .     S
O418   C422    1.317   .     A
O418   Cu424   1.985   .     S
O419   C422    1.313   .     A
O419   Cu423   1.979   .     S
O420   Cu424   1.979   .     S
O420   C421    1.314   .     A
C421   C445    1.498   .     S
C422   C446    1.503   .     S
Cu423  Cu424   2.714   .     S
C425   C451    1.488   .     S
C426   C455    1.500   .     S
C426   C733    1.429   .     S
C427   C459    1.486   .     S
C428   C463    1.500   .     S
C428   C731    1.430   .     S
C429   C450    1.411   .     A
C429   C483    1.516   .     S
C430   C490    1.524   .     S
C430   C449    1.413   .     A
C430   C534    1.404   .     S
C431   C497    1.512   .     S
C431   C449    1.405   .     A
C431   C531    1.399   .     S
C432   C450    1.415   .     A
C432   C504    1.526   .     S
C433   H437    1.085   .     S
C433   C447    1.388   .     A
C433   C441    1.389   .     A
C434   C442    1.402   .     A
C434   H438    1.084   .     S
C434   C448    1.388   .     A
C435   H439    1.085   .     S
C435   C443    1.392   .     A
C435   C448    1.390   .     A
C436   H440    1.085   .     S
C436   C447    1.391   .     A
C436   C444    1.402   .     A
C441   C467    1.473   .     S
C441   C445    1.430   .     A
C442   C446    1.438   .     A
C442   C471    1.489   .     S
C443   C446    1.432   .     A
C443   C475    1.482   .     S
C444   C445    1.435   .     A
C444   C479    1.484   .     S
C447   C1366   1.471   1_554 S
C448   C1365   1.471   .     S
C451   O452    1.220   .     D
C451   O453    1.396   .     S
O453   H454    1.014   .     S
C455   O457    1.397   .     S
C455   O456    1.214   .     D
O457   H458    1.013   .     S
C459   O460    1.219   .     D
C459   O461    1.393   .     S
O461   H462    1.014   .     S
C463   O464    1.212   .     D
C463   O465    1.397   .     S
O465   H466    1.013   .     S
C467   O468    1.223   .     D
C467   O469    1.400   .     S
O469   H470    1.012   .     S
C471   O473    1.400   .     S
C471   O472    1.215   .     D
O473   H474    1.012   .     S
C475   O476    1.222   .     D
C475   O477    1.398   .     S
O477   H478    1.013   .     S
C479   O481    1.392   .     S
C479   O480    1.224   .     D
O481   H482    1.012   .     S
C483   H488    1.105   .     S
C483   H489    1.113   .     S
C483   C484    1.525   .     S
C484   H487    1.102   .     S
C484   H486    1.105   .     S
C484   H485    1.110   .     S
C490   C491    1.529   .     S
C490   H496    1.105   .     S
C490   H495    1.101   .     S
C491   H492    1.111   .     S
C491   H493    1.109   .     S
C491   H494    1.111   .     S
C497   H503    1.113   .     S
C497   H502    1.105   .     S
C497   C498    1.519   .     S
C498   H499    1.103   .     S
C498   H500    1.101   .     S
C498   H501    1.107   .     S
C504   H510    1.107   .     S
C504   H509    1.100   .     S
C504   C505    1.528   .     S
C505   H506    1.111   .     S
C505   H507    1.111   .     S
C505   H508    1.110   .     S
O511   Cu525   1.971   .     S
O511   C517    1.309   .     A
O512   Cu526   1.971   .     S
O512   C518    1.314   .     A
O513   C518    1.305   .     A
O513   Cu525   1.967   .     S
O514   Cu526   1.967   .     S
O514   C517    1.312   .     A
N515   C530    1.390   .     A
N515   C528    1.390   .     A
N515   Cu525   2.040   .     S
N516   C529    1.374   .     A
N516   C527    1.375   .     A
N516   Cu526   2.040   .     S
C517   C552    1.482   .     S
C518   C551    1.479   .     S
O519   C523    1.313   .     A
O519   Cu525   1.985   .     S
O520   C524    1.317   .     A
O520   Cu526   1.985   .     S
O521   C524    1.313   .     A
O521   Cu525   1.979   .     S
O522   Cu526   1.979   .     S
O522   C523    1.314   .     A
C523   C547    1.498   .     S
C524   C548    1.503   .     S
Cu525  Cu526   2.714   .     S
C527   C553    1.488   .     S
C528   C557    1.500   .     S
C528   C835    1.429   .     S
C529   C561    1.486   .     S
C530   C565    1.500   .     S
C530   C833    1.430   .     S
C531   C552    1.411   .     A
C531   C585    1.516   .     S
C532   C592    1.524   .     S
C532   C551    1.413   .     A
C532   C330    1.404   1_655 S
C533   C599    1.512   .     S
C533   C551    1.405   .     A
C533   C327    1.399   1_655 S
C534   C552    1.415   .     A
C534   C606    1.526   .     S
C535   H539    1.085   .     S
C535   C549    1.388   .     A
C535   C543    1.389   .     A
C536   C544    1.402   .     A
C536   H540    1.084   .     S
C536   C550    1.388   .     A
C537   H541    1.085   .     S
C537   C545    1.392   .     A
C537   C550    1.390   .     A
C538   H542    1.085   .     S
C538   C549    1.391   .     A
C538   C546    1.402   .     A
C543   C569    1.473   .     S
C543   C547    1.430   .     A
C544   C548    1.438   .     A
C544   C573    1.489   .     S
C545   C548    1.432   .     A
C545   C577    1.482   .     S
C546   C547    1.435   .     A
C546   C581    1.484   .     S
C549   C1468   1.471   1_554 S
C550   C1467   1.471   .     S
C553   O554    1.220   .     D
C553   O555    1.396   .     S
O555   H556    1.014   .     S
C557   O559    1.397   .     S
C557   O558    1.214   .     D
O559   H560    1.013   .     S
C561   O562    1.219   .     D
C561   O563    1.393   .     S
O563   H564    1.014   .     S
C565   O566    1.212   .     D
C565   O567    1.397   .     S
O567   H568    1.013   .     S
C569   O570    1.223   .     D
C569   O571    1.400   .     S
O571   H572    1.012   .     S
C573   O575    1.400   .     S
C573   O574    1.215   .     D
O575   H576    1.012   .     S
C577   O578    1.222   .     D
C577   O579    1.398   .     S
O579   H580    1.013   .     S
C581   O583    1.392   .     S
C581   O582    1.224   .     D
O583   H584    1.012   .     S
C585   H590    1.105   .     S
C585   H591    1.113   .     S
C585   C586    1.525   .     S
C586   H589    1.102   .     S
C586   H588    1.105   .     S
C586   H587    1.110   .     S
C592   C593    1.529   .     S
C592   H598    1.105   .     S
C592   H597    1.101   .     S
C593   H594    1.111   .     S
C593   H595    1.109   .     S
C593   H596    1.111   .     S
C599   H605    1.113   .     S
C599   H604    1.105   .     S
C599   C600    1.519   .     S
C600   H601    1.103   .     S
C600   H602    1.101   .     S
C600   H603    1.107   .     S
C606   H612    1.107   .     S
C606   H611    1.100   .     S
C606   C607    1.528   .     S
C607   H608    1.111   .     S
C607   H609    1.111   .     S
C607   H610    1.110   .     S
O613   Cu627   1.971   .     S
O613   C619    1.309   .     A
O614   Cu628   1.971   .     S
O614   C620    1.314   .     A
O615   C620    1.305   .     A
O615   Cu627   1.967   .     S
O616   Cu628   1.967   .     S
O616   C619    1.312   .     A
N617   C632    1.390   .     A
N617   C630    1.390   .     A
N617   Cu627   2.040   .     S
N618   C631    1.374   .     A
N618   C629    1.375   .     A
N618   Cu628   2.040   .     S
C619   C654    1.482   .     S
C620   C653    1.479   .     S
O621   C625    1.313   .     A
O621   Cu627   1.985   .     S
O622   C626    1.317   .     A
O622   Cu628   1.985   .     S
O623   C626    1.313   .     A
O623   Cu627   1.979   .     S
O624   Cu628   1.979   .     S
O624   C625    1.314   .     A
C625   C649    1.498   .     S
C626   C650    1.503   .     S
Cu627  Cu628   2.714   .     S
C629   C655    1.488   .     S
C630   C659    1.500   .     S
C630   C19     1.429   1_565 S
C631   C663    1.486   .     S
C632   C667    1.500   .     S
C632   C17     1.430   1_565 S
C633   C654    1.411   .     A
C633   C687    1.516   .     S
C633   C839    1.399   1_455 S
C634   C694    1.524   .     S
C634   C653    1.413   .     A
C634   C738    1.404   .     S
C635   C701    1.512   .     S
C635   C653    1.405   .     A
C635   C735    1.399   .     S
C636   C654    1.415   .     A
C636   C708    1.526   .     S
C636   C838    1.404   1_455 S
C637   H641    1.085   .     S
C637   C651    1.388   .     A
C637   C645    1.389   .     A
C638   C646    1.402   .     A
C638   H642    1.084   .     S
C638   C652    1.388   .     A
C639   H643    1.085   .     S
C639   C647    1.392   .     A
C639   C652    1.390   .     A
C640   H644    1.085   .     S
C640   C651    1.391   .     A
C640   C648    1.402   .     A
C645   C671    1.473   .     S
C645   C649    1.430   .     A
C646   C650    1.438   .     A
C646   C675    1.489   .     S
C647   C650    1.432   .     A
C647   C679    1.482   .     S
C648   C649    1.435   .     A
C648   C683    1.484   .     S
C651   C1570   1.471   1_554 S
C652   C1569   1.471   .     S
C655   O656    1.220   .     D
C655   O657    1.396   .     S
O657   H658    1.014   .     S
C659   O661    1.397   .     S
C659   O660    1.214   .     D
O661   H662    1.013   .     S
C663   O664    1.219   .     D
C663   O665    1.393   .     S
O665   H666    1.014   .     S
C667   O668    1.212   .     D
C667   O669    1.397   .     S
O669   H670    1.013   .     S
C671   O672    1.223   .     D
C671   O673    1.400   .     S
O673   H674    1.012   .     S
C675   O677    1.400   .     S
C675   O676    1.215   .     D
O677   H678    1.012   .     S
C679   O680    1.222   .     D
C679   O681    1.398   .     S
O681   H682    1.013   .     S
C683   O685    1.392   .     S
C683   O684    1.224   .     D
O685   H686    1.012   .     S
C687   H692    1.105   .     S
C687   H693    1.113   .     S
C687   C688    1.525   .     S
C688   H691    1.102   .     S
C688   H690    1.105   .     S
C688   H689    1.110   .     S
C694   C695    1.529   .     S
C694   H700    1.105   .     S
C694   H699    1.101   .     S
C695   H696    1.111   .     S
C695   H697    1.109   .     S
C695   H698    1.111   .     S
C701   H707    1.113   .     S
C701   H706    1.105   .     S
C701   C702    1.519   .     S
C702   H703    1.103   .     S
C702   H704    1.101   .     S
C702   H705    1.107   .     S
C708   H714    1.107   .     S
C708   H713    1.100   .     S
C708   C709    1.528   .     S
C709   H710    1.111   .     S
C709   H711    1.111   .     S
C709   H712    1.110   .     S
O715   Cu729   1.971   .     S
O715   C721    1.309   .     A
O716   Cu730   1.971   .     S
O716   C722    1.314   .     A
O717   C722    1.305   .     A
O717   Cu729   1.967   .     S
O718   Cu730   1.967   .     S
O718   C721    1.312   .     A
N719   C734    1.390   .     A
N719   C732    1.390   .     A
N719   Cu729   2.040   .     S
N720   C733    1.374   .     A
N720   C731    1.375   .     A
N720   Cu730   2.040   .     S
C721   C756    1.482   .     S
C722   C755    1.479   .     S
O723   C727    1.313   .     A
O723   Cu729   1.985   .     S
O724   C728    1.317   .     A
O724   Cu730   1.985   .     S
O725   C728    1.313   .     A
O725   Cu729   1.979   .     S
O726   Cu730   1.979   .     S
O726   C727    1.314   .     A
C727   C751    1.498   .     S
C728   C752    1.503   .     S
Cu729  Cu730   2.714   .     S
C731   C757    1.488   .     S
C732   C761    1.500   .     S
C732   C121    1.429   1_565 S
C733   C765    1.486   .     S
C734   C769    1.500   .     S
C734   C119    1.430   1_565 S
C735   C756    1.411   .     A
C735   C789    1.516   .     S
C736   C796    1.524   .     S
C736   C755    1.413   .     A
C736   C840    1.404   .     S
C737   C803    1.512   .     S
C737   C755    1.405   .     A
C737   C837    1.399   .     S
C738   C756    1.415   .     A
C738   C810    1.526   .     S
C739   H743    1.085   .     S
C739   C753    1.388   .     A
C739   C747    1.389   .     A
C740   C748    1.402   .     A
C740   H744    1.084   .     S
C740   C754    1.388   .     A
C741   H745    1.085   .     S
C741   C749    1.392   .     A
C741   C754    1.390   .     A
C742   H746    1.085   .     S
C742   C753    1.391   .     A
C742   C750    1.402   .     A
C747   C773    1.473   .     S
C747   C751    1.430   .     A
C748   C752    1.438   .     A
C748   C777    1.489   .     S
C749   C752    1.432   .     A
C749   C781    1.482   .     S
C750   C751    1.435   .     A
C750   C785    1.484   .     S
C753   C1672   1.471   1_554 S
C754   C1671   1.471   .     S
C757   O758    1.220   .     D
C757   O759    1.396   .     S
O759   H760    1.014   .     S
C761   O763    1.397   .     S
C761   O762    1.214   .     D
O763   H764    1.013   .     S
C765   O766    1.219   .     D
C765   O767    1.393   .     S
O767   H768    1.014   .     S
C769   O770    1.212   .     D
C769   O771    1.397   .     S
O771   H772    1.013   .     S
C773   O774    1.223   .     D
C773   O775    1.400   .     S
O775   H776    1.012   .     S
C777   O779    1.400   .     S
C777   O778    1.215   .     D
O779   H780    1.012   .     S
C781   O782    1.222   .     D
C781   O783    1.398   .     S
O783   H784    1.013   .     S
C785   O787    1.392   .     S
C785   O786    1.224   .     D
O787   H788    1.012   .     S
C789   H794    1.105   .     S
C789   H795    1.113   .     S
C789   C790    1.525   .     S
C790   H793    1.102   .     S
C790   H792    1.105   .     S
C790   H791    1.110   .     S
C796   C797    1.529   .     S
C796   H802    1.105   .     S
C796   H801    1.101   .     S
C797   H798    1.111   .     S
C797   H799    1.109   .     S
C797   H800    1.111   .     S
C803   H809    1.113   .     S
C803   H808    1.105   .     S
C803   C804    1.519   .     S
C804   H805    1.103   .     S
C804   H806    1.101   .     S
C804   H807    1.107   .     S
C810   H816    1.107   .     S
C810   H815    1.100   .     S
C810   C811    1.528   .     S
C811   H812    1.111   .     S
C811   H813    1.111   .     S
C811   H814    1.110   .     S
O817   Cu831   1.971   .     S
O817   C823    1.309   .     A
O818   Cu832   1.971   .     S
O818   C824    1.314   .     A
O819   C824    1.305   .     A
O819   Cu831   1.967   .     S
O820   Cu832   1.967   .     S
O820   C823    1.312   .     A
N821   C836    1.390   .     A
N821   C834    1.390   .     A
N821   Cu831   2.040   .     S
N822   C835    1.374   .     A
N822   C833    1.375   .     A
N822   Cu832   2.040   .     S
C823   C858    1.482   .     S
C824   C857    1.479   .     S
O825   C829    1.313   .     A
O825   Cu831   1.985   .     S
O826   C830    1.317   .     A
O826   Cu832   1.985   .     S
O827   C830    1.313   .     A
O827   Cu831   1.979   .     S
O828   Cu832   1.979   .     S
O828   C829    1.314   .     A
C829   C853    1.498   .     S
C830   C854    1.503   .     S
Cu831  Cu832   2.714   .     S
C833   C859    1.488   .     S
C834   C863    1.500   .     S
C834   C223    1.429   1_565 S
C835   C867    1.486   .     S
C836   C871    1.500   .     S
C836   C221    1.430   1_565 S
C837   C858    1.411   .     A
C837   C891    1.516   .     S
C838   C898    1.524   .     S
C838   C857    1.413   .     A
C838   C636    1.404   1_655 S
C839   C905    1.512   .     S
C839   C857    1.405   .     A
C839   C633    1.399   1_655 S
C840   C858    1.415   .     A
C840   C912    1.526   .     S
C841   H845    1.085   .     S
C841   C855    1.388   .     A
C841   C849    1.389   .     A
C842   C850    1.402   .     A
C842   H846    1.084   .     S
C842   C856    1.388   .     A
C843   H847    1.085   .     S
C843   C851    1.392   .     A
C843   C856    1.390   .     A
C844   H848    1.085   .     S
C844   C855    1.391   .     A
C844   C852    1.402   .     A
C849   C875    1.473   .     S
C849   C853    1.430   .     A
C850   C854    1.438   .     A
C850   C879    1.489   .     S
C851   C854    1.432   .     A
C851   C883    1.482   .     S
C852   C853    1.435   .     A
C852   C887    1.484   .     S
C855   C1774   1.471   1_554 S
C856   C1773   1.471   .     S
C859   O860    1.220   .     D
C859   O861    1.396   .     S
O861   H862    1.014   .     S
C863   O865    1.397   .     S
C863   O864    1.214   .     D
O865   H866    1.013   .     S
C867   O868    1.219   .     D
C867   O869    1.393   .     S
O869   H870    1.014   .     S
C871   O872    1.212   .     D
C871   O873    1.397   .     S
O873   H874    1.013   .     S
C875   O876    1.223   .     D
C875   O877    1.400   .     S
O877   H878    1.012   .     S
C879   O881    1.400   .     S
C879   O880    1.215   .     D
O881   H882    1.012   .     S
C883   O884    1.222   .     D
C883   O885    1.398   .     S
O885   H886    1.013   .     S
C887   O889    1.392   .     S
C887   O888    1.224   .     D
O889   H890    1.012   .     S
C891   H896    1.105   .     S
C891   H897    1.113   .     S
C891   C892    1.525   .     S
C892   H895    1.102   .     S
C892   H894    1.105   .     S
C892   H893    1.110   .     S
C898   C899    1.529   .     S
C898   H904    1.105   .     S
C898   H903    1.101   .     S
C899   H900    1.111   .     S
C899   H901    1.109   .     S
C899   H902    1.111   .     S
C905   H911    1.113   .     S
C905   H910    1.105   .     S
C905   C906    1.519   .     S
C906   H907    1.103   .     S
C906   H908    1.101   .     S
C906   H909    1.107   .     S
C912   H918    1.107   .     S
C912   H917    1.100   .     S
C912   C913    1.528   .     S
C913   H914    1.111   .     S
C913   H915    1.111   .     S
C913   H916    1.110   .     S
O919   Cu933   1.971   .     S
O919   C925    1.309   .     A
O920   Cu934   1.971   .     S
O920   C926    1.314   .     A
O921   C926    1.305   .     A
O921   Cu933   1.967   .     S
O922   Cu934   1.967   .     S
O922   C925    1.312   .     A
N923   C938    1.390   .     A
N923   C936    1.390   .     A
N923   Cu933   2.040   .     S
N924   C937    1.374   .     A
N924   C935    1.375   .     A
N924   Cu934   2.040   .     S
C925   C960    1.482   .     S
C926   C959    1.479   .     S
O927   C931    1.313   .     A
O927   Cu933   1.985   .     S
O928   C932    1.317   .     A
O928   Cu934   1.985   .     S
O929   C932    1.313   .     A
O929   Cu933   1.979   .     S
O930   Cu934   1.979   .     S
O930   C931    1.314   .     A
C931   C955    1.498   .     S
C932   C956    1.503   .     S
Cu933  Cu934   2.714   .     S
C935   C961    1.488   .     S
C935   C1550   1.430   1_545 S
C936   C965    1.500   .     S
C936   C1243   1.429   .     S
C937   C969    1.486   .     S
C937   C1548   1.429   1_545 S
C938   C973    1.500   .     S
C938   C1241   1.430   .     S
C939   C960    1.411   .     A
C939   C993    1.516   .     S
C939   C1145   1.399   1_455 S
C940   C1000   1.524   .     S
C940   C959    1.413   .     A
C940   C1044   1.404   .     S
C941   C1007   1.512   .     S
C941   C959    1.405   .     A
C941   C1041   1.399   .     S
C942   C960    1.415   .     A
C942   C1014   1.526   .     S
C942   C1144   1.404   1_455 S
C943   H947    1.085   .     S
C943   C957    1.388   .     A
C943   C951    1.389   .     A
C944   C952    1.402   .     A
C944   H948    1.084   .     S
C944   C958    1.388   .     A
C945   H949    1.085   .     S
C945   C953    1.392   .     A
C945   C958    1.390   .     A
C946   H950    1.085   .     S
C946   C957    1.391   .     A
C946   C954    1.402   .     A
C951   C977    1.473   .     S
C951   C955    1.430   .     A
C952   C956    1.438   .     A
C952   C981    1.489   .     S
C953   C956    1.432   .     A
C953   C985    1.482   .     S
C954   C955    1.435   .     A
C954   C989    1.484   .     S
C958   C39     1.471   1_556 S
C961   O962    1.220   .     D
C961   O963    1.396   .     S
O963   H964    1.014   .     S
C965   O967    1.397   .     S
C965   O966    1.214   .     D
O967   H968    1.013   .     S
C969   O970    1.219   .     D
C969   O971    1.393   .     S
O971   H972    1.014   .     S
C973   O974    1.212   .     D
C973   O975    1.397   .     S
O975   H976    1.013   .     S
C977   O978    1.223   .     D
C977   O979    1.400   .     S
O979   H980    1.012   .     S
C981   O983    1.400   .     S
C981   O982    1.215   .     D
O983   H984    1.012   .     S
C985   O986    1.222   .     D
C985   O987    1.398   .     S
O987   H988    1.013   .     S
C989   O991    1.392   .     S
C989   O990    1.224   .     D
O991   H992    1.012   .     S
C993   H998    1.105   .     S
C993   H999    1.113   .     S
C993   C994    1.525   .     S
C994   H997    1.102   .     S
C994   H996    1.105   .     S
C994   H995    1.110   .     S
C1000  C1001   1.529   .     S
C1000  H1006   1.105   .     S
C1000  H1005   1.101   .     S
C1001  H1002   1.111   .     S
C1001  H1003   1.109   .     S
C1001  H1004   1.111   .     S
C1007  H1013   1.113   .     S
C1007  H1012   1.105   .     S
C1007  C1008   1.519   .     S
C1008  H1009   1.103   .     S
C1008  H1010   1.101   .     S
C1008  H1011   1.107   .     S
C1014  H1020   1.107   .     S
C1014  H1019   1.100   .     S
C1014  C1015   1.528   .     S
C1015  H1016   1.111   .     S
C1015  H1017   1.111   .     S
C1015  H1018   1.110   .     S
O1021  Cu1035  1.971   .     S
O1021  C1027   1.309   .     A
O1022  Cu1036  1.971   .     S
O1022  C1028   1.314   .     A
O1023  C1028   1.305   .     A
O1023  Cu1035  1.967   .     S
O1024  Cu1036  1.967   .     S
O1024  C1027   1.312   .     A
N1025  C1040   1.390   .     A
N1025  C1038   1.390   .     A
N1025  Cu1035  2.040   .     S
N1026  C1039   1.374   .     A
N1026  C1037   1.375   .     A
N1026  Cu1036  2.040   .     S
C1027  C1062   1.482   .     S
C1028  C1061   1.479   .     S
O1029  C1033   1.313   .     A
O1029  Cu1035  1.985   .     S
O1030  C1034   1.317   .     A
O1030  Cu1036  1.985   .     S
O1031  C1034   1.313   .     A
O1031  Cu1035  1.979   .     S
O1032  Cu1036  1.979   .     S
O1032  C1033   1.314   .     A
C1033  C1057   1.498   .     S
C1034  C1058   1.503   .     S
Cu1035 Cu1036  2.714   .     S
C1037  C1063   1.488   .     S
C1037  C1652   1.430   1_545 S
C1038  C1067   1.500   .     S
C1038  C1345   1.429   .     S
C1039  C1071   1.486   .     S
C1039  C1650   1.429   1_545 S
C1040  C1075   1.500   .     S
C1040  C1343   1.430   .     S
C1041  C1062   1.411   .     A
C1041  C1095   1.516   .     S
C1042  C1102   1.524   .     S
C1042  C1061   1.413   .     A
C1042  C1146   1.404   .     S
C1043  C1109   1.512   .     S
C1043  C1061   1.405   .     A
C1043  C1143   1.399   .     S
C1044  C1062   1.415   .     A
C1044  C1116   1.526   .     S
C1045  H1049   1.085   .     S
C1045  C1059   1.388   .     A
C1045  C1053   1.389   .     A
C1046  C1054   1.402   .     A
C1046  H1050   1.084   .     S
C1046  C1060   1.388   .     A
C1047  H1051   1.085   .     S
C1047  C1055   1.392   .     A
C1047  C1060   1.390   .     A
C1048  H1052   1.085   .     S
C1048  C1059   1.391   .     A
C1048  C1056   1.402   .     A
C1053  C1079   1.473   .     S
C1053  C1057   1.430   .     A
C1054  C1058   1.438   .     A
C1054  C1083   1.489   .     S
C1055  C1058   1.432   .     A
C1055  C1087   1.482   .     S
C1056  C1057   1.435   .     A
C1056  C1091   1.484   .     S
C1060  C141    1.471   1_556 S
C1063  O1064   1.220   .     D
C1063  O1065   1.396   .     S
O1065  H1066   1.014   .     S
C1067  O1069   1.397   .     S
C1067  O1068   1.214   .     D
O1069  H1070   1.013   .     S
C1071  O1072   1.219   .     D
C1071  O1073   1.393   .     S
O1073  H1074   1.014   .     S
C1075  O1076   1.212   .     D
C1075  O1077   1.397   .     S
O1077  H1078   1.013   .     S
C1079  O1080   1.223   .     D
C1079  O1081   1.400   .     S
O1081  H1082   1.012   .     S
C1083  O1085   1.400   .     S
C1083  O1084   1.215   .     D
O1085  H1086   1.012   .     S
C1087  O1088   1.222   .     D
C1087  O1089   1.398   .     S
O1089  H1090   1.013   .     S
C1091  O1093   1.392   .     S
C1091  O1092   1.224   .     D
O1093  H1094   1.012   .     S
C1095  H1100   1.105   .     S
C1095  H1101   1.113   .     S
C1095  C1096   1.525   .     S
C1096  H1099   1.102   .     S
C1096  H1098   1.105   .     S
C1096  H1097   1.110   .     S
C1102  C1103   1.529   .     S
C1102  H1108   1.105   .     S
C1102  H1107   1.101   .     S
C1103  H1104   1.111   .     S
C1103  H1105   1.109   .     S
C1103  H1106   1.111   .     S
C1109  H1115   1.113   .     S
C1109  H1114   1.105   .     S
C1109  C1110   1.519   .     S
C1110  H1111   1.103   .     S
C1110  H1112   1.101   .     S
C1110  H1113   1.107   .     S
C1116  H1122   1.107   .     S
C1116  H1121   1.100   .     S
C1116  C1117   1.528   .     S
C1117  H1118   1.111   .     S
C1117  H1119   1.111   .     S
C1117  H1120   1.110   .     S
O1123  Cu1137  1.971   .     S
O1123  C1129   1.309   .     A
O1124  Cu1138  1.971   .     S
O1124  C1130   1.314   .     A
O1125  C1130   1.305   .     A
O1125  Cu1137  1.967   .     S
O1126  Cu1138  1.967   .     S
O1126  C1129   1.312   .     A
N1127  C1142   1.390   .     A
N1127  C1140   1.390   .     A
N1127  Cu1137  2.040   .     S
N1128  C1141   1.374   .     A
N1128  C1139   1.375   .     A
N1128  Cu1138  2.040   .     S
C1129  C1164   1.482   .     S
C1130  C1163   1.479   .     S
O1131  C1135   1.313   .     A
O1131  Cu1137  1.985   .     S
O1132  C1136   1.317   .     A
O1132  Cu1138  1.985   .     S
O1133  C1136   1.313   .     A
O1133  Cu1137  1.979   .     S
O1134  Cu1138  1.979   .     S
O1134  C1135   1.314   .     A
C1135  C1159   1.498   .     S
C1136  C1160   1.503   .     S
Cu1137 Cu1138  2.714   .     S
C1139  C1165   1.488   .     S
C1139  C1754   1.430   1_545 S
C1140  C1169   1.500   .     S
C1140  C1447   1.429   .     S
C1141  C1173   1.486   .     S
C1141  C1752   1.429   1_545 S
C1142  C1177   1.500   .     S
C1142  C1445   1.430   .     S
C1143  C1164   1.411   .     A
C1143  C1197   1.516   .     S
C1144  C1204   1.524   .     S
C1144  C1163   1.413   .     A
C1144  C942    1.404   1_655 S
C1145  C1211   1.512   .     S
C1145  C1163   1.405   .     A
C1145  C939    1.399   1_655 S
C1146  C1164   1.415   .     A
C1146  C1218   1.526   .     S
C1147  H1151   1.085   .     S
C1147  C1161   1.388   .     A
C1147  C1155   1.389   .     A
C1148  C1156   1.402   .     A
C1148  H1152   1.084   .     S
C1148  C1162   1.388   .     A
C1149  H1153   1.085   .     S
C1149  C1157   1.392   .     A
C1149  C1162   1.390   .     A
C1150  H1154   1.085   .     S
C1150  C1161   1.391   .     A
C1150  C1158   1.402   .     A
C1155  C1181   1.473   .     S
C1155  C1159   1.430   .     A
C1156  C1160   1.438   .     A
C1156  C1185   1.489   .     S
C1157  C1160   1.432   .     A
C1157  C1189   1.482   .     S
C1158  C1159   1.435   .     A
C1158  C1193   1.484   .     S
C1162  C243    1.471   1_556 S
C1165  O1166   1.220   .     D
C1165  O1167   1.396   .     S
O1167  H1168   1.014   .     S
C1169  O1171   1.397   .     S
C1169  O1170   1.214   .     D
O1171  H1172   1.013   .     S
C1173  O1174   1.219   .     D
C1173  O1175   1.393   .     S
O1175  H1176   1.014   .     S
C1177  O1178   1.212   .     D
C1177  O1179   1.397   .     S
O1179  H1180   1.013   .     S
C1181  O1182   1.223   .     D
C1181  O1183   1.400   .     S
O1183  H1184   1.012   .     S
C1185  O1187   1.400   .     S
C1185  O1186   1.215   .     D
O1187  H1188   1.012   .     S
C1189  O1190   1.222   .     D
C1189  O1191   1.398   .     S
O1191  H1192   1.013   .     S
C1193  O1195   1.392   .     S
C1193  O1194   1.224   .     D
O1195  H1196   1.012   .     S
C1197  H1202   1.105   .     S
C1197  H1203   1.113   .     S
C1197  C1198   1.525   .     S
C1198  H1201   1.102   .     S
C1198  H1200   1.105   .     S
C1198  H1199   1.110   .     S
C1204  C1205   1.529   .     S
C1204  H1210   1.105   .     S
C1204  H1209   1.101   .     S
C1205  H1206   1.111   .     S
C1205  H1207   1.109   .     S
C1205  H1208   1.111   .     S
C1211  H1217   1.113   .     S
C1211  H1216   1.105   .     S
C1211  C1212   1.519   .     S
C1212  H1213   1.103   .     S
C1212  H1214   1.101   .     S
C1212  H1215   1.107   .     S
C1218  H1224   1.107   .     S
C1218  H1223   1.100   .     S
C1218  C1219   1.528   .     S
C1219  H1220   1.111   .     S
C1219  H1221   1.111   .     S
C1219  H1222   1.110   .     S
O1225  Cu1239  1.971   .     S
O1225  C1231   1.309   .     A
O1226  Cu1240  1.971   .     S
O1226  C1232   1.314   .     A
O1227  C1232   1.305   .     A
O1227  Cu1239  1.967   .     S
O1228  Cu1240  1.967   .     S
O1228  C1231   1.312   .     A
N1229  C1244   1.390   .     A
N1229  C1242   1.390   .     A
N1229  Cu1239  2.040   .     S
N1230  C1243   1.374   .     A
N1230  C1241   1.375   .     A
N1230  Cu1240  2.040   .     S
C1231  C1266   1.482   .     S
C1232  C1265   1.479   .     S
O1233  C1237   1.313   .     A
O1233  Cu1239  1.985   .     S
O1234  C1238   1.317   .     A
O1234  Cu1240  1.985   .     S
O1235  C1238   1.313   .     A
O1235  Cu1239  1.979   .     S
O1236  Cu1240  1.979   .     S
O1236  C1237   1.314   .     A
C1237  C1261   1.498   .     S
C1238  C1262   1.503   .     S
Cu1239 Cu1240  2.714   .     S
C1241  C1267   1.488   .     S
C1242  C1271   1.500   .     S
C1242  C1549   1.429   .     S
C1243  C1275   1.486   .     S
C1244  C1279   1.500   .     S
C1244  C1547   1.430   .     S
C1245  C1266   1.411   .     A
C1245  C1299   1.516   .     S
C1245  C1451   1.399   1_455 S
C1246  C1306   1.524   .     S
C1246  C1265   1.413   .     A
C1246  C1350   1.404   .     S
C1247  C1313   1.512   .     S
C1247  C1265   1.405   .     A
C1247  C1347   1.399   .     S
C1248  C1266   1.415   .     A
C1248  C1320   1.526   .     S
C1248  C1450   1.404   1_455 S
C1249  H1253   1.085   .     S
C1249  C1263   1.388   .     A
C1249  C1257   1.389   .     A
C1250  C1258   1.402   .     A
C1250  H1254   1.084   .     S
C1250  C1264   1.388   .     A
C1251  H1255   1.085   .     S
C1251  C1259   1.392   .     A
C1251  C1264   1.390   .     A
C1252  H1256   1.085   .     S
C1252  C1263   1.391   .     A
C1252  C1260   1.402   .     A
C1257  C1283   1.473   .     S
C1257  C1261   1.430   .     A
C1258  C1262   1.438   .     A
C1258  C1287   1.489   .     S
C1259  C1262   1.432   .     A
C1259  C1291   1.482   .     S
C1260  C1261   1.435   .     A
C1260  C1295   1.484   .     S
C1264  C345    1.471   1_556 S
C1267  O1268   1.220   .     D
C1267  O1269   1.396   .     S
O1269  H1270   1.014   .     S
C1271  O1273   1.397   .     S
C1271  O1272   1.214   .     D
O1273  H1274   1.013   .     S
C1275  O1276   1.219   .     D
C1275  O1277   1.393   .     S
O1277  H1278   1.014   .     S
C1279  O1280   1.212   .     D
C1279  O1281   1.397   .     S
O1281  H1282   1.013   .     S
C1283  O1284   1.223   .     D
C1283  O1285   1.400   .     S
O1285  H1286   1.012   .     S
C1287  O1289   1.400   .     S
C1287  O1288   1.215   .     D
O1289  H1290   1.012   .     S
C1291  O1292   1.222   .     D
C1291  O1293   1.398   .     S
O1293  H1294   1.013   .     S
C1295  O1297   1.392   .     S
C1295  O1296   1.224   .     D
O1297  H1298   1.012   .     S
C1299  H1304   1.105   .     S
C1299  H1305   1.113   .     S
C1299  C1300   1.525   .     S
C1300  H1303   1.102   .     S
C1300  H1302   1.105   .     S
C1300  H1301   1.110   .     S
C1306  C1307   1.529   .     S
C1306  H1312   1.105   .     S
C1306  H1311   1.101   .     S
C1307  H1308   1.111   .     S
C1307  H1309   1.109   .     S
C1307  H1310   1.111   .     S
C1313  H1319   1.113   .     S
C1313  H1318   1.105   .     S
C1313  C1314   1.519   .     S
C1314  H1315   1.103   .     S
C1314  H1316   1.101   .     S
C1314  H1317   1.107   .     S
C1320  H1326   1.107   .     S
C1320  H1325   1.100   .     S
C1320  C1321   1.528   .     S
C1321  H1322   1.111   .     S
C1321  H1323   1.111   .     S
C1321  H1324   1.110   .     S
O1327  Cu1341  1.971   .     S
O1327  C1333   1.309   .     A
O1328  Cu1342  1.971   .     S
O1328  C1334   1.314   .     A
O1329  C1334   1.305   .     A
O1329  Cu1341  1.967   .     S
O1330  Cu1342  1.967   .     S
O1330  C1333   1.312   .     A
N1331  C1346   1.390   .     A
N1331  C1344   1.390   .     A
N1331  Cu1341  2.040   .     S
N1332  C1345   1.374   .     A
N1332  C1343   1.375   .     A
N1332  Cu1342  2.040   .     S
C1333  C1368   1.482   .     S
C1334  C1367   1.479   .     S
O1335  C1339   1.313   .     A
O1335  Cu1341  1.985   .     S
O1336  C1340   1.317   .     A
O1336  Cu1342  1.985   .     S
O1337  C1340   1.313   .     A
O1337  Cu1341  1.979   .     S
O1338  Cu1342  1.979   .     S
O1338  C1339   1.314   .     A
C1339  C1363   1.498   .     S
C1340  C1364   1.503   .     S
Cu1341 Cu1342  2.714   .     S
C1343  C1369   1.488   .     S
C1344  C1373   1.500   .     S
C1344  C1651   1.429   .     S
C1345  C1377   1.486   .     S
C1346  C1381   1.500   .     S
C1346  C1649   1.430   .     S
C1347  C1368   1.411   .     A
C1347  C1401   1.516   .     S
C1348  C1408   1.524   .     S
C1348  C1367   1.413   .     A
C1348  C1452   1.404   .     S
C1349  C1415   1.512   .     S
C1349  C1367   1.405   .     A
C1349  C1449   1.399   .     S
C1350  C1368   1.415   .     A
C1350  C1422   1.526   .     S
C1351  H1355   1.085   .     S
C1351  C1365   1.388   .     A
C1351  C1359   1.389   .     A
C1352  C1360   1.402   .     A
C1352  H1356   1.084   .     S
C1352  C1366   1.388   .     A
C1353  H1357   1.085   .     S
C1353  C1361   1.392   .     A
C1353  C1366   1.390   .     A
C1354  H1358   1.085   .     S
C1354  C1365   1.391   .     A
C1354  C1362   1.402   .     A
C1359  C1385   1.473   .     S
C1359  C1363   1.430   .     A
C1360  C1364   1.438   .     A
C1360  C1389   1.489   .     S
C1361  C1364   1.432   .     A
C1361  C1393   1.482   .     S
C1362  C1363   1.435   .     A
C1362  C1397   1.484   .     S
C1366  C447    1.471   1_556 S
C1369  O1370   1.220   .     D
C1369  O1371   1.396   .     S
O1371  H1372   1.014   .     S
C1373  O1375   1.397   .     S
C1373  O1374   1.214   .     D
O1375  H1376   1.013   .     S
C1377  O1378   1.219   .     D
C1377  O1379   1.393   .     S
O1379  H1380   1.014   .     S
C1381  O1382   1.212   .     D
C1381  O1383   1.397   .     S
O1383  H1384   1.013   .     S
C1385  O1386   1.223   .     D
C1385  O1387   1.400   .     S
O1387  H1388   1.012   .     S
C1389  O1391   1.400   .     S
C1389  O1390   1.215   .     D
O1391  H1392   1.012   .     S
C1393  O1394   1.222   .     D
C1393  O1395   1.398   .     S
O1395  H1396   1.013   .     S
C1397  O1399   1.392   .     S
C1397  O1398   1.224   .     D
O1399  H1400   1.012   .     S
C1401  H1406   1.105   .     S
C1401  H1407   1.113   .     S
C1401  C1402   1.525   .     S
C1402  H1405   1.102   .     S
C1402  H1404   1.105   .     S
C1402  H1403   1.110   .     S
C1408  C1409   1.529   .     S
C1408  H1414   1.105   .     S
C1408  H1413   1.101   .     S
C1409  H1410   1.111   .     S
C1409  H1411   1.109   .     S
C1409  H1412   1.111   .     S
C1415  H1421   1.113   .     S
C1415  H1420   1.105   .     S
C1415  C1416   1.519   .     S
C1416  H1417   1.103   .     S
C1416  H1418   1.101   .     S
C1416  H1419   1.107   .     S
C1422  H1428   1.107   .     S
C1422  H1427   1.100   .     S
C1422  C1423   1.528   .     S
C1423  H1424   1.111   .     S
C1423  H1425   1.111   .     S
C1423  H1426   1.110   .     S
O1429  Cu1443  1.971   .     S
O1429  C1435   1.309   .     A
O1430  Cu1444  1.971   .     S
O1430  C1436   1.314   .     A
O1431  C1436   1.305   .     A
O1431  Cu1443  1.967   .     S
O1432  Cu1444  1.967   .     S
O1432  C1435   1.312   .     A
N1433  C1448   1.390   .     A
N1433  C1446   1.390   .     A
N1433  Cu1443  2.040   .     S
N1434  C1447   1.374   .     A
N1434  C1445   1.375   .     A
N1434  Cu1444  2.040   .     S
C1435  C1470   1.482   .     S
C1436  C1469   1.479   .     S
O1437  C1441   1.313   .     A
O1437  Cu1443  1.985   .     S
O1438  C1442   1.317   .     A
O1438  Cu1444  1.985   .     S
O1439  C1442   1.313   .     A
O1439  Cu1443  1.979   .     S
O1440  Cu1444  1.979   .     S
O1440  C1441   1.314   .     A
C1441  C1465   1.498   .     S
C1442  C1466   1.503   .     S
Cu1443 Cu1444  2.714   .     S
C1445  C1471   1.488   .     S
C1446  C1475   1.500   .     S
C1446  C1753   1.429   .     S
C1447  C1479   1.486   .     S
C1448  C1483   1.500   .     S
C1448  C1751   1.430   .     S
C1449  C1470   1.411   .     A
C1449  C1503   1.516   .     S
C1450  C1510   1.524   .     S
C1450  C1469   1.413   .     A
C1450  C1248   1.404   1_655 S
C1451  C1517   1.512   .     S
C1451  C1469   1.405   .     A
C1451  C1245   1.399   1_655 S
C1452  C1470   1.415   .     A
C1452  C1524   1.526   .     S
C1453  H1457   1.085   .     S
C1453  C1467   1.388   .     A
C1453  C1461   1.389   .     A
C1454  C1462   1.402   .     A
C1454  H1458   1.084   .     S
C1454  C1468   1.388   .     A
C1455  H1459   1.085   .     S
C1455  C1463   1.392   .     A
C1455  C1468   1.390   .     A
C1456  H1460   1.085   .     S
C1456  C1467   1.391   .     A
C1456  C1464   1.402   .     A
C1461  C1487   1.473   .     S
C1461  C1465   1.430   .     A
C1462  C1466   1.438   .     A
C1462  C1491   1.489   .     S
C1463  C1466   1.432   .     A
C1463  C1495   1.482   .     S
C1464  C1465   1.435   .     A
C1464  C1499   1.484   .     S
C1468  C549    1.471   1_556 S
C1471  O1472   1.220   .     D
C1471  O1473   1.396   .     S
O1473  H1474   1.014   .     S
C1475  O1477   1.397   .     S
C1475  O1476   1.214   .     D
O1477  H1478   1.013   .     S
C1479  O1480   1.219   .     D
C1479  O1481   1.393   .     S
O1481  H1482   1.014   .     S
C1483  O1484   1.212   .     D
C1483  O1485   1.397   .     S
O1485  H1486   1.013   .     S
C1487  O1488   1.223   .     D
C1487  O1489   1.400   .     S
O1489  H1490   1.012   .     S
C1491  O1493   1.400   .     S
C1491  O1492   1.215   .     D
O1493  H1494   1.012   .     S
C1495  O1496   1.222   .     D
C1495  O1497   1.398   .     S
O1497  H1498   1.013   .     S
C1499  O1501   1.392   .     S
C1499  O1500   1.224   .     D
O1501  H1502   1.012   .     S
C1503  H1508   1.105   .     S
C1503  H1509   1.113   .     S
C1503  C1504   1.525   .     S
C1504  H1507   1.102   .     S
C1504  H1506   1.105   .     S
C1504  H1505   1.110   .     S
C1510  C1511   1.529   .     S
C1510  H1516   1.105   .     S
C1510  H1515   1.101   .     S
C1511  H1512   1.111   .     S
C1511  H1513   1.109   .     S
C1511  H1514   1.111   .     S
C1517  H1523   1.113   .     S
C1517  H1522   1.105   .     S
C1517  C1518   1.519   .     S
C1518  H1519   1.103   .     S
C1518  H1520   1.101   .     S
C1518  H1521   1.107   .     S
C1524  H1530   1.107   .     S
C1524  H1529   1.100   .     S
C1524  C1525   1.528   .     S
C1525  H1526   1.111   .     S
C1525  H1527   1.111   .     S
C1525  H1528   1.110   .     S
O1531  Cu1545  1.971   .     S
O1531  C1537   1.309   .     A
O1532  Cu1546  1.971   .     S
O1532  C1538   1.314   .     A
O1533  C1538   1.305   .     A
O1533  Cu1545  1.967   .     S
O1534  Cu1546  1.967   .     S
O1534  C1537   1.312   .     A
N1535  C1550   1.390   .     A
N1535  C1548   1.390   .     A
N1535  Cu1545  2.040   .     S
N1536  C1549   1.374   .     A
N1536  C1547   1.375   .     A
N1536  Cu1546  2.040   .     S
C1537  C1572   1.482   .     S
C1538  C1571   1.479   .     S
O1539  C1543   1.313   .     A
O1539  Cu1545  1.985   .     S
O1540  C1544   1.317   .     A
O1540  Cu1546  1.985   .     S
O1541  C1544   1.313   .     A
O1541  Cu1545  1.979   .     S
O1542  Cu1546  1.979   .     S
O1542  C1543   1.314   .     A
C1543  C1567   1.498   .     S
C1544  C1568   1.503   .     S
Cu1545 Cu1546  2.714   .     S
C1547  C1573   1.488   .     S
C1548  C1577   1.500   .     S
C1548  C937    1.429   1_565 S
C1549  C1581   1.486   .     S
C1550  C1585   1.500   .     S
C1550  C935    1.430   1_565 S
C1551  C1572   1.411   .     A
C1551  C1605   1.516   .     S
C1551  C1757   1.399   1_455 S
C1552  C1612   1.524   .     S
C1552  C1571   1.413   .     A
C1552  C1656   1.404   .     S
C1553  C1619   1.512   .     S
C1553  C1571   1.405   .     A
C1553  C1653   1.399   .     S
C1554  C1572   1.415   .     A
C1554  C1626   1.526   .     S
C1554  C1756   1.404   1_455 S
C1555  H1559   1.085   .     S
C1555  C1569   1.388   .     A
C1555  C1563   1.389   .     A
C1556  C1564   1.402   .     A
C1556  H1560   1.084   .     S
C1556  C1570   1.388   .     A
C1557  H1561   1.085   .     S
C1557  C1565   1.392   .     A
C1557  C1570   1.390   .     A
C1558  H1562   1.085   .     S
C1558  C1569   1.391   .     A
C1558  C1566   1.402   .     A
C1563  C1589   1.473   .     S
C1563  C1567   1.430   .     A
C1564  C1568   1.438   .     A
C1564  C1593   1.489   .     S
C1565  C1568   1.432   .     A
C1565  C1597   1.482   .     S
C1566  C1567   1.435   .     A
C1566  C1601   1.484   .     S
C1570  C651    1.471   1_556 S
C1573  O1574   1.220   .     D
C1573  O1575   1.396   .     S
O1575  H1576   1.014   .     S
C1577  O1579   1.397   .     S
C1577  O1578   1.214   .     D
O1579  H1580   1.013   .     S
C1581  O1582   1.219   .     D
C1581  O1583   1.393   .     S
O1583  H1584   1.014   .     S
C1585  O1586   1.212   .     D
C1585  O1587   1.397   .     S
O1587  H1588   1.013   .     S
C1589  O1590   1.223   .     D
C1589  O1591   1.400   .     S
O1591  H1592   1.012   .     S
C1593  O1595   1.400   .     S
C1593  O1594   1.215   .     D
O1595  H1596   1.012   .     S
C1597  O1598   1.222   .     D
C1597  O1599   1.398   .     S
O1599  H1600   1.013   .     S
C1601  O1603   1.392   .     S
C1601  O1602   1.224   .     D
O1603  H1604   1.012   .     S
C1605  H1610   1.105   .     S
C1605  H1611   1.113   .     S
C1605  C1606   1.525   .     S
C1606  H1609   1.102   .     S
C1606  H1608   1.105   .     S
C1606  H1607   1.110   .     S
C1612  C1613   1.529   .     S
C1612  H1618   1.105   .     S
C1612  H1617   1.101   .     S
C1613  H1614   1.111   .     S
C1613  H1615   1.109   .     S
C1613  H1616   1.111   .     S
C1619  H1625   1.113   .     S
C1619  H1624   1.105   .     S
C1619  C1620   1.519   .     S
C1620  H1621   1.103   .     S
C1620  H1622   1.101   .     S
C1620  H1623   1.107   .     S
C1626  H1632   1.107   .     S
C1626  H1631   1.100   .     S
C1626  C1627   1.528   .     S
C1627  H1628   1.111   .     S
C1627  H1629   1.111   .     S
C1627  H1630   1.110   .     S
O1633  Cu1647  1.971   .     S
O1633  C1639   1.309   .     A
O1634  Cu1648  1.971   .     S
O1634  C1640   1.314   .     A
O1635  C1640   1.305   .     A
O1635  Cu1647  1.967   .     S
O1636  Cu1648  1.967   .     S
O1636  C1639   1.312   .     A
N1637  C1652   1.390   .     A
N1637  C1650   1.390   .     A
N1637  Cu1647  2.040   .     S
N1638  C1651   1.374   .     A
N1638  C1649   1.375   .     A
N1638  Cu1648  2.040   .     S
C1639  C1674   1.482   .     S
C1640  C1673   1.479   .     S
O1641  C1645   1.313   .     A
O1641  Cu1647  1.985   .     S
O1642  C1646   1.317   .     A
O1642  Cu1648  1.985   .     S
O1643  C1646   1.313   .     A
O1643  Cu1647  1.979   .     S
O1644  Cu1648  1.979   .     S
O1644  C1645   1.314   .     A
C1645  C1669   1.498   .     S
C1646  C1670   1.503   .     S
Cu1647 Cu1648  2.714   .     S
C1649  C1675   1.488   .     S
C1650  C1679   1.500   .     S
C1650  C1039   1.429   1_565 S
C1651  C1683   1.486   .     S
C1652  C1687   1.500   .     S
C1652  C1037   1.430   1_565 S
C1653  C1674   1.411   .     A
C1653  C1707   1.516   .     S
C1654  C1714   1.524   .     S
C1654  C1673   1.413   .     A
C1654  C1758   1.404   .     S
C1655  C1721   1.512   .     S
C1655  C1673   1.405   .     A
C1655  C1755   1.399   .     S
C1656  C1674   1.415   .     A
C1656  C1728   1.526   .     S
C1657  H1661   1.085   .     S
C1657  C1671   1.388   .     A
C1657  C1665   1.389   .     A
C1658  C1666   1.402   .     A
C1658  H1662   1.084   .     S
C1658  C1672   1.388   .     A
C1659  H1663   1.085   .     S
C1659  C1667   1.392   .     A
C1659  C1672   1.390   .     A
C1660  H1664   1.085   .     S
C1660  C1671   1.391   .     A
C1660  C1668   1.402   .     A
C1665  C1691   1.473   .     S
C1665  C1669   1.430   .     A
C1666  C1670   1.438   .     A
C1666  C1695   1.489   .     S
C1667  C1670   1.432   .     A
C1667  C1699   1.482   .     S
C1668  C1669   1.435   .     A
C1668  C1703   1.484   .     S
C1672  C753    1.471   1_556 S
C1675  O1676   1.220   .     D
C1675  O1677   1.396   .     S
O1677  H1678   1.014   .     S
C1679  O1681   1.397   .     S
C1679  O1680   1.214   .     D
O1681  H1682   1.013   .     S
C1683  O1684   1.219   .     D
C1683  O1685   1.393   .     S
O1685  H1686   1.014   .     S
C1687  O1688   1.212   .     D
C1687  O1689   1.397   .     S
O1689  H1690   1.013   .     S
C1691  O1692   1.223   .     D
C1691  O1693   1.400   .     S
O1693  H1694   1.012   .     S
C1695  O1697   1.400   .     S
C1695  O1696   1.215   .     D
O1697  H1698   1.012   .     S
C1699  O1700   1.222   .     D
C1699  O1701   1.398   .     S
O1701  H1702   1.013   .     S
C1703  O1705   1.392   .     S
C1703  O1704   1.224   .     D
O1705  H1706   1.012   .     S
C1707  H1712   1.105   .     S
C1707  H1713   1.113   .     S
C1707  C1708   1.525   .     S
C1708  H1711   1.102   .     S
C1708  H1710   1.105   .     S
C1708  H1709   1.110   .     S
C1714  C1715   1.529   .     S
C1714  H1720   1.105   .     S
C1714  H1719   1.101   .     S
C1715  H1716   1.111   .     S
C1715  H1717   1.109   .     S
C1715  H1718   1.111   .     S
C1721  H1727   1.113   .     S
C1721  H1726   1.105   .     S
C1721  C1722   1.519   .     S
C1722  H1723   1.103   .     S
C1722  H1724   1.101   .     S
C1722  H1725   1.107   .     S
C1728  H1734   1.107   .     S
C1728  H1733   1.100   .     S
C1728  C1729   1.528   .     S
C1729  H1730   1.111   .     S
C1729  H1731   1.111   .     S
C1729  H1732   1.110   .     S
O1735  Cu1749  1.971   .     S
O1735  C1741   1.309   .     A
O1736  Cu1750  1.971   .     S
O1736  C1742   1.314   .     A
O1737  C1742   1.305   .     A
O1737  Cu1749  1.967   .     S
O1738  Cu1750  1.967   .     S
O1738  C1741   1.312   .     A
N1739  C1754   1.390   .     A
N1739  C1752   1.390   .     A
N1739  Cu1749  2.040   .     S
N1740  C1753   1.374   .     A
N1740  C1751   1.375   .     A
N1740  Cu1750  2.040   .     S
C1741  C1776   1.482   .     S
C1742  C1775   1.479   .     S
O1743  C1747   1.313   .     A
O1743  Cu1749  1.985   .     S
O1744  C1748   1.317   .     A
O1744  Cu1750  1.985   .     S
O1745  C1748   1.313   .     A
O1745  Cu1749  1.979   .     S
O1746  Cu1750  1.979   .     S
O1746  C1747   1.314   .     A
C1747  C1771   1.498   .     S
C1748  C1772   1.503   .     S
Cu1749 Cu1750  2.714   .     S
C1751  C1777   1.488   .     S
C1752  C1781   1.500   .     S
C1752  C1141   1.429   1_565 S
C1753  C1785   1.486   .     S
C1754  C1789   1.500   .     S
C1754  C1139   1.430   1_565 S
C1755  C1776   1.411   .     A
C1755  C1809   1.516   .     S
C1756  C1816   1.524   .     S
C1756  C1775   1.413   .     A
C1756  C1554   1.404   1_655 S
C1757  C1823   1.512   .     S
C1757  C1775   1.405   .     A
C1757  C1551   1.399   1_655 S
C1758  C1776   1.415   .     A
C1758  C1830   1.526   .     S
C1759  H1763   1.085   .     S
C1759  C1773   1.388   .     A
C1759  C1767   1.389   .     A
C1760  C1768   1.402   .     A
C1760  H1764   1.084   .     S
C1760  C1774   1.388   .     A
C1761  H1765   1.085   .     S
C1761  C1769   1.392   .     A
C1761  C1774   1.390   .     A
C1762  H1766   1.085   .     S
C1762  C1773   1.391   .     A
C1762  C1770   1.402   .     A
C1767  C1793   1.473   .     S
C1767  C1771   1.430   .     A
C1768  C1772   1.438   .     A
C1768  C1797   1.489   .     S
C1769  C1772   1.432   .     A
C1769  C1801   1.482   .     S
C1770  C1771   1.435   .     A
C1770  C1805   1.484   .     S
C1774  C855    1.471   1_556 S
C1777  O1778   1.220   .     D
C1777  O1779   1.396   .     S
O1779  H1780   1.014   .     S
C1781  O1783   1.397   .     S
C1781  O1782   1.214   .     D
O1783  H1784   1.013   .     S
C1785  O1786   1.219   .     D
C1785  O1787   1.393   .     S
O1787  H1788   1.014   .     S
C1789  O1790   1.212   .     D
C1789  O1791   1.397   .     S
O1791  H1792   1.013   .     S
C1793  O1794   1.223   .     D
C1793  O1795   1.400   .     S
O1795  H1796   1.012   .     S
C1797  O1799   1.400   .     S
C1797  O1798   1.215   .     D
O1799  H1800   1.012   .     S
C1801  O1802   1.222   .     D
C1801  O1803   1.398   .     S
O1803  H1804   1.013   .     S
C1805  O1807   1.392   .     S
C1805  O1806   1.224   .     D
O1807  H1808   1.012   .     S
C1809  H1814   1.105   .     S
C1809  H1815   1.113   .     S
C1809  C1810   1.525   .     S
C1810  H1813   1.102   .     S
C1810  H1812   1.105   .     S
C1810  H1811   1.110   .     S
C1816  C1817   1.529   .     S
C1816  H1822   1.105   .     S
C1816  H1821   1.101   .     S
C1817  H1818   1.111   .     S
C1817  H1819   1.109   .     S
C1817  H1820   1.111   .     S
C1823  H1829   1.113   .     S
C1823  H1828   1.105   .     S
C1823  C1824   1.519   .     S
C1824  H1825   1.103   .     S
C1824  H1826   1.101   .     S
C1824  H1827   1.107   .     S
C1830  H1836   1.107   .     S
C1830  H1835   1.100   .     S
C1830  C1831   1.528   .     S
C1831  H1832   1.111   .     S
C1831  H1833   1.111   .     S
C1831  H1834   1.110   .     S
