data_str_m2_o1_o10_pcu_sym.100
_audit_creation_date              2020-01-03
_audit_creation_method            'Materials Studio'
_symmetry_space_group_name_H-M    'P1'
_symmetry_Int_Tables_number       1
_symmetry_cell_setting            triclinic
loop_
_symmetry_equiv_pos_as_xyz
  x,y,z
_cell_length_a                    26.3439
_cell_length_b                    32.3439
_cell_length_c                    28.8423
_cell_angle_alpha                 88.9446
_cell_angle_beta                  96.8195
_cell_angle_gamma                 93.1845
loop_
_atom_site_label
_atom_site_type_symbol
_atom_site_fract_x
_atom_site_fract_y
_atom_site_fract_z
_atom_site_U_iso_or_equiv
_atom_site_adp_type
_atom_site_occupancy
C1     C     0.16702   0.08762   0.16706   0.00000  Uiso   1.00
C2     C     0.16655   0.24574   0.16629   0.00000  Uiso   1.00
C3     C     0.06828   0.16535   0.15521   0.00000  Uiso   1.00
C4     C     0.26504   0.16813   0.17810   0.00000  Uiso   1.00
C5     C     0.01350   0.15847   0.15073   0.00000  Uiso   1.00
C6     C     0.31979   0.17513   0.18250   0.00000  Uiso   1.00
C7     C     0.12482   0.02030   0.14307   0.00000  Uiso   1.00
C8     C     0.20721   0.31246   0.19200   0.00000  Uiso   1.00
C9     C     0.12577   0.31059   0.14048   0.00000  Uiso   1.00
C10    C     0.20861   0.02274   0.19174   0.00000  Uiso   1.00
C11    C     0.16665   0.29047   0.16559   0.00000  Uiso   1.00
C12    C     0.16670   0.04289   0.16783   0.00000  Uiso   1.00
C13    C     0.13241   0.14156   0.02272   0.00000  Uiso   1.00
C14    C     0.20096   0.19174   0.31062   0.00000  Uiso   1.00
C15    C     0.13219   0.14118   0.30613   0.00000  Uiso   1.00
C16    C     0.20114   0.19216   0.02720   0.00000  Uiso   1.00
Cu17   Cu    0.16667   0.16667   0.21355   0.00000  Uiso   1.00
Cu18   Cu    0.16667   0.16666   0.11978   0.00000  Uiso   1.00
N19    N     0.16668   0.16668   0.28403   0.00000  Uiso   1.00
N20    N     0.16665   0.16666   0.04931   0.00000  Uiso   1.00
O21    O     0.16666   0.10655   0.20625   0.00000  Uiso   1.00
O22    O     0.16667   0.22678   0.12709   0.00000  Uiso   1.00
O23    O     0.16666   0.10654   0.12706   0.00000  Uiso   1.00
O24    O     0.16667   0.22679   0.20628   0.00000  Uiso   1.00
O25    O     0.09161   0.16667   0.19712   0.00000  Uiso   1.00
O26    O     0.24172   0.16666   0.13621   0.00000  Uiso   1.00
O27    O     0.09161   0.16666   0.11793   0.00000  Uiso   1.00
O28    O     0.24172   0.16667   0.21540   0.00000  Uiso   1.00
C29    C     0.32350   0.12820   0.11331   0.00000  Uiso   1.00
H30    H     0.01991   0.11203   0.09772   0.00000  Uiso   1.00
H31    H     0.29877   0.10387   0.12849   0.00000  Uiso   1.00
H32    H     0.30128   0.14473   0.08433   0.00000  Uiso   1.00
C33    C     0.00960   0.20557   0.21977   0.00000  Uiso   1.00
H34    H     0.31301   0.22276   0.23394   0.00000  Uiso   1.00
H35    H     0.03062   0.18898   0.24943   0.00000  Uiso   1.00
H36    H     0.03551   0.22920   0.20499   0.00000  Uiso   1.00
O37    O     0.08259   0.03936   0.12103   0.00000  Uiso   1.00
H38    H     0.07901   0.06602   0.13624   0.00000  Uiso   1.00
O39    O     0.24581   0.29005   0.21555   0.00000  Uiso   1.00
H40    H     0.26569   0.30707   0.24018   0.00000  Uiso   1.00
C41    C     0.08215   0.28586   0.11280   0.00000  Uiso   1.00
H42    H     0.06520   0.26232   0.13574   0.00000  Uiso   1.00
H43    H     0.05082   0.30517   0.09740   0.00000  Uiso   1.00
H44    H     0.09663   0.27006   0.08356   0.00000  Uiso   1.00
C45    C     0.25579   0.04692   0.21461   0.00000  Uiso   1.00
H46    H     0.25674   0.08037   0.20585   0.00000  Uiso   1.00
H47    H     0.25793   0.04364   0.25316   0.00000  Uiso   1.00
H48    H     0.29072   0.03508   0.20257   0.00000  Uiso   1.00
O49    O     0.09988   0.11602   0.04608   0.00000  Uiso   1.00
H50    H     0.06880   0.10739   0.02527   0.00000  Uiso   1.00
O51    O     0.23359   0.21719   0.28728   0.00000  Uiso   1.00
H52    H     0.26470   0.22573   0.30809   0.00000  Uiso   1.00
C53    C     0.09387   0.11114   0.27943   0.00000  Uiso   1.00
H54    H     0.09650   0.10859   0.24237   0.00000  Uiso   1.00
H55    H     0.09869   0.07940   0.29407   0.00000  Uiso   1.00
H56    H     0.05438   0.12030   0.28226   0.00000  Uiso   1.00
C57    C     0.23941   0.22224   0.05388   0.00000  Uiso   1.00
H58    H     0.23453   0.25396   0.03922   0.00000  Uiso   1.00
H59    H     0.23680   0.22477   0.09094   0.00000  Uiso   1.00
H60    H     0.27893   0.21314   0.05105   0.00000  Uiso   1.00
C61    C     0.50035   0.08762   0.16706   0.00000  Uiso   1.00
C62    C     0.49989   0.24574   0.16629   0.00000  Uiso   1.00
C63    C     0.40162   0.16535   0.15521   0.00000  Uiso   1.00
C64    C     0.59837   0.16813   0.17810   0.00000  Uiso   1.00
C65    C     0.34683   0.15847   0.15073   0.00000  Uiso   1.00
C66    C     0.65312   0.17513   0.18250   0.00000  Uiso   1.00
C67    C     0.45815   0.02030   0.14307   0.00000  Uiso   1.00
C68    C     0.54054   0.31246   0.19200   0.00000  Uiso   1.00
C69    C     0.45911   0.31059   0.14048   0.00000  Uiso   1.00
C70    C     0.54194   0.02274   0.19174   0.00000  Uiso   1.00
C71    C     0.49999   0.29047   0.16559   0.00000  Uiso   1.00
C72    C     0.50003   0.04289   0.16783   0.00000  Uiso   1.00
C73    C     0.46574   0.14156   0.02272   0.00000  Uiso   1.00
C74    C     0.53430   0.19174   0.31062   0.00000  Uiso   1.00
C75    C     0.46552   0.14118   0.30613   0.00000  Uiso   1.00
C76    C     0.53448   0.19216   0.02720   0.00000  Uiso   1.00
Cu77   Cu    0.50000   0.16667   0.21355   0.00000  Uiso   1.00
Cu78   Cu    0.50000   0.16666   0.11978   0.00000  Uiso   1.00
N79    N     0.50001   0.16668   0.28403   0.00000  Uiso   1.00
N80    N     0.49999   0.16666   0.04931   0.00000  Uiso   1.00
O81    O     0.50000   0.10655   0.20625   0.00000  Uiso   1.00
O82    O     0.50000   0.22678   0.12709   0.00000  Uiso   1.00
O83    O     0.50000   0.10654   0.12706   0.00000  Uiso   1.00
O84    O     0.50000   0.22679   0.20628   0.00000  Uiso   1.00
O85    O     0.42495   0.16667   0.19712   0.00000  Uiso   1.00
O86    O     0.57505   0.16666   0.13621   0.00000  Uiso   1.00
O87    O     0.42494   0.16666   0.11793   0.00000  Uiso   1.00
O88    O     0.57506   0.16667   0.21540   0.00000  Uiso   1.00
C89    C     0.65684   0.12820   0.11331   0.00000  Uiso   1.00
H90    H     0.35325   0.11203   0.09772   0.00000  Uiso   1.00
H91    H     0.63210   0.10387   0.12849   0.00000  Uiso   1.00
H92    H     0.63461   0.14473   0.08433   0.00000  Uiso   1.00
C93    C     0.34293   0.20557   0.21977   0.00000  Uiso   1.00
H94    H     0.64634   0.22276   0.23394   0.00000  Uiso   1.00
H95    H     0.36395   0.18898   0.24943   0.00000  Uiso   1.00
H96    H     0.36885   0.22920   0.20499   0.00000  Uiso   1.00
O97    O     0.41592   0.03936   0.12103   0.00000  Uiso   1.00
H98    H     0.41235   0.06602   0.13624   0.00000  Uiso   1.00
O99    O     0.57914   0.29005   0.21555   0.00000  Uiso   1.00
H100   H     0.59903   0.30707   0.24018   0.00000  Uiso   1.00
C101   C     0.41549   0.28586   0.11280   0.00000  Uiso   1.00
H102   H     0.39853   0.26232   0.13574   0.00000  Uiso   1.00
H103   H     0.38415   0.30517   0.09740   0.00000  Uiso   1.00
H104   H     0.42996   0.27006   0.08356   0.00000  Uiso   1.00
C105   C     0.58912   0.04692   0.21461   0.00000  Uiso   1.00
H106   H     0.59007   0.08037   0.20585   0.00000  Uiso   1.00
H107   H     0.59127   0.04364   0.25316   0.00000  Uiso   1.00
H108   H     0.62405   0.03508   0.20257   0.00000  Uiso   1.00
O109   O     0.43321   0.11602   0.04608   0.00000  Uiso   1.00
H110   H     0.40214   0.10739   0.02527   0.00000  Uiso   1.00
O111   O     0.56692   0.21719   0.28728   0.00000  Uiso   1.00
H112   H     0.59804   0.22573   0.30809   0.00000  Uiso   1.00
C113   C     0.42721   0.11114   0.27943   0.00000  Uiso   1.00
H114   H     0.42983   0.10859   0.24237   0.00000  Uiso   1.00
H115   H     0.43202   0.07940   0.29407   0.00000  Uiso   1.00
H116   H     0.38771   0.12030   0.28226   0.00000  Uiso   1.00
C117   C     0.57274   0.22224   0.05388   0.00000  Uiso   1.00
H118   H     0.56786   0.25396   0.03922   0.00000  Uiso   1.00
H119   H     0.57013   0.22477   0.09094   0.00000  Uiso   1.00
H120   H     0.61226   0.21314   0.05105   0.00000  Uiso   1.00
C121   C     0.83369   0.08762   0.16706   0.00000  Uiso   1.00
C122   C     0.83322   0.24574   0.16629   0.00000  Uiso   1.00
C123   C     0.73495   0.16535   0.15521   0.00000  Uiso   1.00
C124   C     0.93170   0.16813   0.17810   0.00000  Uiso   1.00
C125   C     0.68016   0.15847   0.15073   0.00000  Uiso   1.00
C126   C     0.98646   0.17513   0.18250   0.00000  Uiso   1.00
C127   C     0.79148   0.02030   0.14307   0.00000  Uiso   1.00
C128   C     0.87387   0.31246   0.19200   0.00000  Uiso   1.00
C129   C     0.79244   0.31059   0.14048   0.00000  Uiso   1.00
C130   C     0.87528   0.02274   0.19174   0.00000  Uiso   1.00
C131   C     0.83332   0.29047   0.16559   0.00000  Uiso   1.00
C132   C     0.83336   0.04289   0.16783   0.00000  Uiso   1.00
C133   C     0.79908   0.14156   0.02272   0.00000  Uiso   1.00
C134   C     0.86763   0.19174   0.31062   0.00000  Uiso   1.00
C135   C     0.79886   0.14118   0.30613   0.00000  Uiso   1.00
C136   C     0.86781   0.19216   0.02720   0.00000  Uiso   1.00
Cu137  Cu    0.83333   0.16667   0.21355   0.00000  Uiso   1.00
Cu138  Cu    0.83333   0.16666   0.11978   0.00000  Uiso   1.00
N139   N     0.83335   0.16668   0.28403   0.00000  Uiso   1.00
N140   N     0.83332   0.16666   0.04931   0.00000  Uiso   1.00
O141   O     0.83333   0.10655   0.20625   0.00000  Uiso   1.00
O142   O     0.83334   0.22678   0.12709   0.00000  Uiso   1.00
O143   O     0.83333   0.10654   0.12706   0.00000  Uiso   1.00
O144   O     0.83334   0.22679   0.20628   0.00000  Uiso   1.00
O145   O     0.75828   0.16667   0.19712   0.00000  Uiso   1.00
O146   O     0.90839   0.16666   0.13621   0.00000  Uiso   1.00
O147   O     0.75828   0.16666   0.11793   0.00000  Uiso   1.00
O148   O     0.90839   0.16667   0.21540   0.00000  Uiso   1.00
C149   C     0.99017   0.12820   0.11331   0.00000  Uiso   1.00
H150   H     0.68658   0.11203   0.09772   0.00000  Uiso   1.00
H151   H     0.96544   0.10387   0.12849   0.00000  Uiso   1.00
H152   H     0.96795   0.14473   0.08433   0.00000  Uiso   1.00
C153   C     0.67626   0.20557   0.21977   0.00000  Uiso   1.00
H154   H     0.97967   0.22276   0.23394   0.00000  Uiso   1.00
H155   H     0.69729   0.18898   0.24943   0.00000  Uiso   1.00
H156   H     0.70218   0.22920   0.20499   0.00000  Uiso   1.00
O157   O     0.74925   0.03936   0.12103   0.00000  Uiso   1.00
H158   H     0.74568   0.06602   0.13624   0.00000  Uiso   1.00
O159   O     0.91247   0.29005   0.21555   0.00000  Uiso   1.00
H160   H     0.93236   0.30707   0.24018   0.00000  Uiso   1.00
C161   C     0.74882   0.28586   0.11280   0.00000  Uiso   1.00
H162   H     0.73187   0.26232   0.13574   0.00000  Uiso   1.00
H163   H     0.71749   0.30517   0.09740   0.00000  Uiso   1.00
H164   H     0.76330   0.27006   0.08356   0.00000  Uiso   1.00
C165   C     0.92245   0.04692   0.21461   0.00000  Uiso   1.00
H166   H     0.92341   0.08037   0.20585   0.00000  Uiso   1.00
H167   H     0.92460   0.04364   0.25316   0.00000  Uiso   1.00
H168   H     0.95739   0.03508   0.20257   0.00000  Uiso   1.00
O169   O     0.76655   0.11602   0.04608   0.00000  Uiso   1.00
H170   H     0.73547   0.10739   0.02527   0.00000  Uiso   1.00
O171   O     0.90025   0.21719   0.28728   0.00000  Uiso   1.00
H172   H     0.93137   0.22573   0.30809   0.00000  Uiso   1.00
C173   C     0.76054   0.11114   0.27943   0.00000  Uiso   1.00
H174   H     0.76317   0.10859   0.24237   0.00000  Uiso   1.00
H175   H     0.76535   0.07940   0.29407   0.00000  Uiso   1.00
H176   H     0.72104   0.12030   0.28226   0.00000  Uiso   1.00
C177   C     0.90608   0.22224   0.05388   0.00000  Uiso   1.00
H178   H     0.90120   0.25396   0.03922   0.00000  Uiso   1.00
H179   H     0.90347   0.22477   0.09094   0.00000  Uiso   1.00
H180   H     0.94560   0.21314   0.05105   0.00000  Uiso   1.00
C181   C     0.16702   0.42095   0.16706   0.00000  Uiso   1.00
C182   C     0.16655   0.57908   0.16629   0.00000  Uiso   1.00
C183   C     0.06828   0.49868   0.15521   0.00000  Uiso   1.00
C184   C     0.26504   0.50146   0.17810   0.00000  Uiso   1.00
C185   C     0.01350   0.49180   0.15073   0.00000  Uiso   1.00
C186   C     0.31979   0.50847   0.18250   0.00000  Uiso   1.00
C187   C     0.12482   0.35363   0.14307   0.00000  Uiso   1.00
C188   C     0.20721   0.64579   0.19200   0.00000  Uiso   1.00
C189   C     0.12577   0.64392   0.14048   0.00000  Uiso   1.00
C190   C     0.20861   0.35607   0.19174   0.00000  Uiso   1.00
C191   C     0.16665   0.62381   0.16559   0.00000  Uiso   1.00
C192   C     0.16670   0.37622   0.16783   0.00000  Uiso   1.00
C193   C     0.13241   0.47489   0.02272   0.00000  Uiso   1.00
C194   C     0.20096   0.52507   0.31062   0.00000  Uiso   1.00
C195   C     0.13219   0.47451   0.30613   0.00000  Uiso   1.00
C196   C     0.20114   0.52549   0.02720   0.00000  Uiso   1.00
Cu197  Cu    0.16667   0.50001   0.21355   0.00000  Uiso   1.00
Cu198  Cu    0.16667   0.49999   0.11978   0.00000  Uiso   1.00
N199   N     0.16668   0.50001   0.28403   0.00000  Uiso   1.00
N200   N     0.16665   0.49999   0.04931   0.00000  Uiso   1.00
O201   O     0.16666   0.43989   0.20625   0.00000  Uiso   1.00
O202   O     0.16667   0.56011   0.12709   0.00000  Uiso   1.00
O203   O     0.16666   0.43988   0.12706   0.00000  Uiso   1.00
O204   O     0.16667   0.56012   0.20628   0.00000  Uiso   1.00
O205   O     0.09161   0.50000   0.19712   0.00000  Uiso   1.00
O206   O     0.24172   0.50000   0.13621   0.00000  Uiso   1.00
O207   O     0.09161   0.49999   0.11793   0.00000  Uiso   1.00
O208   O     0.24172   0.50001   0.21540   0.00000  Uiso   1.00
C209   C     0.32350   0.46154   0.11331   0.00000  Uiso   1.00
H210   H     0.01991   0.44537   0.09772   0.00000  Uiso   1.00
H211   H     0.29877   0.43720   0.12849   0.00000  Uiso   1.00
H212   H     0.30128   0.47806   0.08433   0.00000  Uiso   1.00
C213   C     0.00960   0.53890   0.21977   0.00000  Uiso   1.00
H214   H     0.31301   0.55609   0.23394   0.00000  Uiso   1.00
H215   H     0.03062   0.52231   0.24943   0.00000  Uiso   1.00
H216   H     0.03551   0.56254   0.20499   0.00000  Uiso   1.00
O217   O     0.08259   0.37269   0.12103   0.00000  Uiso   1.00
H218   H     0.07901   0.39935   0.13624   0.00000  Uiso   1.00
O219   O     0.24581   0.62338   0.21555   0.00000  Uiso   1.00
H220   H     0.26569   0.64041   0.24018   0.00000  Uiso   1.00
C221   C     0.08215   0.61919   0.11280   0.00000  Uiso   1.00
H222   H     0.06520   0.59565   0.13574   0.00000  Uiso   1.00
H223   H     0.05082   0.63851   0.09740   0.00000  Uiso   1.00
H224   H     0.09663   0.60339   0.08356   0.00000  Uiso   1.00
C225   C     0.25579   0.38025   0.21461   0.00000  Uiso   1.00
H226   H     0.25674   0.41370   0.20585   0.00000  Uiso   1.00
H227   H     0.25793   0.37697   0.25316   0.00000  Uiso   1.00
H228   H     0.29072   0.36841   0.20257   0.00000  Uiso   1.00
O229   O     0.09988   0.44935   0.04608   0.00000  Uiso   1.00
H230   H     0.06880   0.44072   0.02527   0.00000  Uiso   1.00
O231   O     0.23359   0.55053   0.28728   0.00000  Uiso   1.00
H232   H     0.26470   0.55906   0.30809   0.00000  Uiso   1.00
C233   C     0.09387   0.44448   0.27943   0.00000  Uiso   1.00
H234   H     0.09650   0.44192   0.24237   0.00000  Uiso   1.00
H235   H     0.09869   0.41274   0.29407   0.00000  Uiso   1.00
H236   H     0.05438   0.45364   0.28226   0.00000  Uiso   1.00
C237   C     0.23941   0.55557   0.05388   0.00000  Uiso   1.00
H238   H     0.23453   0.58730   0.03922   0.00000  Uiso   1.00
H239   H     0.23680   0.55810   0.09094   0.00000  Uiso   1.00
H240   H     0.27893   0.54647   0.05105   0.00000  Uiso   1.00
C241   C     0.50035   0.42095   0.16706   0.00000  Uiso   1.00
C242   C     0.49989   0.57908   0.16629   0.00000  Uiso   1.00
C243   C     0.40162   0.49868   0.15521   0.00000  Uiso   1.00
C244   C     0.59837   0.50146   0.17810   0.00000  Uiso   1.00
C245   C     0.34683   0.49180   0.15073   0.00000  Uiso   1.00
C246   C     0.65312   0.50847   0.18250   0.00000  Uiso   1.00
C247   C     0.45815   0.35363   0.14307   0.00000  Uiso   1.00
C248   C     0.54054   0.64579   0.19200   0.00000  Uiso   1.00
C249   C     0.45911   0.64392   0.14048   0.00000  Uiso   1.00
C250   C     0.54194   0.35607   0.19174   0.00000  Uiso   1.00
C251   C     0.49999   0.62381   0.16559   0.00000  Uiso   1.00
C252   C     0.50003   0.37622   0.16783   0.00000  Uiso   1.00
C253   C     0.46574   0.47489   0.02272   0.00000  Uiso   1.00
C254   C     0.53430   0.52507   0.31062   0.00000  Uiso   1.00
C255   C     0.46552   0.47451   0.30613   0.00000  Uiso   1.00
C256   C     0.53448   0.52549   0.02720   0.00000  Uiso   1.00
Cu257  Cu    0.50000   0.50001   0.21355   0.00000  Uiso   1.00
Cu258  Cu    0.50000   0.49999   0.11978   0.00000  Uiso   1.00
N259   N     0.50001   0.50001   0.28403   0.00000  Uiso   1.00
N260   N     0.49999   0.49999   0.04931   0.00000  Uiso   1.00
O261   O     0.50000   0.43989   0.20625   0.00000  Uiso   1.00
O262   O     0.50000   0.56011   0.12709   0.00000  Uiso   1.00
O263   O     0.50000   0.43988   0.12706   0.00000  Uiso   1.00
O264   O     0.50000   0.56012   0.20628   0.00000  Uiso   1.00
O265   O     0.42495   0.50000   0.19712   0.00000  Uiso   1.00
O266   O     0.57505   0.50000   0.13621   0.00000  Uiso   1.00
O267   O     0.42494   0.49999   0.11793   0.00000  Uiso   1.00
O268   O     0.57506   0.50001   0.21540   0.00000  Uiso   1.00
C269   C     0.65684   0.46154   0.11331   0.00000  Uiso   1.00
H270   H     0.35325   0.44537   0.09772   0.00000  Uiso   1.00
H271   H     0.63210   0.43720   0.12849   0.00000  Uiso   1.00
H272   H     0.63461   0.47806   0.08433   0.00000  Uiso   1.00
C273   C     0.34293   0.53890   0.21977   0.00000  Uiso   1.00
H274   H     0.64634   0.55609   0.23394   0.00000  Uiso   1.00
H275   H     0.36395   0.52231   0.24943   0.00000  Uiso   1.00
H276   H     0.36885   0.56254   0.20499   0.00000  Uiso   1.00
O277   O     0.41592   0.37269   0.12103   0.00000  Uiso   1.00
H278   H     0.41235   0.39935   0.13624   0.00000  Uiso   1.00
O279   O     0.57914   0.62338   0.21555   0.00000  Uiso   1.00
H280   H     0.59903   0.64041   0.24018   0.00000  Uiso   1.00
C281   C     0.41549   0.61919   0.11280   0.00000  Uiso   1.00
H282   H     0.39853   0.59565   0.13574   0.00000  Uiso   1.00
H283   H     0.38415   0.63851   0.09740   0.00000  Uiso   1.00
H284   H     0.42996   0.60339   0.08356   0.00000  Uiso   1.00
C285   C     0.58912   0.38025   0.21461   0.00000  Uiso   1.00
H286   H     0.59007   0.41370   0.20585   0.00000  Uiso   1.00
H287   H     0.59127   0.37697   0.25316   0.00000  Uiso   1.00
H288   H     0.62405   0.36841   0.20257   0.00000  Uiso   1.00
O289   O     0.43321   0.44935   0.04608   0.00000  Uiso   1.00
H290   H     0.40214   0.44072   0.02527   0.00000  Uiso   1.00
O291   O     0.56692   0.55053   0.28728   0.00000  Uiso   1.00
H292   H     0.59804   0.55906   0.30809   0.00000  Uiso   1.00
C293   C     0.42721   0.44448   0.27943   0.00000  Uiso   1.00
H294   H     0.42983   0.44192   0.24237   0.00000  Uiso   1.00
H295   H     0.43202   0.41274   0.29407   0.00000  Uiso   1.00
H296   H     0.38771   0.45364   0.28226   0.00000  Uiso   1.00
C297   C     0.57274   0.55557   0.05388   0.00000  Uiso   1.00
H298   H     0.56786   0.58730   0.03922   0.00000  Uiso   1.00
H299   H     0.57013   0.55810   0.09094   0.00000  Uiso   1.00
H300   H     0.61226   0.54647   0.05105   0.00000  Uiso   1.00
C301   C     0.83369   0.42095   0.16706   0.00000  Uiso   1.00
C302   C     0.83322   0.57908   0.16629   0.00000  Uiso   1.00
C303   C     0.73495   0.49868   0.15521   0.00000  Uiso   1.00
C304   C     0.93170   0.50146   0.17810   0.00000  Uiso   1.00
C305   C     0.68016   0.49180   0.15073   0.00000  Uiso   1.00
C306   C     0.98646   0.50847   0.18250   0.00000  Uiso   1.00
C307   C     0.79148   0.35363   0.14307   0.00000  Uiso   1.00
C308   C     0.87387   0.64579   0.19200   0.00000  Uiso   1.00
C309   C     0.79244   0.64392   0.14048   0.00000  Uiso   1.00
C310   C     0.87528   0.35607   0.19174   0.00000  Uiso   1.00
C311   C     0.83332   0.62381   0.16559   0.00000  Uiso   1.00
C312   C     0.83336   0.37622   0.16783   0.00000  Uiso   1.00
C313   C     0.79908   0.47489   0.02272   0.00000  Uiso   1.00
C314   C     0.86763   0.52507   0.31062   0.00000  Uiso   1.00
C315   C     0.79886   0.47451   0.30613   0.00000  Uiso   1.00
C316   C     0.86781   0.52549   0.02720   0.00000  Uiso   1.00
Cu317  Cu    0.83333   0.50001   0.21355   0.00000  Uiso   1.00
Cu318  Cu    0.83333   0.49999   0.11978   0.00000  Uiso   1.00
N319   N     0.83335   0.50001   0.28403   0.00000  Uiso   1.00
N320   N     0.83332   0.49999   0.04931   0.00000  Uiso   1.00
O321   O     0.83333   0.43989   0.20625   0.00000  Uiso   1.00
O322   O     0.83334   0.56011   0.12709   0.00000  Uiso   1.00
O323   O     0.83333   0.43988   0.12706   0.00000  Uiso   1.00
O324   O     0.83334   0.56012   0.20628   0.00000  Uiso   1.00
O325   O     0.75828   0.50000   0.19712   0.00000  Uiso   1.00
O326   O     0.90839   0.50000   0.13621   0.00000  Uiso   1.00
O327   O     0.75828   0.49999   0.11793   0.00000  Uiso   1.00
O328   O     0.90839   0.50001   0.21540   0.00000  Uiso   1.00
C329   C     0.99017   0.46154   0.11331   0.00000  Uiso   1.00
H330   H     0.68658   0.44537   0.09772   0.00000  Uiso   1.00
H331   H     0.96544   0.43720   0.12849   0.00000  Uiso   1.00
H332   H     0.96795   0.47806   0.08433   0.00000  Uiso   1.00
C333   C     0.67626   0.53890   0.21977   0.00000  Uiso   1.00
H334   H     0.97967   0.55609   0.23394   0.00000  Uiso   1.00
H335   H     0.69729   0.52231   0.24943   0.00000  Uiso   1.00
H336   H     0.70218   0.56254   0.20499   0.00000  Uiso   1.00
O337   O     0.74925   0.37269   0.12103   0.00000  Uiso   1.00
H338   H     0.74568   0.39935   0.13624   0.00000  Uiso   1.00
O339   O     0.91247   0.62338   0.21555   0.00000  Uiso   1.00
H340   H     0.93236   0.64041   0.24018   0.00000  Uiso   1.00
C341   C     0.74882   0.61919   0.11280   0.00000  Uiso   1.00
H342   H     0.73187   0.59565   0.13574   0.00000  Uiso   1.00
H343   H     0.71749   0.63851   0.09740   0.00000  Uiso   1.00
H344   H     0.76330   0.60339   0.08356   0.00000  Uiso   1.00
C345   C     0.92245   0.38025   0.21461   0.00000  Uiso   1.00
H346   H     0.92341   0.41370   0.20585   0.00000  Uiso   1.00
H347   H     0.92460   0.37697   0.25316   0.00000  Uiso   1.00
H348   H     0.95739   0.36841   0.20257   0.00000  Uiso   1.00
O349   O     0.76655   0.44935   0.04608   0.00000  Uiso   1.00
H350   H     0.73547   0.44072   0.02527   0.00000  Uiso   1.00
O351   O     0.90025   0.55053   0.28728   0.00000  Uiso   1.00
H352   H     0.93137   0.55906   0.30809   0.00000  Uiso   1.00
C353   C     0.76054   0.44448   0.27943   0.00000  Uiso   1.00
H354   H     0.76317   0.44192   0.24237   0.00000  Uiso   1.00
H355   H     0.76535   0.41274   0.29407   0.00000  Uiso   1.00
H356   H     0.72104   0.45364   0.28226   0.00000  Uiso   1.00
C357   C     0.90608   0.55557   0.05388   0.00000  Uiso   1.00
H358   H     0.90120   0.58730   0.03922   0.00000  Uiso   1.00
H359   H     0.90347   0.55810   0.09094   0.00000  Uiso   1.00
H360   H     0.94560   0.54647   0.05105   0.00000  Uiso   1.00
C361   C     0.16702   0.75428   0.16706   0.00000  Uiso   1.00
C362   C     0.16655   0.91241   0.16629   0.00000  Uiso   1.00
C363   C     0.06828   0.83201   0.15521   0.00000  Uiso   1.00
C364   C     0.26504   0.83479   0.17810   0.00000  Uiso   1.00
C365   C     0.01350   0.82513   0.15073   0.00000  Uiso   1.00
C366   C     0.31979   0.84180   0.18250   0.00000  Uiso   1.00
C367   C     0.12482   0.68696   0.14307   0.00000  Uiso   1.00
C368   C     0.20721   0.97912   0.19200   0.00000  Uiso   1.00
C369   C     0.12577   0.97726   0.14048   0.00000  Uiso   1.00
C370   C     0.20861   0.68940   0.19174   0.00000  Uiso   1.00
C371   C     0.16665   0.95714   0.16559   0.00000  Uiso   1.00
C372   C     0.16670   0.70956   0.16783   0.00000  Uiso   1.00
C373   C     0.13241   0.80823   0.02272   0.00000  Uiso   1.00
C374   C     0.20096   0.85840   0.31062   0.00000  Uiso   1.00
C375   C     0.13219   0.80784   0.30613   0.00000  Uiso   1.00
C376   C     0.20114   0.85882   0.02720   0.00000  Uiso   1.00
Cu377  Cu    0.16667   0.83334   0.21355   0.00000  Uiso   1.00
Cu378  Cu    0.16667   0.83333   0.11978   0.00000  Uiso   1.00
N379   N     0.16668   0.83334   0.28403   0.00000  Uiso   1.00
N380   N     0.16665   0.83332   0.04931   0.00000  Uiso   1.00
O381   O     0.16666   0.77322   0.20625   0.00000  Uiso   1.00
O382   O     0.16667   0.89345   0.12709   0.00000  Uiso   1.00
O383   O     0.16666   0.77321   0.12706   0.00000  Uiso   1.00
O384   O     0.16667   0.89346   0.20628   0.00000  Uiso   1.00
O385   O     0.09161   0.83334   0.19712   0.00000  Uiso   1.00
O386   O     0.24172   0.83333   0.13621   0.00000  Uiso   1.00
O387   O     0.09161   0.83333   0.11793   0.00000  Uiso   1.00
O388   O     0.24172   0.83334   0.21540   0.00000  Uiso   1.00
C389   C     0.32350   0.79487   0.11331   0.00000  Uiso   1.00
H390   H     0.01991   0.77870   0.09772   0.00000  Uiso   1.00
H391   H     0.29877   0.77053   0.12849   0.00000  Uiso   1.00
H392   H     0.30128   0.81140   0.08433   0.00000  Uiso   1.00
C393   C     0.00960   0.87224   0.21977   0.00000  Uiso   1.00
H394   H     0.31301   0.88943   0.23394   0.00000  Uiso   1.00
H395   H     0.03062   0.85565   0.24943   0.00000  Uiso   1.00
H396   H     0.03551   0.89587   0.20499   0.00000  Uiso   1.00
O397   O     0.08259   0.70602   0.12103   0.00000  Uiso   1.00
H398   H     0.07901   0.73268   0.13624   0.00000  Uiso   1.00
O399   O     0.24581   0.95672   0.21555   0.00000  Uiso   1.00
H400   H     0.26569   0.97374   0.24018   0.00000  Uiso   1.00
C401   C     0.08215   0.95252   0.11280   0.00000  Uiso   1.00
H402   H     0.06520   0.92899   0.13574   0.00000  Uiso   1.00
H403   H     0.05082   0.97184   0.09740   0.00000  Uiso   1.00
H404   H     0.09663   0.93672   0.08356   0.00000  Uiso   1.00
C405   C     0.25579   0.71359   0.21461   0.00000  Uiso   1.00
H406   H     0.25674   0.74703   0.20585   0.00000  Uiso   1.00
H407   H     0.25793   0.71030   0.25316   0.00000  Uiso   1.00
H408   H     0.29072   0.70174   0.20257   0.00000  Uiso   1.00
O409   O     0.09988   0.78269   0.04608   0.00000  Uiso   1.00
H410   H     0.06880   0.77405   0.02527   0.00000  Uiso   1.00
O411   O     0.23359   0.88386   0.28728   0.00000  Uiso   1.00
H412   H     0.26470   0.89240   0.30809   0.00000  Uiso   1.00
C413   C     0.09387   0.77781   0.27943   0.00000  Uiso   1.00
H414   H     0.09650   0.77526   0.24237   0.00000  Uiso   1.00
H415   H     0.09869   0.74607   0.29407   0.00000  Uiso   1.00
H416   H     0.05438   0.78697   0.28226   0.00000  Uiso   1.00
C417   C     0.23941   0.88890   0.05388   0.00000  Uiso   1.00
H418   H     0.23453   0.92063   0.03922   0.00000  Uiso   1.00
H419   H     0.23680   0.89144   0.09094   0.00000  Uiso   1.00
H420   H     0.27893   0.87981   0.05105   0.00000  Uiso   1.00
C421   C     0.50035   0.75428   0.16706   0.00000  Uiso   1.00
C422   C     0.49989   0.91241   0.16629   0.00000  Uiso   1.00
C423   C     0.40162   0.83201   0.15521   0.00000  Uiso   1.00
C424   C     0.59837   0.83479   0.17810   0.00000  Uiso   1.00
C425   C     0.34683   0.82513   0.15073   0.00000  Uiso   1.00
C426   C     0.65312   0.84180   0.18250   0.00000  Uiso   1.00
C427   C     0.45815   0.68696   0.14307   0.00000  Uiso   1.00
C428   C     0.54054   0.97912   0.19200   0.00000  Uiso   1.00
C429   C     0.45911   0.97726   0.14048   0.00000  Uiso   1.00
C430   C     0.54194   0.68940   0.19174   0.00000  Uiso   1.00
C431   C     0.49999   0.95714   0.16559   0.00000  Uiso   1.00
C432   C     0.50003   0.70956   0.16783   0.00000  Uiso   1.00
C433   C     0.46574   0.80823   0.02272   0.00000  Uiso   1.00
C434   C     0.53430   0.85840   0.31062   0.00000  Uiso   1.00
C435   C     0.46552   0.80784   0.30613   0.00000  Uiso   1.00
C436   C     0.53448   0.85882   0.02720   0.00000  Uiso   1.00
Cu437  Cu    0.50000   0.83334   0.21355   0.00000  Uiso   1.00
Cu438  Cu    0.50000   0.83333   0.11978   0.00000  Uiso   1.00
N439   N     0.50001   0.83334   0.28403   0.00000  Uiso   1.00
N440   N     0.49999   0.83332   0.04931   0.00000  Uiso   1.00
O441   O     0.50000   0.77322   0.20625   0.00000  Uiso   1.00
O442   O     0.50000   0.89345   0.12709   0.00000  Uiso   1.00
O443   O     0.50000   0.77321   0.12706   0.00000  Uiso   1.00
O444   O     0.50000   0.89346   0.20628   0.00000  Uiso   1.00
O445   O     0.42495   0.83334   0.19712   0.00000  Uiso   1.00
O446   O     0.57505   0.83333   0.13621   0.00000  Uiso   1.00
O447   O     0.42494   0.83333   0.11793   0.00000  Uiso   1.00
O448   O     0.57506   0.83334   0.21540   0.00000  Uiso   1.00
C449   C     0.65684   0.79487   0.11331   0.00000  Uiso   1.00
H450   H     0.35325   0.77870   0.09772   0.00000  Uiso   1.00
H451   H     0.63210   0.77053   0.12849   0.00000  Uiso   1.00
H452   H     0.63461   0.81140   0.08433   0.00000  Uiso   1.00
C453   C     0.34293   0.87224   0.21977   0.00000  Uiso   1.00
H454   H     0.64634   0.88943   0.23394   0.00000  Uiso   1.00
H455   H     0.36395   0.85565   0.24943   0.00000  Uiso   1.00
H456   H     0.36885   0.89587   0.20499   0.00000  Uiso   1.00
O457   O     0.41592   0.70602   0.12103   0.00000  Uiso   1.00
H458   H     0.41235   0.73268   0.13624   0.00000  Uiso   1.00
O459   O     0.57914   0.95672   0.21555   0.00000  Uiso   1.00
H460   H     0.59903   0.97374   0.24018   0.00000  Uiso   1.00
C461   C     0.41549   0.95252   0.11280   0.00000  Uiso   1.00
H462   H     0.39853   0.92899   0.13574   0.00000  Uiso   1.00
H463   H     0.38415   0.97184   0.09740   0.00000  Uiso   1.00
H464   H     0.42996   0.93672   0.08356   0.00000  Uiso   1.00
C465   C     0.58912   0.71359   0.21461   0.00000  Uiso   1.00
H466   H     0.59007   0.74703   0.20585   0.00000  Uiso   1.00
H467   H     0.59127   0.71030   0.25316   0.00000  Uiso   1.00
H468   H     0.62405   0.70174   0.20257   0.00000  Uiso   1.00
O469   O     0.43321   0.78269   0.04608   0.00000  Uiso   1.00
H470   H     0.40214   0.77405   0.02527   0.00000  Uiso   1.00
O471   O     0.56692   0.88386   0.28728   0.00000  Uiso   1.00
H472   H     0.59804   0.89240   0.30809   0.00000  Uiso   1.00
C473   C     0.42721   0.77781   0.27943   0.00000  Uiso   1.00
H474   H     0.42983   0.77526   0.24237   0.00000  Uiso   1.00
H475   H     0.43202   0.74607   0.29407   0.00000  Uiso   1.00
H476   H     0.38771   0.78697   0.28226   0.00000  Uiso   1.00
C477   C     0.57274   0.88890   0.05388   0.00000  Uiso   1.00
H478   H     0.56786   0.92063   0.03922   0.00000  Uiso   1.00
H479   H     0.57013   0.89144   0.09094   0.00000  Uiso   1.00
H480   H     0.61226   0.87981   0.05105   0.00000  Uiso   1.00
C481   C     0.83369   0.75428   0.16706   0.00000  Uiso   1.00
C482   C     0.83322   0.91241   0.16629   0.00000  Uiso   1.00
C483   C     0.73495   0.83201   0.15521   0.00000  Uiso   1.00
C484   C     0.93170   0.83479   0.17810   0.00000  Uiso   1.00
C485   C     0.68016   0.82513   0.15073   0.00000  Uiso   1.00
C486   C     0.98646   0.84180   0.18250   0.00000  Uiso   1.00
C487   C     0.79148   0.68696   0.14307   0.00000  Uiso   1.00
C488   C     0.87387   0.97912   0.19200   0.00000  Uiso   1.00
C489   C     0.79244   0.97726   0.14048   0.00000  Uiso   1.00
C490   C     0.87528   0.68940   0.19174   0.00000  Uiso   1.00
C491   C     0.83332   0.95714   0.16559   0.00000  Uiso   1.00
C492   C     0.83336   0.70956   0.16783   0.00000  Uiso   1.00
C493   C     0.79908   0.80823   0.02272   0.00000  Uiso   1.00
C494   C     0.86763   0.85840   0.31062   0.00000  Uiso   1.00
C495   C     0.79886   0.80784   0.30613   0.00000  Uiso   1.00
C496   C     0.86781   0.85882   0.02720   0.00000  Uiso   1.00
Cu497  Cu    0.83333   0.83334   0.21355   0.00000  Uiso   1.00
Cu498  Cu    0.83333   0.83333   0.11978   0.00000  Uiso   1.00
N499   N     0.83335   0.83334   0.28403   0.00000  Uiso   1.00
N500   N     0.83332   0.83332   0.04931   0.00000  Uiso   1.00
O501   O     0.83333   0.77322   0.20625   0.00000  Uiso   1.00
O502   O     0.83334   0.89345   0.12709   0.00000  Uiso   1.00
O503   O     0.83333   0.77321   0.12706   0.00000  Uiso   1.00
O504   O     0.83334   0.89346   0.20628   0.00000  Uiso   1.00
O505   O     0.75828   0.83334   0.19712   0.00000  Uiso   1.00
O506   O     0.90839   0.83333   0.13621   0.00000  Uiso   1.00
O507   O     0.75828   0.83333   0.11793   0.00000  Uiso   1.00
O508   O     0.90839   0.83334   0.21540   0.00000  Uiso   1.00
C509   C     0.99017   0.79487   0.11331   0.00000  Uiso   1.00
H510   H     0.68658   0.77870   0.09772   0.00000  Uiso   1.00
H511   H     0.96544   0.77053   0.12849   0.00000  Uiso   1.00
H512   H     0.96795   0.81140   0.08433   0.00000  Uiso   1.00
C513   C     0.67626   0.87224   0.21977   0.00000  Uiso   1.00
H514   H     0.97967   0.88943   0.23394   0.00000  Uiso   1.00
H515   H     0.69729   0.85565   0.24943   0.00000  Uiso   1.00
H516   H     0.70218   0.89587   0.20499   0.00000  Uiso   1.00
O517   O     0.74925   0.70602   0.12103   0.00000  Uiso   1.00
H518   H     0.74568   0.73268   0.13624   0.00000  Uiso   1.00
O519   O     0.91247   0.95672   0.21555   0.00000  Uiso   1.00
H520   H     0.93236   0.97374   0.24018   0.00000  Uiso   1.00
C521   C     0.74882   0.95252   0.11280   0.00000  Uiso   1.00
H522   H     0.73187   0.92899   0.13574   0.00000  Uiso   1.00
H523   H     0.71749   0.97184   0.09740   0.00000  Uiso   1.00
H524   H     0.76330   0.93672   0.08356   0.00000  Uiso   1.00
C525   C     0.92245   0.71359   0.21461   0.00000  Uiso   1.00
H526   H     0.92341   0.74703   0.20585   0.00000  Uiso   1.00
H527   H     0.92460   0.71030   0.25316   0.00000  Uiso   1.00
H528   H     0.95739   0.70174   0.20257   0.00000  Uiso   1.00
O529   O     0.76655   0.78269   0.04608   0.00000  Uiso   1.00
H530   H     0.73547   0.77405   0.02527   0.00000  Uiso   1.00
O531   O     0.90025   0.88386   0.28728   0.00000  Uiso   1.00
H532   H     0.93137   0.89240   0.30809   0.00000  Uiso   1.00
C533   C     0.76054   0.77781   0.27943   0.00000  Uiso   1.00
H534   H     0.76317   0.77526   0.24237   0.00000  Uiso   1.00
H535   H     0.76535   0.74607   0.29407   0.00000  Uiso   1.00
H536   H     0.72104   0.78697   0.28226   0.00000  Uiso   1.00
C537   C     0.90608   0.88890   0.05388   0.00000  Uiso   1.00
H538   H     0.90120   0.92063   0.03922   0.00000  Uiso   1.00
H539   H     0.90347   0.89144   0.09094   0.00000  Uiso   1.00
H540   H     0.94560   0.87981   0.05105   0.00000  Uiso   1.00
C541   C     0.16702   0.08762   0.50039   0.00000  Uiso   1.00
C542   C     0.16655   0.24574   0.49962   0.00000  Uiso   1.00
C543   C     0.06828   0.16535   0.48854   0.00000  Uiso   1.00
C544   C     0.26504   0.16813   0.51143   0.00000  Uiso   1.00
C545   C     0.01350   0.15847   0.48406   0.00000  Uiso   1.00
C546   C     0.31979   0.17513   0.51583   0.00000  Uiso   1.00
C547   C     0.12482   0.02030   0.47640   0.00000  Uiso   1.00
C548   C     0.20721   0.31246   0.52534   0.00000  Uiso   1.00
C549   C     0.12577   0.31059   0.47382   0.00000  Uiso   1.00
C550   C     0.20861   0.02274   0.52507   0.00000  Uiso   1.00
C551   C     0.16665   0.29047   0.49893   0.00000  Uiso   1.00
C552   C     0.16670   0.04289   0.50116   0.00000  Uiso   1.00
C553   C     0.13241   0.14156   0.35605   0.00000  Uiso   1.00
C554   C     0.20096   0.19174   0.64396   0.00000  Uiso   1.00
C555   C     0.13219   0.14118   0.63946   0.00000  Uiso   1.00
C556   C     0.20114   0.19216   0.36053   0.00000  Uiso   1.00
Cu557  Cu    0.16667   0.16667   0.54689   0.00000  Uiso   1.00
Cu558  Cu    0.16667   0.16666   0.45311   0.00000  Uiso   1.00
N559   N     0.16668   0.16668   0.61736   0.00000  Uiso   1.00
N560   N     0.16665   0.16666   0.38264   0.00000  Uiso   1.00
O561   O     0.16666   0.10655   0.53958   0.00000  Uiso   1.00
O562   O     0.16667   0.22678   0.46042   0.00000  Uiso   1.00
O563   O     0.16666   0.10654   0.46039   0.00000  Uiso   1.00
O564   O     0.16667   0.22679   0.53961   0.00000  Uiso   1.00
O565   O     0.09161   0.16667   0.53046   0.00000  Uiso   1.00
O566   O     0.24172   0.16666   0.46954   0.00000  Uiso   1.00
O567   O     0.09161   0.16666   0.45127   0.00000  Uiso   1.00
O568   O     0.24172   0.16667   0.54873   0.00000  Uiso   1.00
C569   C     0.32350   0.12820   0.44664   0.00000  Uiso   1.00
H570   H     0.01991   0.11203   0.43106   0.00000  Uiso   1.00
H571   H     0.29877   0.10387   0.46182   0.00000  Uiso   1.00
H572   H     0.30128   0.14473   0.41767   0.00000  Uiso   1.00
C573   C     0.00960   0.20557   0.55311   0.00000  Uiso   1.00
H574   H     0.31301   0.22276   0.56728   0.00000  Uiso   1.00
H575   H     0.03062   0.18898   0.58276   0.00000  Uiso   1.00
H576   H     0.03551   0.22920   0.53832   0.00000  Uiso   1.00
O577   O     0.08259   0.03936   0.45436   0.00000  Uiso   1.00
H578   H     0.07901   0.06602   0.46957   0.00000  Uiso   1.00
O579   O     0.24581   0.29005   0.54888   0.00000  Uiso   1.00
H580   H     0.26569   0.30707   0.57351   0.00000  Uiso   1.00
C581   C     0.08215   0.28586   0.44613   0.00000  Uiso   1.00
H582   H     0.06520   0.26232   0.46907   0.00000  Uiso   1.00
H583   H     0.05082   0.30517   0.43073   0.00000  Uiso   1.00
H584   H     0.09663   0.27006   0.41690   0.00000  Uiso   1.00
C585   C     0.25579   0.04692   0.54794   0.00000  Uiso   1.00
H586   H     0.25674   0.08037   0.53918   0.00000  Uiso   1.00
H587   H     0.25793   0.04364   0.58650   0.00000  Uiso   1.00
H588   H     0.29072   0.03508   0.53590   0.00000  Uiso   1.00
O589   O     0.09988   0.11602   0.37941   0.00000  Uiso   1.00
H590   H     0.06880   0.10739   0.35860   0.00000  Uiso   1.00
O591   O     0.23359   0.21719   0.62061   0.00000  Uiso   1.00
H592   H     0.26470   0.22573   0.64142   0.00000  Uiso   1.00
C593   C     0.09387   0.11114   0.61276   0.00000  Uiso   1.00
H594   H     0.09650   0.10859   0.57571   0.00000  Uiso   1.00
H595   H     0.09869   0.07940   0.62740   0.00000  Uiso   1.00
H596   H     0.05438   0.12030   0.61559   0.00000  Uiso   1.00
C597   C     0.23941   0.22224   0.38722   0.00000  Uiso   1.00
H598   H     0.23453   0.25396   0.37255   0.00000  Uiso   1.00
H599   H     0.23680   0.22477   0.42427   0.00000  Uiso   1.00
H600   H     0.27893   0.21314   0.38439   0.00000  Uiso   1.00
C601   C     0.50035   0.08762   0.50039   0.00000  Uiso   1.00
C602   C     0.49989   0.24574   0.49962   0.00000  Uiso   1.00
C603   C     0.40162   0.16535   0.48854   0.00000  Uiso   1.00
C604   C     0.59837   0.16813   0.51143   0.00000  Uiso   1.00
C605   C     0.34683   0.15847   0.48406   0.00000  Uiso   1.00
C606   C     0.65312   0.17513   0.51583   0.00000  Uiso   1.00
C607   C     0.45815   0.02030   0.47640   0.00000  Uiso   1.00
C608   C     0.54054   0.31246   0.52534   0.00000  Uiso   1.00
C609   C     0.45911   0.31059   0.47382   0.00000  Uiso   1.00
C610   C     0.54194   0.02274   0.52507   0.00000  Uiso   1.00
C611   C     0.49999   0.29047   0.49893   0.00000  Uiso   1.00
C612   C     0.50003   0.04289   0.50116   0.00000  Uiso   1.00
C613   C     0.46574   0.14156   0.35605   0.00000  Uiso   1.00
C614   C     0.53430   0.19174   0.64396   0.00000  Uiso   1.00
C615   C     0.46552   0.14118   0.63946   0.00000  Uiso   1.00
C616   C     0.53448   0.19216   0.36053   0.00000  Uiso   1.00
Cu617  Cu    0.50000   0.16667   0.54689   0.00000  Uiso   1.00
Cu618  Cu    0.50000   0.16666   0.45311   0.00000  Uiso   1.00
N619   N     0.50001   0.16668   0.61736   0.00000  Uiso   1.00
N620   N     0.49999   0.16666   0.38264   0.00000  Uiso   1.00
O621   O     0.50000   0.10655   0.53958   0.00000  Uiso   1.00
O622   O     0.50000   0.22678   0.46042   0.00000  Uiso   1.00
O623   O     0.50000   0.10654   0.46039   0.00000  Uiso   1.00
O624   O     0.50000   0.22679   0.53961   0.00000  Uiso   1.00
O625   O     0.42495   0.16667   0.53046   0.00000  Uiso   1.00
O626   O     0.57505   0.16666   0.46954   0.00000  Uiso   1.00
O627   O     0.42494   0.16666   0.45127   0.00000  Uiso   1.00
O628   O     0.57506   0.16667   0.54873   0.00000  Uiso   1.00
C629   C     0.65684   0.12820   0.44664   0.00000  Uiso   1.00
H630   H     0.35325   0.11203   0.43106   0.00000  Uiso   1.00
H631   H     0.63210   0.10387   0.46182   0.00000  Uiso   1.00
H632   H     0.63461   0.14473   0.41767   0.00000  Uiso   1.00
C633   C     0.34293   0.20557   0.55311   0.00000  Uiso   1.00
H634   H     0.64634   0.22276   0.56728   0.00000  Uiso   1.00
H635   H     0.36395   0.18898   0.58276   0.00000  Uiso   1.00
H636   H     0.36885   0.22920   0.53832   0.00000  Uiso   1.00
O637   O     0.41592   0.03936   0.45436   0.00000  Uiso   1.00
H638   H     0.41235   0.06602   0.46957   0.00000  Uiso   1.00
O639   O     0.57914   0.29005   0.54888   0.00000  Uiso   1.00
H640   H     0.59903   0.30707   0.57351   0.00000  Uiso   1.00
C641   C     0.41549   0.28586   0.44613   0.00000  Uiso   1.00
H642   H     0.39853   0.26232   0.46907   0.00000  Uiso   1.00
H643   H     0.38415   0.30517   0.43073   0.00000  Uiso   1.00
H644   H     0.42996   0.27006   0.41690   0.00000  Uiso   1.00
C645   C     0.58912   0.04692   0.54794   0.00000  Uiso   1.00
H646   H     0.59007   0.08037   0.53918   0.00000  Uiso   1.00
H647   H     0.59127   0.04364   0.58650   0.00000  Uiso   1.00
H648   H     0.62405   0.03508   0.53590   0.00000  Uiso   1.00
O649   O     0.43321   0.11602   0.37941   0.00000  Uiso   1.00
H650   H     0.40214   0.10739   0.35860   0.00000  Uiso   1.00
O651   O     0.56692   0.21719   0.62061   0.00000  Uiso   1.00
H652   H     0.59804   0.22573   0.64142   0.00000  Uiso   1.00
C653   C     0.42721   0.11114   0.61276   0.00000  Uiso   1.00
H654   H     0.42983   0.10859   0.57571   0.00000  Uiso   1.00
H655   H     0.43202   0.07940   0.62740   0.00000  Uiso   1.00
H656   H     0.38771   0.12030   0.61559   0.00000  Uiso   1.00
C657   C     0.57274   0.22224   0.38722   0.00000  Uiso   1.00
H658   H     0.56786   0.25396   0.37255   0.00000  Uiso   1.00
H659   H     0.57013   0.22477   0.42427   0.00000  Uiso   1.00
H660   H     0.61226   0.21314   0.38439   0.00000  Uiso   1.00
C661   C     0.83369   0.08762   0.50039   0.00000  Uiso   1.00
C662   C     0.83322   0.24574   0.49962   0.00000  Uiso   1.00
C663   C     0.73495   0.16535   0.48854   0.00000  Uiso   1.00
C664   C     0.93170   0.16813   0.51143   0.00000  Uiso   1.00
C665   C     0.68016   0.15847   0.48406   0.00000  Uiso   1.00
C666   C     0.98646   0.17513   0.51583   0.00000  Uiso   1.00
C667   C     0.79148   0.02030   0.47640   0.00000  Uiso   1.00
C668   C     0.87387   0.31246   0.52534   0.00000  Uiso   1.00
C669   C     0.79244   0.31059   0.47382   0.00000  Uiso   1.00
C670   C     0.87528   0.02274   0.52507   0.00000  Uiso   1.00
C671   C     0.83332   0.29047   0.49893   0.00000  Uiso   1.00
C672   C     0.83336   0.04289   0.50116   0.00000  Uiso   1.00
C673   C     0.79908   0.14156   0.35605   0.00000  Uiso   1.00
C674   C     0.86763   0.19174   0.64396   0.00000  Uiso   1.00
C675   C     0.79886   0.14118   0.63946   0.00000  Uiso   1.00
C676   C     0.86781   0.19216   0.36053   0.00000  Uiso   1.00
Cu677  Cu    0.83333   0.16667   0.54689   0.00000  Uiso   1.00
Cu678  Cu    0.83333   0.16666   0.45311   0.00000  Uiso   1.00
N679   N     0.83335   0.16668   0.61736   0.00000  Uiso   1.00
N680   N     0.83332   0.16666   0.38264   0.00000  Uiso   1.00
O681   O     0.83333   0.10655   0.53958   0.00000  Uiso   1.00
O682   O     0.83334   0.22678   0.46042   0.00000  Uiso   1.00
O683   O     0.83333   0.10654   0.46039   0.00000  Uiso   1.00
O684   O     0.83334   0.22679   0.53961   0.00000  Uiso   1.00
O685   O     0.75828   0.16667   0.53046   0.00000  Uiso   1.00
O686   O     0.90839   0.16666   0.46954   0.00000  Uiso   1.00
O687   O     0.75828   0.16666   0.45127   0.00000  Uiso   1.00
O688   O     0.90839   0.16667   0.54873   0.00000  Uiso   1.00
C689   C     0.99017   0.12820   0.44664   0.00000  Uiso   1.00
H690   H     0.68658   0.11203   0.43106   0.00000  Uiso   1.00
H691   H     0.96544   0.10387   0.46182   0.00000  Uiso   1.00
H692   H     0.96795   0.14473   0.41767   0.00000  Uiso   1.00
C693   C     0.67626   0.20557   0.55311   0.00000  Uiso   1.00
H694   H     0.97967   0.22276   0.56728   0.00000  Uiso   1.00
H695   H     0.69729   0.18898   0.58276   0.00000  Uiso   1.00
H696   H     0.70218   0.22920   0.53832   0.00000  Uiso   1.00
O697   O     0.74925   0.03936   0.45436   0.00000  Uiso   1.00
H698   H     0.74568   0.06602   0.46957   0.00000  Uiso   1.00
O699   O     0.91247   0.29005   0.54888   0.00000  Uiso   1.00
H700   H     0.93236   0.30707   0.57351   0.00000  Uiso   1.00
C701   C     0.74882   0.28586   0.44613   0.00000  Uiso   1.00
H702   H     0.73187   0.26232   0.46907   0.00000  Uiso   1.00
H703   H     0.71749   0.30517   0.43073   0.00000  Uiso   1.00
H704   H     0.76330   0.27006   0.41690   0.00000  Uiso   1.00
C705   C     0.92245   0.04692   0.54794   0.00000  Uiso   1.00
H706   H     0.92341   0.08037   0.53918   0.00000  Uiso   1.00
H707   H     0.92460   0.04364   0.58650   0.00000  Uiso   1.00
H708   H     0.95739   0.03508   0.53590   0.00000  Uiso   1.00
O709   O     0.76655   0.11602   0.37941   0.00000  Uiso   1.00
H710   H     0.73547   0.10739   0.35860   0.00000  Uiso   1.00
O711   O     0.90025   0.21719   0.62061   0.00000  Uiso   1.00
H712   H     0.93137   0.22573   0.64142   0.00000  Uiso   1.00
C713   C     0.76054   0.11114   0.61276   0.00000  Uiso   1.00
H714   H     0.76317   0.10859   0.57571   0.00000  Uiso   1.00
H715   H     0.76535   0.07940   0.62740   0.00000  Uiso   1.00
H716   H     0.72104   0.12030   0.61559   0.00000  Uiso   1.00
C717   C     0.90608   0.22224   0.38722   0.00000  Uiso   1.00
H718   H     0.90120   0.25396   0.37255   0.00000  Uiso   1.00
H719   H     0.90347   0.22477   0.42427   0.00000  Uiso   1.00
H720   H     0.94560   0.21314   0.38439   0.00000  Uiso   1.00
C721   C     0.16702   0.42095   0.50039   0.00000  Uiso   1.00
C722   C     0.16655   0.57908   0.49962   0.00000  Uiso   1.00
C723   C     0.06828   0.49868   0.48854   0.00000  Uiso   1.00
C724   C     0.26504   0.50146   0.51143   0.00000  Uiso   1.00
C725   C     0.01350   0.49180   0.48406   0.00000  Uiso   1.00
C726   C     0.31979   0.50847   0.51583   0.00000  Uiso   1.00
C727   C     0.12482   0.35363   0.47640   0.00000  Uiso   1.00
C728   C     0.20721   0.64579   0.52534   0.00000  Uiso   1.00
C729   C     0.12577   0.64392   0.47382   0.00000  Uiso   1.00
C730   C     0.20861   0.35607   0.52507   0.00000  Uiso   1.00
C731   C     0.16665   0.62381   0.49893   0.00000  Uiso   1.00
C732   C     0.16670   0.37622   0.50116   0.00000  Uiso   1.00
C733   C     0.13241   0.47489   0.35605   0.00000  Uiso   1.00
C734   C     0.20096   0.52507   0.64396   0.00000  Uiso   1.00
C735   C     0.13219   0.47451   0.63946   0.00000  Uiso   1.00
C736   C     0.20114   0.52549   0.36053   0.00000  Uiso   1.00
Cu737  Cu    0.16667   0.50001   0.54689   0.00000  Uiso   1.00
Cu738  Cu    0.16667   0.49999   0.45311   0.00000  Uiso   1.00
N739   N     0.16668   0.50001   0.61736   0.00000  Uiso   1.00
N740   N     0.16665   0.49999   0.38264   0.00000  Uiso   1.00
O741   O     0.16666   0.43989   0.53958   0.00000  Uiso   1.00
O742   O     0.16667   0.56011   0.46042   0.00000  Uiso   1.00
O743   O     0.16666   0.43988   0.46039   0.00000  Uiso   1.00
O744   O     0.16667   0.56012   0.53961   0.00000  Uiso   1.00
O745   O     0.09161   0.50000   0.53046   0.00000  Uiso   1.00
O746   O     0.24172   0.50000   0.46954   0.00000  Uiso   1.00
O747   O     0.09161   0.49999   0.45127   0.00000  Uiso   1.00
O748   O     0.24172   0.50001   0.54873   0.00000  Uiso   1.00
C749   C     0.32350   0.46154   0.44664   0.00000  Uiso   1.00
H750   H     0.01991   0.44537   0.43106   0.00000  Uiso   1.00
H751   H     0.29877   0.43720   0.46182   0.00000  Uiso   1.00
H752   H     0.30128   0.47806   0.41767   0.00000  Uiso   1.00
C753   C     0.00960   0.53890   0.55311   0.00000  Uiso   1.00
H754   H     0.31301   0.55609   0.56728   0.00000  Uiso   1.00
H755   H     0.03062   0.52231   0.58276   0.00000  Uiso   1.00
H756   H     0.03551   0.56254   0.53832   0.00000  Uiso   1.00
O757   O     0.08259   0.37269   0.45436   0.00000  Uiso   1.00
H758   H     0.07901   0.39935   0.46957   0.00000  Uiso   1.00
O759   O     0.24581   0.62338   0.54888   0.00000  Uiso   1.00
H760   H     0.26569   0.64041   0.57351   0.00000  Uiso   1.00
C761   C     0.08215   0.61919   0.44613   0.00000  Uiso   1.00
H762   H     0.06520   0.59565   0.46907   0.00000  Uiso   1.00
H763   H     0.05082   0.63851   0.43073   0.00000  Uiso   1.00
H764   H     0.09663   0.60339   0.41690   0.00000  Uiso   1.00
C765   C     0.25579   0.38025   0.54794   0.00000  Uiso   1.00
H766   H     0.25674   0.41370   0.53918   0.00000  Uiso   1.00
H767   H     0.25793   0.37697   0.58650   0.00000  Uiso   1.00
H768   H     0.29072   0.36841   0.53590   0.00000  Uiso   1.00
O769   O     0.09988   0.44935   0.37941   0.00000  Uiso   1.00
H770   H     0.06880   0.44072   0.35860   0.00000  Uiso   1.00
O771   O     0.23359   0.55053   0.62061   0.00000  Uiso   1.00
H772   H     0.26470   0.55906   0.64142   0.00000  Uiso   1.00
C773   C     0.09387   0.44448   0.61276   0.00000  Uiso   1.00
H774   H     0.09650   0.44192   0.57571   0.00000  Uiso   1.00
H775   H     0.09869   0.41274   0.62740   0.00000  Uiso   1.00
H776   H     0.05438   0.45364   0.61559   0.00000  Uiso   1.00
C777   C     0.23941   0.55557   0.38722   0.00000  Uiso   1.00
H778   H     0.23453   0.58730   0.37255   0.00000  Uiso   1.00
H779   H     0.23680   0.55810   0.42427   0.00000  Uiso   1.00
H780   H     0.27893   0.54647   0.38439   0.00000  Uiso   1.00
C781   C     0.50035   0.42095   0.50039   0.00000  Uiso   1.00
C782   C     0.49989   0.57908   0.49962   0.00000  Uiso   1.00
C783   C     0.40162   0.49868   0.48854   0.00000  Uiso   1.00
C784   C     0.59837   0.50146   0.51143   0.00000  Uiso   1.00
C785   C     0.34683   0.49180   0.48406   0.00000  Uiso   1.00
C786   C     0.65312   0.50847   0.51583   0.00000  Uiso   1.00
C787   C     0.45815   0.35363   0.47640   0.00000  Uiso   1.00
C788   C     0.54054   0.64579   0.52534   0.00000  Uiso   1.00
C789   C     0.45911   0.64392   0.47382   0.00000  Uiso   1.00
C790   C     0.54194   0.35607   0.52507   0.00000  Uiso   1.00
C791   C     0.49999   0.62381   0.49893   0.00000  Uiso   1.00
C792   C     0.50003   0.37622   0.50116   0.00000  Uiso   1.00
C793   C     0.46574   0.47489   0.35605   0.00000  Uiso   1.00
C794   C     0.53430   0.52507   0.64396   0.00000  Uiso   1.00
C795   C     0.46552   0.47451   0.63946   0.00000  Uiso   1.00
C796   C     0.53448   0.52549   0.36053   0.00000  Uiso   1.00
Cu797  Cu    0.50000   0.50001   0.54689   0.00000  Uiso   1.00
Cu798  Cu    0.50000   0.49999   0.45311   0.00000  Uiso   1.00
N799   N     0.50001   0.50001   0.61736   0.00000  Uiso   1.00
N800   N     0.49999   0.49999   0.38264   0.00000  Uiso   1.00
O801   O     0.50000   0.43989   0.53958   0.00000  Uiso   1.00
O802   O     0.50000   0.56011   0.46042   0.00000  Uiso   1.00
O803   O     0.50000   0.43988   0.46039   0.00000  Uiso   1.00
O804   O     0.50000   0.56012   0.53961   0.00000  Uiso   1.00
O805   O     0.42495   0.50000   0.53046   0.00000  Uiso   1.00
O806   O     0.57505   0.50000   0.46954   0.00000  Uiso   1.00
O807   O     0.42494   0.49999   0.45127   0.00000  Uiso   1.00
O808   O     0.57506   0.50001   0.54873   0.00000  Uiso   1.00
C809   C     0.65684   0.46154   0.44664   0.00000  Uiso   1.00
H810   H     0.35325   0.44537   0.43106   0.00000  Uiso   1.00
H811   H     0.63210   0.43720   0.46182   0.00000  Uiso   1.00
H812   H     0.63461   0.47806   0.41767   0.00000  Uiso   1.00
C813   C     0.34293   0.53890   0.55311   0.00000  Uiso   1.00
H814   H     0.64634   0.55609   0.56728   0.00000  Uiso   1.00
H815   H     0.36395   0.52231   0.58276   0.00000  Uiso   1.00
H816   H     0.36885   0.56254   0.53832   0.00000  Uiso   1.00
O817   O     0.41592   0.37269   0.45436   0.00000  Uiso   1.00
H818   H     0.41235   0.39935   0.46957   0.00000  Uiso   1.00
O819   O     0.57914   0.62338   0.54888   0.00000  Uiso   1.00
H820   H     0.59903   0.64041   0.57351   0.00000  Uiso   1.00
C821   C     0.41549   0.61919   0.44613   0.00000  Uiso   1.00
H822   H     0.39853   0.59565   0.46907   0.00000  Uiso   1.00
H823   H     0.38415   0.63851   0.43073   0.00000  Uiso   1.00
H824   H     0.42996   0.60339   0.41690   0.00000  Uiso   1.00
C825   C     0.58912   0.38025   0.54794   0.00000  Uiso   1.00
H826   H     0.59007   0.41370   0.53918   0.00000  Uiso   1.00
H827   H     0.59127   0.37697   0.58650   0.00000  Uiso   1.00
H828   H     0.62405   0.36841   0.53590   0.00000  Uiso   1.00
O829   O     0.43321   0.44935   0.37941   0.00000  Uiso   1.00
H830   H     0.40214   0.44072   0.35860   0.00000  Uiso   1.00
O831   O     0.56692   0.55053   0.62061   0.00000  Uiso   1.00
H832   H     0.59804   0.55906   0.64142   0.00000  Uiso   1.00
C833   C     0.42721   0.44448   0.61276   0.00000  Uiso   1.00
H834   H     0.42983   0.44192   0.57571   0.00000  Uiso   1.00
H835   H     0.43202   0.41274   0.62740   0.00000  Uiso   1.00
H836   H     0.38771   0.45364   0.61559   0.00000  Uiso   1.00
C837   C     0.57274   0.55557   0.38722   0.00000  Uiso   1.00
H838   H     0.56786   0.58730   0.37255   0.00000  Uiso   1.00
H839   H     0.57013   0.55810   0.42427   0.00000  Uiso   1.00
H840   H     0.61226   0.54647   0.38439   0.00000  Uiso   1.00
C841   C     0.83369   0.42095   0.50039   0.00000  Uiso   1.00
C842   C     0.83322   0.57908   0.49962   0.00000  Uiso   1.00
C843   C     0.73495   0.49868   0.48854   0.00000  Uiso   1.00
C844   C     0.93170   0.50146   0.51143   0.00000  Uiso   1.00
C845   C     0.68016   0.49180   0.48406   0.00000  Uiso   1.00
C846   C     0.98646   0.50847   0.51583   0.00000  Uiso   1.00
C847   C     0.79148   0.35363   0.47640   0.00000  Uiso   1.00
C848   C     0.87387   0.64579   0.52534   0.00000  Uiso   1.00
C849   C     0.79244   0.64392   0.47382   0.00000  Uiso   1.00
C850   C     0.87528   0.35607   0.52507   0.00000  Uiso   1.00
C851   C     0.83332   0.62381   0.49893   0.00000  Uiso   1.00
C852   C     0.83336   0.37622   0.50116   0.00000  Uiso   1.00
C853   C     0.79908   0.47489   0.35605   0.00000  Uiso   1.00
C854   C     0.86763   0.52507   0.64396   0.00000  Uiso   1.00
C855   C     0.79886   0.47451   0.63946   0.00000  Uiso   1.00
C856   C     0.86781   0.52549   0.36053   0.00000  Uiso   1.00
Cu857  Cu    0.83333   0.50001   0.54689   0.00000  Uiso   1.00
Cu858  Cu    0.83333   0.49999   0.45311   0.00000  Uiso   1.00
N859   N     0.83335   0.50001   0.61736   0.00000  Uiso   1.00
N860   N     0.83332   0.49999   0.38264   0.00000  Uiso   1.00
O861   O     0.83333   0.43989   0.53958   0.00000  Uiso   1.00
O862   O     0.83334   0.56011   0.46042   0.00000  Uiso   1.00
O863   O     0.83333   0.43988   0.46039   0.00000  Uiso   1.00
O864   O     0.83334   0.56012   0.53961   0.00000  Uiso   1.00
O865   O     0.75828   0.50000   0.53046   0.00000  Uiso   1.00
O866   O     0.90839   0.50000   0.46954   0.00000  Uiso   1.00
O867   O     0.75828   0.49999   0.45127   0.00000  Uiso   1.00
O868   O     0.90839   0.50001   0.54873   0.00000  Uiso   1.00
C869   C     0.99017   0.46154   0.44664   0.00000  Uiso   1.00
H870   H     0.68658   0.44537   0.43106   0.00000  Uiso   1.00
H871   H     0.96544   0.43720   0.46182   0.00000  Uiso   1.00
H872   H     0.96795   0.47806   0.41767   0.00000  Uiso   1.00
C873   C     0.67626   0.53890   0.55311   0.00000  Uiso   1.00
H874   H     0.97967   0.55609   0.56728   0.00000  Uiso   1.00
H875   H     0.69729   0.52231   0.58276   0.00000  Uiso   1.00
H876   H     0.70218   0.56254   0.53832   0.00000  Uiso   1.00
O877   O     0.74925   0.37269   0.45436   0.00000  Uiso   1.00
H878   H     0.74568   0.39935   0.46957   0.00000  Uiso   1.00
O879   O     0.91247   0.62338   0.54888   0.00000  Uiso   1.00
H880   H     0.93236   0.64041   0.57351   0.00000  Uiso   1.00
C881   C     0.74882   0.61919   0.44613   0.00000  Uiso   1.00
H882   H     0.73187   0.59565   0.46907   0.00000  Uiso   1.00
H883   H     0.71749   0.63851   0.43073   0.00000  Uiso   1.00
H884   H     0.76330   0.60339   0.41690   0.00000  Uiso   1.00
C885   C     0.92245   0.38025   0.54794   0.00000  Uiso   1.00
H886   H     0.92341   0.41370   0.53918   0.00000  Uiso   1.00
H887   H     0.92460   0.37697   0.58650   0.00000  Uiso   1.00
H888   H     0.95739   0.36841   0.53590   0.00000  Uiso   1.00
O889   O     0.76655   0.44935   0.37941   0.00000  Uiso   1.00
H890   H     0.73547   0.44072   0.35860   0.00000  Uiso   1.00
O891   O     0.90025   0.55053   0.62061   0.00000  Uiso   1.00
H892   H     0.93137   0.55906   0.64142   0.00000  Uiso   1.00
C893   C     0.76054   0.44448   0.61276   0.00000  Uiso   1.00
H894   H     0.76317   0.44192   0.57571   0.00000  Uiso   1.00
H895   H     0.76535   0.41274   0.62740   0.00000  Uiso   1.00
H896   H     0.72104   0.45364   0.61559   0.00000  Uiso   1.00
C897   C     0.90608   0.55557   0.38722   0.00000  Uiso   1.00
H898   H     0.90120   0.58730   0.37255   0.00000  Uiso   1.00
H899   H     0.90347   0.55810   0.42427   0.00000  Uiso   1.00
H900   H     0.94560   0.54647   0.38439   0.00000  Uiso   1.00
C901   C     0.16702   0.75428   0.50039   0.00000  Uiso   1.00
C902   C     0.16655   0.91241   0.49962   0.00000  Uiso   1.00
C903   C     0.06828   0.83201   0.48854   0.00000  Uiso   1.00
C904   C     0.26504   0.83479   0.51143   0.00000  Uiso   1.00
C905   C     0.01350   0.82513   0.48406   0.00000  Uiso   1.00
C906   C     0.31979   0.84180   0.51583   0.00000  Uiso   1.00
C907   C     0.12482   0.68696   0.47640   0.00000  Uiso   1.00
C908   C     0.20721   0.97912   0.52534   0.00000  Uiso   1.00
C909   C     0.12577   0.97726   0.47382   0.00000  Uiso   1.00
C910   C     0.20861   0.68940   0.52507   0.00000  Uiso   1.00
C911   C     0.16665   0.95714   0.49893   0.00000  Uiso   1.00
C912   C     0.16670   0.70956   0.50116   0.00000  Uiso   1.00
C913   C     0.13241   0.80823   0.35605   0.00000  Uiso   1.00
C914   C     0.20096   0.85840   0.64396   0.00000  Uiso   1.00
C915   C     0.13219   0.80784   0.63946   0.00000  Uiso   1.00
C916   C     0.20114   0.85882   0.36053   0.00000  Uiso   1.00
Cu917  Cu    0.16667   0.83334   0.54689   0.00000  Uiso   1.00
Cu918  Cu    0.16667   0.83333   0.45311   0.00000  Uiso   1.00
N919   N     0.16668   0.83334   0.61736   0.00000  Uiso   1.00
N920   N     0.16665   0.83332   0.38264   0.00000  Uiso   1.00
O921   O     0.16666   0.77322   0.53958   0.00000  Uiso   1.00
O922   O     0.16667   0.89345   0.46042   0.00000  Uiso   1.00
O923   O     0.16666   0.77321   0.46039   0.00000  Uiso   1.00
O924   O     0.16667   0.89346   0.53961   0.00000  Uiso   1.00
O925   O     0.09161   0.83334   0.53046   0.00000  Uiso   1.00
O926   O     0.24172   0.83333   0.46954   0.00000  Uiso   1.00
O927   O     0.09161   0.83333   0.45127   0.00000  Uiso   1.00
O928   O     0.24172   0.83334   0.54873   0.00000  Uiso   1.00
C929   C     0.32350   0.79487   0.44664   0.00000  Uiso   1.00
H930   H     0.01991   0.77870   0.43106   0.00000  Uiso   1.00
H931   H     0.29877   0.77053   0.46182   0.00000  Uiso   1.00
H932   H     0.30128   0.81140   0.41767   0.00000  Uiso   1.00
C933   C     0.00960   0.87224   0.55311   0.00000  Uiso   1.00
H934   H     0.31301   0.88943   0.56728   0.00000  Uiso   1.00
H935   H     0.03062   0.85565   0.58276   0.00000  Uiso   1.00
H936   H     0.03551   0.89587   0.53832   0.00000  Uiso   1.00
O937   O     0.08259   0.70602   0.45436   0.00000  Uiso   1.00
H938   H     0.07901   0.73268   0.46957   0.00000  Uiso   1.00
O939   O     0.24581   0.95672   0.54888   0.00000  Uiso   1.00
H940   H     0.26569   0.97374   0.57351   0.00000  Uiso   1.00
C941   C     0.08215   0.95252   0.44613   0.00000  Uiso   1.00
H942   H     0.06520   0.92899   0.46907   0.00000  Uiso   1.00
H943   H     0.05082   0.97184   0.43073   0.00000  Uiso   1.00
H944   H     0.09663   0.93672   0.41690   0.00000  Uiso   1.00
C945   C     0.25579   0.71359   0.54794   0.00000  Uiso   1.00
H946   H     0.25674   0.74703   0.53918   0.00000  Uiso   1.00
H947   H     0.25793   0.71030   0.58650   0.00000  Uiso   1.00
H948   H     0.29072   0.70174   0.53590   0.00000  Uiso   1.00
O949   O     0.09988   0.78269   0.37941   0.00000  Uiso   1.00
H950   H     0.06880   0.77405   0.35860   0.00000  Uiso   1.00
O951   O     0.23359   0.88386   0.62061   0.00000  Uiso   1.00
H952   H     0.26470   0.89240   0.64142   0.00000  Uiso   1.00
C953   C     0.09387   0.77781   0.61276   0.00000  Uiso   1.00
H954   H     0.09650   0.77526   0.57571   0.00000  Uiso   1.00
H955   H     0.09869   0.74607   0.62740   0.00000  Uiso   1.00
H956   H     0.05438   0.78697   0.61559   0.00000  Uiso   1.00
C957   C     0.23941   0.88890   0.38722   0.00000  Uiso   1.00
H958   H     0.23453   0.92063   0.37255   0.00000  Uiso   1.00
H959   H     0.23680   0.89144   0.42427   0.00000  Uiso   1.00
H960   H     0.27893   0.87981   0.38439   0.00000  Uiso   1.00
C961   C     0.50035   0.75428   0.50039   0.00000  Uiso   1.00
C962   C     0.49989   0.91241   0.49962   0.00000  Uiso   1.00
C963   C     0.40162   0.83201   0.48854   0.00000  Uiso   1.00
C964   C     0.59837   0.83479   0.51143   0.00000  Uiso   1.00
C965   C     0.34683   0.82513   0.48406   0.00000  Uiso   1.00
C966   C     0.65312   0.84180   0.51583   0.00000  Uiso   1.00
C967   C     0.45815   0.68696   0.47640   0.00000  Uiso   1.00
C968   C     0.54054   0.97912   0.52534   0.00000  Uiso   1.00
C969   C     0.45911   0.97726   0.47382   0.00000  Uiso   1.00
C970   C     0.54194   0.68940   0.52507   0.00000  Uiso   1.00
C971   C     0.49999   0.95714   0.49893   0.00000  Uiso   1.00
C972   C     0.50003   0.70956   0.50116   0.00000  Uiso   1.00
C973   C     0.46574   0.80823   0.35605   0.00000  Uiso   1.00
C974   C     0.53430   0.85840   0.64396   0.00000  Uiso   1.00
C975   C     0.46552   0.80784   0.63946   0.00000  Uiso   1.00
C976   C     0.53448   0.85882   0.36053   0.00000  Uiso   1.00
Cu977  Cu    0.50000   0.83334   0.54689   0.00000  Uiso   1.00
Cu978  Cu    0.50000   0.83333   0.45311   0.00000  Uiso   1.00
N979   N     0.50001   0.83334   0.61736   0.00000  Uiso   1.00
N980   N     0.49999   0.83332   0.38264   0.00000  Uiso   1.00
O981   O     0.50000   0.77322   0.53958   0.00000  Uiso   1.00
O982   O     0.50000   0.89345   0.46042   0.00000  Uiso   1.00
O983   O     0.50000   0.77321   0.46039   0.00000  Uiso   1.00
O984   O     0.50000   0.89346   0.53961   0.00000  Uiso   1.00
O985   O     0.42495   0.83334   0.53046   0.00000  Uiso   1.00
O986   O     0.57505   0.83333   0.46954   0.00000  Uiso   1.00
O987   O     0.42494   0.83333   0.45127   0.00000  Uiso   1.00
O988   O     0.57506   0.83334   0.54873   0.00000  Uiso   1.00
C989   C     0.65684   0.79487   0.44664   0.00000  Uiso   1.00
H990   H     0.35325   0.77870   0.43106   0.00000  Uiso   1.00
H991   H     0.63210   0.77053   0.46182   0.00000  Uiso   1.00
H992   H     0.63461   0.81140   0.41767   0.00000  Uiso   1.00
C993   C     0.34293   0.87224   0.55311   0.00000  Uiso   1.00
H994   H     0.64634   0.88943   0.56728   0.00000  Uiso   1.00
H995   H     0.36395   0.85565   0.58276   0.00000  Uiso   1.00
H996   H     0.36885   0.89587   0.53832   0.00000  Uiso   1.00
O997   O     0.41592   0.70602   0.45436   0.00000  Uiso   1.00
H998   H     0.41235   0.73268   0.46957   0.00000  Uiso   1.00
O999   O     0.57914   0.95672   0.54888   0.00000  Uiso   1.00
H1000  H     0.59903   0.97374   0.57351   0.00000  Uiso   1.00
C1001  C     0.41549   0.95252   0.44613   0.00000  Uiso   1.00
H1002  H     0.39853   0.92899   0.46907   0.00000  Uiso   1.00
H1003  H     0.38415   0.97184   0.43073   0.00000  Uiso   1.00
H1004  H     0.42996   0.93672   0.41690   0.00000  Uiso   1.00
C1005  C     0.58912   0.71359   0.54794   0.00000  Uiso   1.00
H1006  H     0.59007   0.74703   0.53918   0.00000  Uiso   1.00
H1007  H     0.59127   0.71030   0.58650   0.00000  Uiso   1.00
H1008  H     0.62405   0.70174   0.53590   0.00000  Uiso   1.00
O1009  O     0.43321   0.78269   0.37941   0.00000  Uiso   1.00
H1010  H     0.40214   0.77405   0.35860   0.00000  Uiso   1.00
O1011  O     0.56692   0.88386   0.62061   0.00000  Uiso   1.00
H1012  H     0.59804   0.89240   0.64142   0.00000  Uiso   1.00
C1013  C     0.42721   0.77781   0.61276   0.00000  Uiso   1.00
H1014  H     0.42983   0.77526   0.57571   0.00000  Uiso   1.00
H1015  H     0.43202   0.74607   0.62740   0.00000  Uiso   1.00
H1016  H     0.38771   0.78697   0.61559   0.00000  Uiso   1.00
C1017  C     0.57274   0.88890   0.38722   0.00000  Uiso   1.00
H1018  H     0.56786   0.92063   0.37255   0.00000  Uiso   1.00
H1019  H     0.57013   0.89144   0.42427   0.00000  Uiso   1.00
H1020  H     0.61226   0.87981   0.38439   0.00000  Uiso   1.00
C1021  C     0.83369   0.75428   0.50039   0.00000  Uiso   1.00
C1022  C     0.83322   0.91241   0.49962   0.00000  Uiso   1.00
C1023  C     0.73495   0.83201   0.48854   0.00000  Uiso   1.00
C1024  C     0.93170   0.83479   0.51143   0.00000  Uiso   1.00
C1025  C     0.68016   0.82513   0.48406   0.00000  Uiso   1.00
C1026  C     0.98646   0.84180   0.51583   0.00000  Uiso   1.00
C1027  C     0.79148   0.68696   0.47640   0.00000  Uiso   1.00
C1028  C     0.87387   0.97912   0.52534   0.00000  Uiso   1.00
C1029  C     0.79244   0.97726   0.47382   0.00000  Uiso   1.00
C1030  C     0.87528   0.68940   0.52507   0.00000  Uiso   1.00
C1031  C     0.83332   0.95714   0.49893   0.00000  Uiso   1.00
C1032  C     0.83336   0.70956   0.50116   0.00000  Uiso   1.00
C1033  C     0.79908   0.80823   0.35605   0.00000  Uiso   1.00
C1034  C     0.86763   0.85840   0.64396   0.00000  Uiso   1.00
C1035  C     0.79886   0.80784   0.63946   0.00000  Uiso   1.00
C1036  C     0.86781   0.85882   0.36053   0.00000  Uiso   1.00
Cu1037 Cu    0.83333   0.83334   0.54689   0.00000  Uiso   1.00
Cu1038 Cu    0.83333   0.83333   0.45311   0.00000  Uiso   1.00
N1039  N     0.83335   0.83334   0.61736   0.00000  Uiso   1.00
N1040  N     0.83332   0.83332   0.38264   0.00000  Uiso   1.00
O1041  O     0.83333   0.77322   0.53958   0.00000  Uiso   1.00
O1042  O     0.83334   0.89345   0.46042   0.00000  Uiso   1.00
O1043  O     0.83333   0.77321   0.46039   0.00000  Uiso   1.00
O1044  O     0.83334   0.89346   0.53961   0.00000  Uiso   1.00
O1045  O     0.75828   0.83334   0.53046   0.00000  Uiso   1.00
O1046  O     0.90839   0.83333   0.46954   0.00000  Uiso   1.00
O1047  O     0.75828   0.83333   0.45127   0.00000  Uiso   1.00
O1048  O     0.90839   0.83334   0.54873   0.00000  Uiso   1.00
C1049  C     0.99017   0.79487   0.44664   0.00000  Uiso   1.00
H1050  H     0.68658   0.77870   0.43106   0.00000  Uiso   1.00
H1051  H     0.96544   0.77053   0.46182   0.00000  Uiso   1.00
H1052  H     0.96795   0.81140   0.41767   0.00000  Uiso   1.00
C1053  C     0.67626   0.87224   0.55311   0.00000  Uiso   1.00
H1054  H     0.97967   0.88943   0.56728   0.00000  Uiso   1.00
H1055  H     0.69729   0.85565   0.58276   0.00000  Uiso   1.00
H1056  H     0.70218   0.89587   0.53832   0.00000  Uiso   1.00
O1057  O     0.74925   0.70602   0.45436   0.00000  Uiso   1.00
H1058  H     0.74568   0.73268   0.46957   0.00000  Uiso   1.00
O1059  O     0.91247   0.95672   0.54888   0.00000  Uiso   1.00
H1060  H     0.93236   0.97374   0.57351   0.00000  Uiso   1.00
C1061  C     0.74882   0.95252   0.44613   0.00000  Uiso   1.00
H1062  H     0.73187   0.92899   0.46907   0.00000  Uiso   1.00
H1063  H     0.71749   0.97184   0.43073   0.00000  Uiso   1.00
H1064  H     0.76330   0.93672   0.41690   0.00000  Uiso   1.00
C1065  C     0.92245   0.71359   0.54794   0.00000  Uiso   1.00
H1066  H     0.92341   0.74703   0.53918   0.00000  Uiso   1.00
H1067  H     0.92460   0.71030   0.58650   0.00000  Uiso   1.00
H1068  H     0.95739   0.70174   0.53590   0.00000  Uiso   1.00
O1069  O     0.76655   0.78269   0.37941   0.00000  Uiso   1.00
H1070  H     0.73547   0.77405   0.35860   0.00000  Uiso   1.00
O1071  O     0.90025   0.88386   0.62061   0.00000  Uiso   1.00
H1072  H     0.93137   0.89240   0.64142   0.00000  Uiso   1.00
C1073  C     0.76054   0.77781   0.61276   0.00000  Uiso   1.00
H1074  H     0.76317   0.77526   0.57571   0.00000  Uiso   1.00
H1075  H     0.76535   0.74607   0.62740   0.00000  Uiso   1.00
H1076  H     0.72104   0.78697   0.61559   0.00000  Uiso   1.00
C1077  C     0.90608   0.88890   0.38722   0.00000  Uiso   1.00
H1078  H     0.90120   0.92063   0.37255   0.00000  Uiso   1.00
H1079  H     0.90347   0.89144   0.42427   0.00000  Uiso   1.00
H1080  H     0.94560   0.87981   0.38439   0.00000  Uiso   1.00
C1081  C     0.16702   0.08762   0.83373   0.00000  Uiso   1.00
C1082  C     0.16655   0.24574   0.83295   0.00000  Uiso   1.00
C1083  C     0.06828   0.16535   0.82187   0.00000  Uiso   1.00
C1084  C     0.26504   0.16813   0.84477   0.00000  Uiso   1.00
C1085  C     0.01350   0.15847   0.81740   0.00000  Uiso   1.00
C1086  C     0.31979   0.17513   0.84917   0.00000  Uiso   1.00
C1087  C     0.12482   0.02030   0.80973   0.00000  Uiso   1.00
C1088  C     0.20721   0.31246   0.85867   0.00000  Uiso   1.00
C1089  C     0.12577   0.31059   0.80715   0.00000  Uiso   1.00
C1090  C     0.20861   0.02274   0.85841   0.00000  Uiso   1.00
C1091  C     0.16665   0.29047   0.83226   0.00000  Uiso   1.00
C1092  C     0.16670   0.04289   0.83450   0.00000  Uiso   1.00
C1093  C     0.13241   0.14156   0.68938   0.00000  Uiso   1.00
C1094  C     0.20096   0.19174   0.97729   0.00000  Uiso   1.00
C1095  C     0.13219   0.14118   0.97280   0.00000  Uiso   1.00
C1096  C     0.20114   0.19216   0.69387   0.00000  Uiso   1.00
Cu1097 Cu    0.16667   0.16667   0.88022   0.00000  Uiso   1.00
Cu1098 Cu    0.16667   0.16666   0.78645   0.00000  Uiso   1.00
N1099  N     0.16668   0.16668   0.95069   0.00000  Uiso   1.00
N1100  N     0.16665   0.16666   0.71597   0.00000  Uiso   1.00
O1101  O     0.16666   0.10655   0.87291   0.00000  Uiso   1.00
O1102  O     0.16667   0.22678   0.79375   0.00000  Uiso   1.00
O1103  O     0.16666   0.10654   0.79372   0.00000  Uiso   1.00
O1104  O     0.16667   0.22679   0.87294   0.00000  Uiso   1.00
O1105  O     0.09161   0.16667   0.86379   0.00000  Uiso   1.00
O1106  O     0.24172   0.16666   0.80288   0.00000  Uiso   1.00
O1107  O     0.09161   0.16666   0.78460   0.00000  Uiso   1.00
O1108  O     0.24172   0.16667   0.88207   0.00000  Uiso   1.00
C1109  C     0.32350   0.12820   0.77997   0.00000  Uiso   1.00
H1110  H     0.01991   0.11203   0.76439   0.00000  Uiso   1.00
H1111  H     0.29877   0.10387   0.79516   0.00000  Uiso   1.00
H1112  H     0.30128   0.14473   0.75100   0.00000  Uiso   1.00
C1113  C     0.00960   0.20557   0.88644   0.00000  Uiso   1.00
H1114  H     0.31301   0.22276   0.90061   0.00000  Uiso   1.00
H1115  H     0.03062   0.18898   0.91609   0.00000  Uiso   1.00
H1116  H     0.03551   0.22920   0.87165   0.00000  Uiso   1.00
O1117  O     0.08259   0.03936   0.78769   0.00000  Uiso   1.00
H1118  H     0.07901   0.06602   0.80291   0.00000  Uiso   1.00
O1119  O     0.24581   0.29005   0.88222   0.00000  Uiso   1.00
H1120  H     0.26569   0.30707   0.90684   0.00000  Uiso   1.00
C1121  C     0.08215   0.28586   0.77946   0.00000  Uiso   1.00
H1122  H     0.06520   0.26232   0.80240   0.00000  Uiso   1.00
H1123  H     0.05082   0.30517   0.76407   0.00000  Uiso   1.00
H1124  H     0.09663   0.27006   0.75023   0.00000  Uiso   1.00
C1125  C     0.25579   0.04692   0.88127   0.00000  Uiso   1.00
H1126  H     0.25674   0.08037   0.87252   0.00000  Uiso   1.00
H1127  H     0.25793   0.04364   0.91983   0.00000  Uiso   1.00
H1128  H     0.29072   0.03508   0.86924   0.00000  Uiso   1.00
O1129  O     0.09988   0.11602   0.71275   0.00000  Uiso   1.00
H1130  H     0.06880   0.10739   0.69194   0.00000  Uiso   1.00
O1131  O     0.23359   0.21719   0.95394   0.00000  Uiso   1.00
H1132  H     0.26470   0.22573   0.97475   0.00000  Uiso   1.00
C1133  C     0.09387   0.11114   0.94609   0.00000  Uiso   1.00
H1134  H     0.09650   0.10859   0.90904   0.00000  Uiso   1.00
H1135  H     0.09869   0.07940   0.96074   0.00000  Uiso   1.00
H1136  H     0.05438   0.12030   0.94893   0.00000  Uiso   1.00
C1137  C     0.23941   0.22224   0.72055   0.00000  Uiso   1.00
H1138  H     0.23453   0.25396   0.70588   0.00000  Uiso   1.00
H1139  H     0.23680   0.22477   0.75761   0.00000  Uiso   1.00
H1140  H     0.27893   0.21314   0.71772   0.00000  Uiso   1.00
C1141  C     0.50035   0.08762   0.83373   0.00000  Uiso   1.00
C1142  C     0.49989   0.24574   0.83295   0.00000  Uiso   1.00
C1143  C     0.40162   0.16535   0.82187   0.00000  Uiso   1.00
C1144  C     0.59837   0.16813   0.84477   0.00000  Uiso   1.00
C1145  C     0.34683   0.15847   0.81740   0.00000  Uiso   1.00
C1146  C     0.65312   0.17513   0.84917   0.00000  Uiso   1.00
C1147  C     0.45815   0.02030   0.80973   0.00000  Uiso   1.00
C1148  C     0.54054   0.31246   0.85867   0.00000  Uiso   1.00
C1149  C     0.45911   0.31059   0.80715   0.00000  Uiso   1.00
C1150  C     0.54194   0.02274   0.85841   0.00000  Uiso   1.00
C1151  C     0.49999   0.29047   0.83226   0.00000  Uiso   1.00
C1152  C     0.50003   0.04289   0.83450   0.00000  Uiso   1.00
C1153  C     0.46574   0.14156   0.68938   0.00000  Uiso   1.00
C1154  C     0.53430   0.19174   0.97729   0.00000  Uiso   1.00
C1155  C     0.46552   0.14118   0.97280   0.00000  Uiso   1.00
C1156  C     0.53448   0.19216   0.69387   0.00000  Uiso   1.00
Cu1157 Cu    0.50000   0.16667   0.88022   0.00000  Uiso   1.00
Cu1158 Cu    0.50000   0.16666   0.78645   0.00000  Uiso   1.00
N1159  N     0.50001   0.16668   0.95069   0.00000  Uiso   1.00
N1160  N     0.49999   0.16666   0.71597   0.00000  Uiso   1.00
O1161  O     0.50000   0.10655   0.87291   0.00000  Uiso   1.00
O1162  O     0.50000   0.22678   0.79375   0.00000  Uiso   1.00
O1163  O     0.50000   0.10654   0.79372   0.00000  Uiso   1.00
O1164  O     0.50000   0.22679   0.87294   0.00000  Uiso   1.00
O1165  O     0.42495   0.16667   0.86379   0.00000  Uiso   1.00
O1166  O     0.57505   0.16666   0.80288   0.00000  Uiso   1.00
O1167  O     0.42494   0.16666   0.78460   0.00000  Uiso   1.00
O1168  O     0.57506   0.16667   0.88207   0.00000  Uiso   1.00
C1169  C     0.65684   0.12820   0.77997   0.00000  Uiso   1.00
H1170  H     0.35325   0.11203   0.76439   0.00000  Uiso   1.00
H1171  H     0.63210   0.10387   0.79516   0.00000  Uiso   1.00
H1172  H     0.63461   0.14473   0.75100   0.00000  Uiso   1.00
C1173  C     0.34293   0.20557   0.88644   0.00000  Uiso   1.00
H1174  H     0.64634   0.22276   0.90061   0.00000  Uiso   1.00
H1175  H     0.36395   0.18898   0.91609   0.00000  Uiso   1.00
H1176  H     0.36885   0.22920   0.87165   0.00000  Uiso   1.00
O1177  O     0.41592   0.03936   0.78769   0.00000  Uiso   1.00
H1178  H     0.41235   0.06602   0.80291   0.00000  Uiso   1.00
O1179  O     0.57914   0.29005   0.88222   0.00000  Uiso   1.00
H1180  H     0.59903   0.30707   0.90684   0.00000  Uiso   1.00
C1181  C     0.41549   0.28586   0.77946   0.00000  Uiso   1.00
H1182  H     0.39853   0.26232   0.80240   0.00000  Uiso   1.00
H1183  H     0.38415   0.30517   0.76407   0.00000  Uiso   1.00
H1184  H     0.42996   0.27006   0.75023   0.00000  Uiso   1.00
C1185  C     0.58912   0.04692   0.88127   0.00000  Uiso   1.00
H1186  H     0.59007   0.08037   0.87252   0.00000  Uiso   1.00
H1187  H     0.59127   0.04364   0.91983   0.00000  Uiso   1.00
H1188  H     0.62405   0.03508   0.86924   0.00000  Uiso   1.00
O1189  O     0.43321   0.11602   0.71275   0.00000  Uiso   1.00
H1190  H     0.40214   0.10739   0.69194   0.00000  Uiso   1.00
O1191  O     0.56692   0.21719   0.95394   0.00000  Uiso   1.00
H1192  H     0.59804   0.22573   0.97475   0.00000  Uiso   1.00
C1193  C     0.42721   0.11114   0.94609   0.00000  Uiso   1.00
H1194  H     0.42983   0.10859   0.90904   0.00000  Uiso   1.00
H1195  H     0.43202   0.07940   0.96074   0.00000  Uiso   1.00
H1196  H     0.38771   0.12030   0.94893   0.00000  Uiso   1.00
C1197  C     0.57274   0.22224   0.72055   0.00000  Uiso   1.00
H1198  H     0.56786   0.25396   0.70588   0.00000  Uiso   1.00
H1199  H     0.57013   0.22477   0.75761   0.00000  Uiso   1.00
H1200  H     0.61226   0.21314   0.71772   0.00000  Uiso   1.00
C1201  C     0.83369   0.08762   0.83373   0.00000  Uiso   1.00
C1202  C     0.83322   0.24574   0.83295   0.00000  Uiso   1.00
C1203  C     0.73495   0.16535   0.82187   0.00000  Uiso   1.00
C1204  C     0.93170   0.16813   0.84477   0.00000  Uiso   1.00
C1205  C     0.68016   0.15847   0.81740   0.00000  Uiso   1.00
C1206  C     0.98646   0.17513   0.84917   0.00000  Uiso   1.00
C1207  C     0.79148   0.02030   0.80973   0.00000  Uiso   1.00
C1208  C     0.87387   0.31246   0.85867   0.00000  Uiso   1.00
C1209  C     0.79244   0.31059   0.80715   0.00000  Uiso   1.00
C1210  C     0.87528   0.02274   0.85841   0.00000  Uiso   1.00
C1211  C     0.83332   0.29047   0.83226   0.00000  Uiso   1.00
C1212  C     0.83336   0.04289   0.83450   0.00000  Uiso   1.00
C1213  C     0.79908   0.14156   0.68938   0.00000  Uiso   1.00
C1214  C     0.86763   0.19174   0.97729   0.00000  Uiso   1.00
C1215  C     0.79886   0.14118   0.97280   0.00000  Uiso   1.00
C1216  C     0.86781   0.19216   0.69387   0.00000  Uiso   1.00
Cu1217 Cu    0.83333   0.16667   0.88022   0.00000  Uiso   1.00
Cu1218 Cu    0.83333   0.16666   0.78645   0.00000  Uiso   1.00
N1219  N     0.83335   0.16668   0.95069   0.00000  Uiso   1.00
N1220  N     0.83332   0.16666   0.71597   0.00000  Uiso   1.00
O1221  O     0.83333   0.10655   0.87291   0.00000  Uiso   1.00
O1222  O     0.83334   0.22678   0.79375   0.00000  Uiso   1.00
O1223  O     0.83333   0.10654   0.79372   0.00000  Uiso   1.00
O1224  O     0.83334   0.22679   0.87294   0.00000  Uiso   1.00
O1225  O     0.75828   0.16667   0.86379   0.00000  Uiso   1.00
O1226  O     0.90839   0.16666   0.80288   0.00000  Uiso   1.00
O1227  O     0.75828   0.16666   0.78460   0.00000  Uiso   1.00
O1228  O     0.90839   0.16667   0.88207   0.00000  Uiso   1.00
C1229  C     0.99017   0.12820   0.77997   0.00000  Uiso   1.00
H1230  H     0.68658   0.11203   0.76439   0.00000  Uiso   1.00
H1231  H     0.96544   0.10387   0.79516   0.00000  Uiso   1.00
H1232  H     0.96795   0.14473   0.75100   0.00000  Uiso   1.00
C1233  C     0.67626   0.20557   0.88644   0.00000  Uiso   1.00
H1234  H     0.97967   0.22276   0.90061   0.00000  Uiso   1.00
H1235  H     0.69729   0.18898   0.91609   0.00000  Uiso   1.00
H1236  H     0.70218   0.22920   0.87165   0.00000  Uiso   1.00
O1237  O     0.74925   0.03936   0.78769   0.00000  Uiso   1.00
H1238  H     0.74568   0.06602   0.80291   0.00000  Uiso   1.00
O1239  O     0.91247   0.29005   0.88222   0.00000  Uiso   1.00
H1240  H     0.93236   0.30707   0.90684   0.00000  Uiso   1.00
C1241  C     0.74882   0.28586   0.77946   0.00000  Uiso   1.00
H1242  H     0.73187   0.26232   0.80240   0.00000  Uiso   1.00
H1243  H     0.71749   0.30517   0.76407   0.00000  Uiso   1.00
H1244  H     0.76330   0.27006   0.75023   0.00000  Uiso   1.00
C1245  C     0.92245   0.04692   0.88127   0.00000  Uiso   1.00
H1246  H     0.92341   0.08037   0.87252   0.00000  Uiso   1.00
H1247  H     0.92460   0.04364   0.91983   0.00000  Uiso   1.00
H1248  H     0.95739   0.03508   0.86924   0.00000  Uiso   1.00
O1249  O     0.76655   0.11602   0.71275   0.00000  Uiso   1.00
H1250  H     0.73547   0.10739   0.69194   0.00000  Uiso   1.00
O1251  O     0.90025   0.21719   0.95394   0.00000  Uiso   1.00
H1252  H     0.93137   0.22573   0.97475   0.00000  Uiso   1.00
C1253  C     0.76054   0.11114   0.94609   0.00000  Uiso   1.00
H1254  H     0.76317   0.10859   0.90904   0.00000  Uiso   1.00
H1255  H     0.76535   0.07940   0.96074   0.00000  Uiso   1.00
H1256  H     0.72104   0.12030   0.94893   0.00000  Uiso   1.00
C1257  C     0.90608   0.22224   0.72055   0.00000  Uiso   1.00
H1258  H     0.90120   0.25396   0.70588   0.00000  Uiso   1.00
H1259  H     0.90347   0.22477   0.75761   0.00000  Uiso   1.00
H1260  H     0.94560   0.21314   0.71772   0.00000  Uiso   1.00
C1261  C     0.16702   0.42095   0.83373   0.00000  Uiso   1.00
C1262  C     0.16655   0.57908   0.83295   0.00000  Uiso   1.00
C1263  C     0.06828   0.49868   0.82187   0.00000  Uiso   1.00
C1264  C     0.26504   0.50146   0.84477   0.00000  Uiso   1.00
C1265  C     0.01350   0.49180   0.81740   0.00000  Uiso   1.00
C1266  C     0.31979   0.50847   0.84917   0.00000  Uiso   1.00
C1267  C     0.12482   0.35363   0.80973   0.00000  Uiso   1.00
C1268  C     0.20721   0.64579   0.85867   0.00000  Uiso   1.00
C1269  C     0.12577   0.64392   0.80715   0.00000  Uiso   1.00
C1270  C     0.20861   0.35607   0.85841   0.00000  Uiso   1.00
C1271  C     0.16665   0.62381   0.83226   0.00000  Uiso   1.00
C1272  C     0.16670   0.37622   0.83450   0.00000  Uiso   1.00
C1273  C     0.13241   0.47489   0.68938   0.00000  Uiso   1.00
C1274  C     0.20096   0.52507   0.97729   0.00000  Uiso   1.00
C1275  C     0.13219   0.47451   0.97280   0.00000  Uiso   1.00
C1276  C     0.20114   0.52549   0.69387   0.00000  Uiso   1.00
Cu1277 Cu    0.16667   0.50001   0.88022   0.00000  Uiso   1.00
Cu1278 Cu    0.16667   0.49999   0.78645   0.00000  Uiso   1.00
N1279  N     0.16668   0.50001   0.95069   0.00000  Uiso   1.00
N1280  N     0.16665   0.49999   0.71597   0.00000  Uiso   1.00
O1281  O     0.16666   0.43989   0.87291   0.00000  Uiso   1.00
O1282  O     0.16667   0.56011   0.79375   0.00000  Uiso   1.00
O1283  O     0.16666   0.43988   0.79372   0.00000  Uiso   1.00
O1284  O     0.16667   0.56012   0.87294   0.00000  Uiso   1.00
O1285  O     0.09161   0.50000   0.86379   0.00000  Uiso   1.00
O1286  O     0.24172   0.50000   0.80288   0.00000  Uiso   1.00
O1287  O     0.09161   0.49999   0.78460   0.00000  Uiso   1.00
O1288  O     0.24172   0.50001   0.88207   0.00000  Uiso   1.00
C1289  C     0.32350   0.46154   0.77997   0.00000  Uiso   1.00
H1290  H     0.01991   0.44537   0.76439   0.00000  Uiso   1.00
H1291  H     0.29877   0.43720   0.79516   0.00000  Uiso   1.00
H1292  H     0.30128   0.47806   0.75100   0.00000  Uiso   1.00
C1293  C     0.00960   0.53890   0.88644   0.00000  Uiso   1.00
H1294  H     0.31301   0.55609   0.90061   0.00000  Uiso   1.00
H1295  H     0.03062   0.52231   0.91609   0.00000  Uiso   1.00
H1296  H     0.03551   0.56254   0.87165   0.00000  Uiso   1.00
O1297  O     0.08259   0.37269   0.78769   0.00000  Uiso   1.00
H1298  H     0.07901   0.39935   0.80291   0.00000  Uiso   1.00
O1299  O     0.24581   0.62338   0.88222   0.00000  Uiso   1.00
H1300  H     0.26569   0.64041   0.90684   0.00000  Uiso   1.00
C1301  C     0.08215   0.61919   0.77946   0.00000  Uiso   1.00
H1302  H     0.06520   0.59565   0.80240   0.00000  Uiso   1.00
H1303  H     0.05082   0.63851   0.76407   0.00000  Uiso   1.00
H1304  H     0.09663   0.60339   0.75023   0.00000  Uiso   1.00
C1305  C     0.25579   0.38025   0.88127   0.00000  Uiso   1.00
H1306  H     0.25674   0.41370   0.87252   0.00000  Uiso   1.00
H1307  H     0.25793   0.37697   0.91983   0.00000  Uiso   1.00
H1308  H     0.29072   0.36841   0.86924   0.00000  Uiso   1.00
O1309  O     0.09988   0.44935   0.71275   0.00000  Uiso   1.00
H1310  H     0.06880   0.44072   0.69194   0.00000  Uiso   1.00
O1311  O     0.23359   0.55053   0.95394   0.00000  Uiso   1.00
H1312  H     0.26470   0.55906   0.97475   0.00000  Uiso   1.00
C1313  C     0.09387   0.44448   0.94609   0.00000  Uiso   1.00
H1314  H     0.09650   0.44192   0.90904   0.00000  Uiso   1.00
H1315  H     0.09869   0.41274   0.96074   0.00000  Uiso   1.00
H1316  H     0.05438   0.45364   0.94893   0.00000  Uiso   1.00
C1317  C     0.23941   0.55557   0.72055   0.00000  Uiso   1.00
H1318  H     0.23453   0.58730   0.70588   0.00000  Uiso   1.00
H1319  H     0.23680   0.55810   0.75761   0.00000  Uiso   1.00
H1320  H     0.27893   0.54647   0.71772   0.00000  Uiso   1.00
C1321  C     0.50035   0.42095   0.83373   0.00000  Uiso   1.00
C1322  C     0.49989   0.57908   0.83295   0.00000  Uiso   1.00
C1323  C     0.40162   0.49868   0.82187   0.00000  Uiso   1.00
C1324  C     0.59837   0.50146   0.84477   0.00000  Uiso   1.00
C1325  C     0.34683   0.49180   0.81740   0.00000  Uiso   1.00
C1326  C     0.65312   0.50847   0.84917   0.00000  Uiso   1.00
C1327  C     0.45815   0.35363   0.80973   0.00000  Uiso   1.00
C1328  C     0.54054   0.64579   0.85867   0.00000  Uiso   1.00
C1329  C     0.45911   0.64392   0.80715   0.00000  Uiso   1.00
C1330  C     0.54194   0.35607   0.85841   0.00000  Uiso   1.00
C1331  C     0.49999   0.62381   0.83226   0.00000  Uiso   1.00
C1332  C     0.50003   0.37622   0.83450   0.00000  Uiso   1.00
C1333  C     0.46574   0.47489   0.68938   0.00000  Uiso   1.00
C1334  C     0.53430   0.52507   0.97729   0.00000  Uiso   1.00
C1335  C     0.46552   0.47451   0.97280   0.00000  Uiso   1.00
C1336  C     0.53448   0.52549   0.69387   0.00000  Uiso   1.00
Cu1337 Cu    0.50000   0.50001   0.88022   0.00000  Uiso   1.00
Cu1338 Cu    0.50000   0.49999   0.78645   0.00000  Uiso   1.00
N1339  N     0.50001   0.50001   0.95069   0.00000  Uiso   1.00
N1340  N     0.49999   0.49999   0.71597   0.00000  Uiso   1.00
O1341  O     0.50000   0.43989   0.87291   0.00000  Uiso   1.00
O1342  O     0.50000   0.56011   0.79375   0.00000  Uiso   1.00
O1343  O     0.50000   0.43988   0.79372   0.00000  Uiso   1.00
O1344  O     0.50000   0.56012   0.87294   0.00000  Uiso   1.00
O1345  O     0.42495   0.50000   0.86379   0.00000  Uiso   1.00
O1346  O     0.57505   0.50000   0.80288   0.00000  Uiso   1.00
O1347  O     0.42494   0.49999   0.78460   0.00000  Uiso   1.00
O1348  O     0.57506   0.50001   0.88207   0.00000  Uiso   1.00
C1349  C     0.65684   0.46154   0.77997   0.00000  Uiso   1.00
H1350  H     0.35325   0.44537   0.76439   0.00000  Uiso   1.00
H1351  H     0.63210   0.43720   0.79516   0.00000  Uiso   1.00
H1352  H     0.63461   0.47806   0.75100   0.00000  Uiso   1.00
C1353  C     0.34293   0.53890   0.88644   0.00000  Uiso   1.00
H1354  H     0.64634   0.55609   0.90061   0.00000  Uiso   1.00
H1355  H     0.36395   0.52231   0.91609   0.00000  Uiso   1.00
H1356  H     0.36885   0.56254   0.87165   0.00000  Uiso   1.00
O1357  O     0.41592   0.37269   0.78769   0.00000  Uiso   1.00
H1358  H     0.41235   0.39935   0.80291   0.00000  Uiso   1.00
O1359  O     0.57914   0.62338   0.88222   0.00000  Uiso   1.00
H1360  H     0.59903   0.64041   0.90684   0.00000  Uiso   1.00
C1361  C     0.41549   0.61919   0.77946   0.00000  Uiso   1.00
H1362  H     0.39853   0.59565   0.80240   0.00000  Uiso   1.00
H1363  H     0.38415   0.63851   0.76407   0.00000  Uiso   1.00
H1364  H     0.42996   0.60339   0.75023   0.00000  Uiso   1.00
C1365  C     0.58912   0.38025   0.88127   0.00000  Uiso   1.00
H1366  H     0.59007   0.41370   0.87252   0.00000  Uiso   1.00
H1367  H     0.59127   0.37697   0.91983   0.00000  Uiso   1.00
H1368  H     0.62405   0.36841   0.86924   0.00000  Uiso   1.00
O1369  O     0.43321   0.44935   0.71275   0.00000  Uiso   1.00
H1370  H     0.40214   0.44072   0.69194   0.00000  Uiso   1.00
O1371  O     0.56692   0.55053   0.95394   0.00000  Uiso   1.00
H1372  H     0.59804   0.55906   0.97475   0.00000  Uiso   1.00
C1373  C     0.42721   0.44448   0.94609   0.00000  Uiso   1.00
H1374  H     0.42983   0.44192   0.90904   0.00000  Uiso   1.00
H1375  H     0.43202   0.41274   0.96074   0.00000  Uiso   1.00
H1376  H     0.38771   0.45364   0.94893   0.00000  Uiso   1.00
C1377  C     0.57274   0.55557   0.72055   0.00000  Uiso   1.00
H1378  H     0.56786   0.58730   0.70588   0.00000  Uiso   1.00
H1379  H     0.57013   0.55810   0.75761   0.00000  Uiso   1.00
H1380  H     0.61226   0.54647   0.71772   0.00000  Uiso   1.00
C1381  C     0.83369   0.42095   0.83373   0.00000  Uiso   1.00
C1382  C     0.83322   0.57908   0.83295   0.00000  Uiso   1.00
C1383  C     0.73495   0.49868   0.82187   0.00000  Uiso   1.00
C1384  C     0.93170   0.50146   0.84477   0.00000  Uiso   1.00
C1385  C     0.68016   0.49180   0.81740   0.00000  Uiso   1.00
C1386  C     0.98646   0.50847   0.84917   0.00000  Uiso   1.00
C1387  C     0.79148   0.35363   0.80973   0.00000  Uiso   1.00
C1388  C     0.87387   0.64579   0.85867   0.00000  Uiso   1.00
C1389  C     0.79244   0.64392   0.80715   0.00000  Uiso   1.00
C1390  C     0.87528   0.35607   0.85841   0.00000  Uiso   1.00
C1391  C     0.83332   0.62381   0.83226   0.00000  Uiso   1.00
C1392  C     0.83336   0.37622   0.83450   0.00000  Uiso   1.00
C1393  C     0.79908   0.47489   0.68938   0.00000  Uiso   1.00
C1394  C     0.86763   0.52507   0.97729   0.00000  Uiso   1.00
C1395  C     0.79886   0.47451   0.97280   0.00000  Uiso   1.00
C1396  C     0.86781   0.52549   0.69387   0.00000  Uiso   1.00
Cu1397 Cu    0.83333   0.50001   0.88022   0.00000  Uiso   1.00
Cu1398 Cu    0.83333   0.49999   0.78645   0.00000  Uiso   1.00
N1399  N     0.83335   0.50001   0.95069   0.00000  Uiso   1.00
N1400  N     0.83332   0.49999   0.71597   0.00000  Uiso   1.00
O1401  O     0.83333   0.43989   0.87291   0.00000  Uiso   1.00
O1402  O     0.83334   0.56011   0.79375   0.00000  Uiso   1.00
O1403  O     0.83333   0.43988   0.79372   0.00000  Uiso   1.00
O1404  O     0.83334   0.56012   0.87294   0.00000  Uiso   1.00
O1405  O     0.75828   0.50000   0.86379   0.00000  Uiso   1.00
O1406  O     0.90839   0.50000   0.80288   0.00000  Uiso   1.00
O1407  O     0.75828   0.49999   0.78460   0.00000  Uiso   1.00
O1408  O     0.90839   0.50001   0.88207   0.00000  Uiso   1.00
C1409  C     0.99017   0.46154   0.77997   0.00000  Uiso   1.00
H1410  H     0.68658   0.44537   0.76439   0.00000  Uiso   1.00
H1411  H     0.96544   0.43720   0.79516   0.00000  Uiso   1.00
H1412  H     0.96795   0.47806   0.75100   0.00000  Uiso   1.00
C1413  C     0.67626   0.53890   0.88644   0.00000  Uiso   1.00
H1414  H     0.97967   0.55609   0.90061   0.00000  Uiso   1.00
H1415  H     0.69729   0.52231   0.91609   0.00000  Uiso   1.00
H1416  H     0.70218   0.56254   0.87165   0.00000  Uiso   1.00
O1417  O     0.74925   0.37269   0.78769   0.00000  Uiso   1.00
H1418  H     0.74568   0.39935   0.80291   0.00000  Uiso   1.00
O1419  O     0.91247   0.62338   0.88222   0.00000  Uiso   1.00
H1420  H     0.93236   0.64041   0.90684   0.00000  Uiso   1.00
C1421  C     0.74882   0.61919   0.77946   0.00000  Uiso   1.00
H1422  H     0.73187   0.59565   0.80240   0.00000  Uiso   1.00
H1423  H     0.71749   0.63851   0.76407   0.00000  Uiso   1.00
H1424  H     0.76330   0.60339   0.75023   0.00000  Uiso   1.00
C1425  C     0.92245   0.38025   0.88127   0.00000  Uiso   1.00
H1426  H     0.92341   0.41370   0.87252   0.00000  Uiso   1.00
H1427  H     0.92460   0.37697   0.91983   0.00000  Uiso   1.00
H1428  H     0.95739   0.36841   0.86924   0.00000  Uiso   1.00
O1429  O     0.76655   0.44935   0.71275   0.00000  Uiso   1.00
H1430  H     0.73547   0.44072   0.69194   0.00000  Uiso   1.00
O1431  O     0.90025   0.55053   0.95394   0.00000  Uiso   1.00
H1432  H     0.93137   0.55906   0.97475   0.00000  Uiso   1.00
C1433  C     0.76054   0.44448   0.94609   0.00000  Uiso   1.00
H1434  H     0.76317   0.44192   0.90904   0.00000  Uiso   1.00
H1435  H     0.76535   0.41274   0.96074   0.00000  Uiso   1.00
H1436  H     0.72104   0.45364   0.94893   0.00000  Uiso   1.00
C1437  C     0.90608   0.55557   0.72055   0.00000  Uiso   1.00
H1438  H     0.90120   0.58730   0.70588   0.00000  Uiso   1.00
H1439  H     0.90347   0.55810   0.75761   0.00000  Uiso   1.00
H1440  H     0.94560   0.54647   0.71772   0.00000  Uiso   1.00
C1441  C     0.16702   0.75428   0.83373   0.00000  Uiso   1.00
C1442  C     0.16655   0.91241   0.83295   0.00000  Uiso   1.00
C1443  C     0.06828   0.83201   0.82187   0.00000  Uiso   1.00
C1444  C     0.26504   0.83479   0.84477   0.00000  Uiso   1.00
C1445  C     0.01350   0.82513   0.81740   0.00000  Uiso   1.00
C1446  C     0.31979   0.84180   0.84917   0.00000  Uiso   1.00
C1447  C     0.12482   0.68696   0.80973   0.00000  Uiso   1.00
C1448  C     0.20721   0.97912   0.85867   0.00000  Uiso   1.00
C1449  C     0.12577   0.97726   0.80715   0.00000  Uiso   1.00
C1450  C     0.20861   0.68940   0.85841   0.00000  Uiso   1.00
C1451  C     0.16665   0.95714   0.83226   0.00000  Uiso   1.00
C1452  C     0.16670   0.70956   0.83450   0.00000  Uiso   1.00
C1453  C     0.13241   0.80823   0.68938   0.00000  Uiso   1.00
C1454  C     0.20096   0.85840   0.97729   0.00000  Uiso   1.00
C1455  C     0.13219   0.80784   0.97280   0.00000  Uiso   1.00
C1456  C     0.20114   0.85882   0.69387   0.00000  Uiso   1.00
Cu1457 Cu    0.16667   0.83334   0.88022   0.00000  Uiso   1.00
Cu1458 Cu    0.16667   0.83333   0.78645   0.00000  Uiso   1.00
N1459  N     0.16668   0.83334   0.95069   0.00000  Uiso   1.00
N1460  N     0.16665   0.83332   0.71597   0.00000  Uiso   1.00
O1461  O     0.16666   0.77322   0.87291   0.00000  Uiso   1.00
O1462  O     0.16667   0.89345   0.79375   0.00000  Uiso   1.00
O1463  O     0.16666   0.77321   0.79372   0.00000  Uiso   1.00
O1464  O     0.16667   0.89346   0.87294   0.00000  Uiso   1.00
O1465  O     0.09161   0.83334   0.86379   0.00000  Uiso   1.00
O1466  O     0.24172   0.83333   0.80288   0.00000  Uiso   1.00
O1467  O     0.09161   0.83333   0.78460   0.00000  Uiso   1.00
O1468  O     0.24172   0.83334   0.88207   0.00000  Uiso   1.00
C1469  C     0.32350   0.79487   0.77997   0.00000  Uiso   1.00
H1470  H     0.01991   0.77870   0.76439   0.00000  Uiso   1.00
H1471  H     0.29877   0.77053   0.79516   0.00000  Uiso   1.00
H1472  H     0.30128   0.81140   0.75100   0.00000  Uiso   1.00
C1473  C     0.00960   0.87224   0.88644   0.00000  Uiso   1.00
H1474  H     0.31301   0.88943   0.90061   0.00000  Uiso   1.00
H1475  H     0.03062   0.85565   0.91609   0.00000  Uiso   1.00
H1476  H     0.03551   0.89587   0.87165   0.00000  Uiso   1.00
O1477  O     0.08259   0.70602   0.78769   0.00000  Uiso   1.00
H1478  H     0.07901   0.73268   0.80291   0.00000  Uiso   1.00
O1479  O     0.24581   0.95672   0.88222   0.00000  Uiso   1.00
H1480  H     0.26569   0.97374   0.90684   0.00000  Uiso   1.00
C1481  C     0.08215   0.95252   0.77946   0.00000  Uiso   1.00
H1482  H     0.06520   0.92899   0.80240   0.00000  Uiso   1.00
H1483  H     0.05082   0.97184   0.76407   0.00000  Uiso   1.00
H1484  H     0.09663   0.93672   0.75023   0.00000  Uiso   1.00
C1485  C     0.25579   0.71359   0.88127   0.00000  Uiso   1.00
H1486  H     0.25674   0.74703   0.87252   0.00000  Uiso   1.00
H1487  H     0.25793   0.71030   0.91983   0.00000  Uiso   1.00
H1488  H     0.29072   0.70174   0.86924   0.00000  Uiso   1.00
O1489  O     0.09988   0.78269   0.71275   0.00000  Uiso   1.00
H1490  H     0.06880   0.77405   0.69194   0.00000  Uiso   1.00
O1491  O     0.23359   0.88386   0.95394   0.00000  Uiso   1.00
H1492  H     0.26470   0.89240   0.97475   0.00000  Uiso   1.00
C1493  C     0.09387   0.77781   0.94609   0.00000  Uiso   1.00
H1494  H     0.09650   0.77526   0.90904   0.00000  Uiso   1.00
H1495  H     0.09869   0.74607   0.96074   0.00000  Uiso   1.00
H1496  H     0.05438   0.78697   0.94893   0.00000  Uiso   1.00
C1497  C     0.23941   0.88890   0.72055   0.00000  Uiso   1.00
H1498  H     0.23453   0.92063   0.70588   0.00000  Uiso   1.00
H1499  H     0.23680   0.89144   0.75761   0.00000  Uiso   1.00
H1500  H     0.27893   0.87981   0.71772   0.00000  Uiso   1.00
C1501  C     0.50035   0.75428   0.83373   0.00000  Uiso   1.00
C1502  C     0.49989   0.91241   0.83295   0.00000  Uiso   1.00
C1503  C     0.40162   0.83201   0.82187   0.00000  Uiso   1.00
C1504  C     0.59837   0.83479   0.84477   0.00000  Uiso   1.00
C1505  C     0.34683   0.82513   0.81740   0.00000  Uiso   1.00
C1506  C     0.65312   0.84180   0.84917   0.00000  Uiso   1.00
C1507  C     0.45815   0.68696   0.80973   0.00000  Uiso   1.00
C1508  C     0.54054   0.97912   0.85867   0.00000  Uiso   1.00
C1509  C     0.45911   0.97726   0.80715   0.00000  Uiso   1.00
C1510  C     0.54194   0.68940   0.85841   0.00000  Uiso   1.00
C1511  C     0.49999   0.95714   0.83226   0.00000  Uiso   1.00
C1512  C     0.50003   0.70956   0.83450   0.00000  Uiso   1.00
C1513  C     0.46574   0.80823   0.68938   0.00000  Uiso   1.00
C1514  C     0.53430   0.85840   0.97729   0.00000  Uiso   1.00
C1515  C     0.46552   0.80784   0.97280   0.00000  Uiso   1.00
C1516  C     0.53448   0.85882   0.69387   0.00000  Uiso   1.00
Cu1517 Cu    0.50000   0.83334   0.88022   0.00000  Uiso   1.00
Cu1518 Cu    0.50000   0.83333   0.78645   0.00000  Uiso   1.00
N1519  N     0.50001   0.83334   0.95069   0.00000  Uiso   1.00
N1520  N     0.49999   0.83332   0.71597   0.00000  Uiso   1.00
O1521  O     0.50000   0.77322   0.87291   0.00000  Uiso   1.00
O1522  O     0.50000   0.89345   0.79375   0.00000  Uiso   1.00
O1523  O     0.50000   0.77321   0.79372   0.00000  Uiso   1.00
O1524  O     0.50000   0.89346   0.87294   0.00000  Uiso   1.00
O1525  O     0.42495   0.83334   0.86379   0.00000  Uiso   1.00
O1526  O     0.57505   0.83333   0.80288   0.00000  Uiso   1.00
O1527  O     0.42494   0.83333   0.78460   0.00000  Uiso   1.00
O1528  O     0.57506   0.83334   0.88207   0.00000  Uiso   1.00
C1529  C     0.65684   0.79487   0.77997   0.00000  Uiso   1.00
H1530  H     0.35325   0.77870   0.76439   0.00000  Uiso   1.00
H1531  H     0.63210   0.77053   0.79516   0.00000  Uiso   1.00
H1532  H     0.63461   0.81140   0.75100   0.00000  Uiso   1.00
C1533  C     0.34293   0.87224   0.88644   0.00000  Uiso   1.00
H1534  H     0.64634   0.88943   0.90061   0.00000  Uiso   1.00
H1535  H     0.36395   0.85565   0.91609   0.00000  Uiso   1.00
H1536  H     0.36885   0.89587   0.87165   0.00000  Uiso   1.00
O1537  O     0.41592   0.70602   0.78769   0.00000  Uiso   1.00
H1538  H     0.41235   0.73268   0.80291   0.00000  Uiso   1.00
O1539  O     0.57914   0.95672   0.88222   0.00000  Uiso   1.00
H1540  H     0.59903   0.97374   0.90684   0.00000  Uiso   1.00
C1541  C     0.41549   0.95252   0.77946   0.00000  Uiso   1.00
H1542  H     0.39853   0.92899   0.80240   0.00000  Uiso   1.00
H1543  H     0.38415   0.97184   0.76407   0.00000  Uiso   1.00
H1544  H     0.42996   0.93672   0.75023   0.00000  Uiso   1.00
C1545  C     0.58912   0.71359   0.88127   0.00000  Uiso   1.00
H1546  H     0.59007   0.74703   0.87252   0.00000  Uiso   1.00
H1547  H     0.59127   0.71030   0.91983   0.00000  Uiso   1.00
H1548  H     0.62405   0.70174   0.86924   0.00000  Uiso   1.00
O1549  O     0.43321   0.78269   0.71275   0.00000  Uiso   1.00
H1550  H     0.40214   0.77405   0.69194   0.00000  Uiso   1.00
O1551  O     0.56692   0.88386   0.95394   0.00000  Uiso   1.00
H1552  H     0.59804   0.89240   0.97475   0.00000  Uiso   1.00
C1553  C     0.42721   0.77781   0.94609   0.00000  Uiso   1.00
H1554  H     0.42983   0.77526   0.90904   0.00000  Uiso   1.00
H1555  H     0.43202   0.74607   0.96074   0.00000  Uiso   1.00
H1556  H     0.38771   0.78697   0.94893   0.00000  Uiso   1.00
C1557  C     0.57274   0.88890   0.72055   0.00000  Uiso   1.00
H1558  H     0.56786   0.92063   0.70588   0.00000  Uiso   1.00
H1559  H     0.57013   0.89144   0.75761   0.00000  Uiso   1.00
H1560  H     0.61226   0.87981   0.71772   0.00000  Uiso   1.00
C1561  C     0.83369   0.75428   0.83373   0.00000  Uiso   1.00
C1562  C     0.83322   0.91241   0.83295   0.00000  Uiso   1.00
C1563  C     0.73495   0.83201   0.82187   0.00000  Uiso   1.00
C1564  C     0.93170   0.83479   0.84477   0.00000  Uiso   1.00
C1565  C     0.68016   0.82513   0.81740   0.00000  Uiso   1.00
C1566  C     0.98646   0.84180   0.84917   0.00000  Uiso   1.00
C1567  C     0.79148   0.68696   0.80973   0.00000  Uiso   1.00
C1568  C     0.87387   0.97912   0.85867   0.00000  Uiso   1.00
C1569  C     0.79244   0.97726   0.80715   0.00000  Uiso   1.00
C1570  C     0.87528   0.68940   0.85841   0.00000  Uiso   1.00
C1571  C     0.83332   0.95714   0.83226   0.00000  Uiso   1.00
C1572  C     0.83336   0.70956   0.83450   0.00000  Uiso   1.00
C1573  C     0.79908   0.80823   0.68938   0.00000  Uiso   1.00
C1574  C     0.86763   0.85840   0.97729   0.00000  Uiso   1.00
C1575  C     0.79886   0.80784   0.97280   0.00000  Uiso   1.00
C1576  C     0.86781   0.85882   0.69387   0.00000  Uiso   1.00
Cu1577 Cu    0.83333   0.83334   0.88022   0.00000  Uiso   1.00
Cu1578 Cu    0.83333   0.83333   0.78645   0.00000  Uiso   1.00
N1579  N     0.83335   0.83334   0.95069   0.00000  Uiso   1.00
N1580  N     0.83332   0.83332   0.71597   0.00000  Uiso   1.00
O1581  O     0.83333   0.77322   0.87291   0.00000  Uiso   1.00
O1582  O     0.83334   0.89345   0.79375   0.00000  Uiso   1.00
O1583  O     0.83333   0.77321   0.79372   0.00000  Uiso   1.00
O1584  O     0.83334   0.89346   0.87294   0.00000  Uiso   1.00
O1585  O     0.75828   0.83334   0.86379   0.00000  Uiso   1.00
O1586  O     0.90839   0.83333   0.80288   0.00000  Uiso   1.00
O1587  O     0.75828   0.83333   0.78460   0.00000  Uiso   1.00
O1588  O     0.90839   0.83334   0.88207   0.00000  Uiso   1.00
C1589  C     0.99017   0.79487   0.77997   0.00000  Uiso   1.00
H1590  H     0.68658   0.77870   0.76439   0.00000  Uiso   1.00
H1591  H     0.96544   0.77053   0.79516   0.00000  Uiso   1.00
H1592  H     0.96795   0.81140   0.75100   0.00000  Uiso   1.00
C1593  C     0.67626   0.87224   0.88644   0.00000  Uiso   1.00
H1594  H     0.97967   0.88943   0.90061   0.00000  Uiso   1.00
H1595  H     0.69729   0.85565   0.91609   0.00000  Uiso   1.00
H1596  H     0.70218   0.89587   0.87165   0.00000  Uiso   1.00
O1597  O     0.74925   0.70602   0.78769   0.00000  Uiso   1.00
H1598  H     0.74568   0.73268   0.80291   0.00000  Uiso   1.00
O1599  O     0.91247   0.95672   0.88222   0.00000  Uiso   1.00
H1600  H     0.93236   0.97374   0.90684   0.00000  Uiso   1.00
C1601  C     0.74882   0.95252   0.77946   0.00000  Uiso   1.00
H1602  H     0.73187   0.92899   0.80240   0.00000  Uiso   1.00
H1603  H     0.71749   0.97184   0.76407   0.00000  Uiso   1.00
H1604  H     0.76330   0.93672   0.75023   0.00000  Uiso   1.00
C1605  C     0.92245   0.71359   0.88127   0.00000  Uiso   1.00
H1606  H     0.92341   0.74703   0.87252   0.00000  Uiso   1.00
H1607  H     0.92460   0.71030   0.91983   0.00000  Uiso   1.00
H1608  H     0.95739   0.70174   0.86924   0.00000  Uiso   1.00
O1609  O     0.76655   0.78269   0.71275   0.00000  Uiso   1.00
H1610  H     0.73547   0.77405   0.69194   0.00000  Uiso   1.00
O1611  O     0.90025   0.88386   0.95394   0.00000  Uiso   1.00
H1612  H     0.93137   0.89240   0.97475   0.00000  Uiso   1.00
C1613  C     0.76054   0.77781   0.94609   0.00000  Uiso   1.00
H1614  H     0.76317   0.77526   0.90904   0.00000  Uiso   1.00
H1615  H     0.76535   0.74607   0.96074   0.00000  Uiso   1.00
H1616  H     0.72104   0.78697   0.94893   0.00000  Uiso   1.00
C1617  C     0.90608   0.88890   0.72055   0.00000  Uiso   1.00
H1618  H     0.90120   0.92063   0.70588   0.00000  Uiso   1.00
H1619  H     0.90347   0.89144   0.75761   0.00000  Uiso   1.00
H1620  H     0.94560   0.87981   0.71772   0.00000  Uiso   1.00
loop_
_geom_bond_atom_site_label_1
_geom_bond_atom_site_label_2
_geom_bond_distance
_geom_bond_site_symmetry_2
_ccdc_geom_bond_type
C1     O21     1.297   .     A
C1     C12     1.446   .     S
C1     O23     1.295   .     A
C2     O22     1.297   .     A
C2     C11     1.446   .     S
C2     O24     1.296   .     A
C3     O27     1.299   .     A
C3     O25     1.290   .     A
C3     C5      1.439   .     S
C4     O26     1.289   .     A
C4     C6      1.438   .     S
C4     O28     1.299   .     A
C5     C126    1.361   1_455 S
C5     C149    1.522   1_455 S
C6     C65     1.361   .     S
C6     C93     1.521   .     S
C7     O37     1.384   .     S
C7     C12     1.416   .     A
C7     C369    1.397   1_545 S
C8     O39     1.386   .     S
C8     C11     1.403   .     A
C8     C190    1.409   .     S
C9     C11     1.408   .     A
C9     C41     1.517   .     S
C9     C187    1.397   .     S
C10    C45     1.519   .     S
C10    C12     1.415   .     A
C10    C368    1.409   1_545 S
C13    O49     1.382   .     S
C13    N20     1.356   .     A
C13    C1095   1.439   1_554 S
C14    O51     1.381   .     S
C14    N19     1.356   .     A
C14    C556    1.439   .     S
C15    N19     1.395   .     A
C15    C53     1.513   .     S
C15    C553    1.439   .     S
C16    N20     1.395   .     A
C16    C57     1.513   .     S
C16    C1094   1.439   1_554 S
Cu17   O25     1.978   .     S
Cu17   Cu18    2.705   .     S
Cu17   N19     2.033   .     S
Cu17   O24     1.952   .     S
Cu17   O28     1.972   .     S
Cu17   O21     1.960   .     S
Cu18   O26     1.978   .     S
Cu18   N20     2.033   .     S
Cu18   O22     1.960   .     S
Cu18   O27     1.972   .     S
Cu18   O23     1.952   .     S
C29    H32     1.109   .     S
C29    H31     1.111   .     S
C29    C65     1.522   .     S
C29    H90     1.108   .     S
H30    C149    1.108   1_455 S
C33    H36     1.110   .     S
C33    H35     1.109   .     S
C33    C126    1.521   1_455 S
C33    H154    1.110   1_455 S
H34    C93     1.110   .     S
O37    H38     0.989   .     S
O39    H40     0.988   .     S
C41    H42     1.109   .     S
C41    H43     1.109   .     S
C41    H44     1.110   .     S
C45    H46     1.106   .     S
C45    H47     1.110   .     S
C45    H48     1.111   .     S
O49    H50     0.986   .     S
O51    H52     0.986   .     S
C53    H54     1.084   .     S
C53    H55     1.111   .     S
C53    H56     1.110   .     S
C57    H58     1.111   .     S
C57    H59     1.084   .     S
C57    H60     1.110   .     S
C61    O81     1.297   .     A
C61    C72     1.446   .     S
C61    O83     1.295   .     A
C62    O82     1.297   .     A
C62    C71     1.446   .     S
C62    O84     1.296   .     A
C63    O87     1.299   .     A
C63    O85     1.290   .     A
C63    C65     1.439   .     S
C64    O86     1.289   .     A
C64    C66     1.438   .     S
C64    O88     1.299   .     A
C66    C125    1.361   .     S
C66    C153    1.521   .     S
C67    O97     1.384   .     S
C67    C72     1.416   .     A
C67    C429    1.397   1_545 S
C68    O99     1.386   .     S
C68    C71     1.403   .     A
C68    C250    1.409   .     S
C69    C71     1.408   .     A
C69    C101    1.517   .     S
C69    C247    1.397   .     S
C70    C105    1.519   .     S
C70    C72     1.415   .     A
C70    C428    1.409   1_545 S
C73    O109    1.382   .     S
C73    N80     1.356   .     A
C73    C1155   1.439   1_554 S
C74    O111    1.381   .     S
C74    N79     1.356   .     A
C74    C616    1.439   .     S
C75    N79     1.395   .     A
C75    C113    1.513   .     S
C75    C613    1.439   .     S
C76    N80     1.395   .     A
C76    C117    1.513   .     S
C76    C1154   1.439   1_554 S
Cu77   O85     1.978   .     S
Cu77   Cu78    2.705   .     S
Cu77   N79     2.033   .     S
Cu77   O84     1.952   .     S
Cu77   O88     1.972   .     S
Cu77   O81     1.960   .     S
Cu78   O86     1.978   .     S
Cu78   N80     2.033   .     S
Cu78   O82     1.960   .     S
Cu78   O87     1.972   .     S
Cu78   O83     1.952   .     S
C89    H92     1.109   .     S
C89    H91     1.111   .     S
C89    C125    1.522   .     S
C89    H150    1.108   .     S
C93    H96     1.110   .     S
C93    H95     1.109   .     S
H94    C153    1.110   .     S
O97    H98     0.989   .     S
O99    H100    0.988   .     S
C101   H102    1.109   .     S
C101   H103    1.109   .     S
C101   H104    1.110   .     S
C105   H106    1.106   .     S
C105   H107    1.110   .     S
C105   H108    1.111   .     S
O109   H110    0.986   .     S
O111   H112    0.986   .     S
C113   H114    1.084   .     S
C113   H115    1.111   .     S
C113   H116    1.110   .     S
C117   H118    1.111   .     S
C117   H119    1.084   .     S
C117   H120    1.110   .     S
C121   O141    1.297   .     A
C121   C132    1.446   .     S
C121   O143    1.295   .     A
C122   O142    1.297   .     A
C122   C131    1.446   .     S
C122   O144    1.296   .     A
C123   O147    1.299   .     A
C123   O145    1.290   .     A
C123   C125    1.439   .     S
C124   O146    1.289   .     A
C124   C126    1.438   .     S
C124   O148    1.299   .     A
C126   C5      1.361   1_655 S
C126   C33     1.521   1_655 S
C127   O157    1.384   .     S
C127   C132    1.416   .     A
C127   C489    1.397   1_545 S
C128   O159    1.386   .     S
C128   C131    1.403   .     A
C128   C310    1.409   .     S
C129   C131    1.408   .     A
C129   C161    1.517   .     S
C129   C307    1.397   .     S
C130   C165    1.519   .     S
C130   C132    1.415   .     A
C130   C488    1.409   1_545 S
C133   O169    1.382   .     S
C133   N140    1.356   .     A
C133   C1215   1.439   1_554 S
C134   O171    1.381   .     S
C134   N139    1.356   .     A
C134   C676    1.439   .     S
C135   N139    1.395   .     A
C135   C173    1.513   .     S
C135   C673    1.439   .     S
C136   N140    1.395   .     A
C136   C177    1.513   .     S
C136   C1214   1.439   1_554 S
Cu137  O145    1.978   .     S
Cu137  Cu138   2.705   .     S
Cu137  N139    2.033   .     S
Cu137  O144    1.952   .     S
Cu137  O148    1.972   .     S
Cu137  O141    1.960   .     S
Cu138  O146    1.978   .     S
Cu138  N140    2.033   .     S
Cu138  O142    1.960   .     S
Cu138  O147    1.972   .     S
Cu138  O143    1.952   .     S
C149   H152    1.109   .     S
C149   H151    1.111   .     S
C149   C5      1.522   1_655 S
C149   H30     1.108   1_655 S
C153   H156    1.110   .     S
C153   H155    1.109   .     S
H154   C33     1.110   1_655 S
O157   H158    0.989   .     S
O159   H160    0.988   .     S
C161   H162    1.109   .     S
C161   H163    1.109   .     S
C161   H164    1.110   .     S
C165   H166    1.106   .     S
C165   H167    1.110   .     S
C165   H168    1.111   .     S
O169   H170    0.986   .     S
O171   H172    0.986   .     S
C173   H174    1.084   .     S
C173   H175    1.111   .     S
C173   H176    1.110   .     S
C177   H178    1.111   .     S
C177   H179    1.084   .     S
C177   H180    1.110   .     S
C181   O201    1.297   .     A
C181   C192    1.446   .     S
C181   O203    1.295   .     A
C182   O202    1.297   .     A
C182   C191    1.446   .     S
C182   O204    1.296   .     A
C183   O207    1.299   .     A
C183   O205    1.290   .     A
C183   C185    1.439   .     S
C184   O206    1.289   .     A
C184   C186    1.438   .     S
C184   O208    1.299   .     A
C185   C306    1.361   1_455 S
C185   C329    1.522   1_455 S
C186   C245    1.361   .     S
C186   C273    1.521   .     S
C187   O217    1.384   .     S
C187   C192    1.416   .     A
C188   O219    1.386   .     S
C188   C191    1.403   .     A
C188   C370    1.409   .     S
C189   C191    1.408   .     A
C189   C221    1.517   .     S
C189   C367    1.397   .     S
C190   C225    1.519   .     S
C190   C192    1.415   .     A
C193   O229    1.382   .     S
C193   N200    1.356   .     A
C193   C1275   1.439   1_554 S
C194   O231    1.381   .     S
C194   N199    1.356   .     A
C194   C736    1.439   .     S
C195   N199    1.395   .     A
C195   C233    1.513   .     S
C195   C733    1.439   .     S
C196   N200    1.395   .     A
C196   C237    1.513   .     S
C196   C1274   1.439   1_554 S
Cu197  O205    1.978   .     S
Cu197  Cu198   2.705   .     S
Cu197  N199    2.033   .     S
Cu197  O204    1.952   .     S
Cu197  O208    1.972   .     S
Cu197  O201    1.960   .     S
Cu198  O206    1.978   .     S
Cu198  N200    2.033   .     S
Cu198  O202    1.960   .     S
Cu198  O207    1.972   .     S
Cu198  O203    1.952   .     S
C209   H212    1.109   .     S
C209   H211    1.111   .     S
C209   C245    1.522   .     S
C209   H270    1.108   .     S
H210   C329    1.108   1_455 S
C213   H216    1.110   .     S
C213   H215    1.109   .     S
C213   C306    1.521   1_455 S
C213   H334    1.110   1_455 S
H214   C273    1.110   .     S
O217   H218    0.989   .     S
O219   H220    0.988   .     S
C221   H222    1.109   .     S
C221   H223    1.109   .     S
C221   H224    1.110   .     S
C225   H226    1.106   .     S
C225   H227    1.110   .     S
C225   H228    1.111   .     S
O229   H230    0.986   .     S
O231   H232    0.986   .     S
C233   H234    1.084   .     S
C233   H235    1.111   .     S
C233   H236    1.110   .     S
C237   H238    1.111   .     S
C237   H239    1.084   .     S
C237   H240    1.110   .     S
C241   O261    1.297   .     A
C241   C252    1.446   .     S
C241   O263    1.295   .     A
C242   O262    1.297   .     A
C242   C251    1.446   .     S
C242   O264    1.296   .     A
C243   O267    1.299   .     A
C243   O265    1.290   .     A
C243   C245    1.439   .     S
C244   O266    1.289   .     A
C244   C246    1.438   .     S
C244   O268    1.299   .     A
C246   C305    1.361   .     S
C246   C333    1.521   .     S
C247   O277    1.384   .     S
C247   C252    1.416   .     A
C248   O279    1.386   .     S
C248   C251    1.403   .     A
C248   C430    1.409   .     S
C249   C251    1.408   .     A
C249   C281    1.517   .     S
C249   C427    1.397   .     S
C250   C285    1.519   .     S
C250   C252    1.415   .     A
C253   O289    1.382   .     S
C253   N260    1.356   .     A
C253   C1335   1.439   1_554 S
C254   O291    1.381   .     S
C254   N259    1.356   .     A
C254   C796    1.439   .     S
C255   N259    1.395   .     A
C255   C293    1.513   .     S
C255   C793    1.439   .     S
C256   N260    1.395   .     A
C256   C297    1.513   .     S
C256   C1334   1.439   1_554 S
Cu257  O265    1.978   .     S
Cu257  Cu258   2.705   .     S
Cu257  N259    2.033   .     S
Cu257  O264    1.952   .     S
Cu257  O268    1.972   .     S
Cu257  O261    1.960   .     S
Cu258  O266    1.978   .     S
Cu258  N260    2.033   .     S
Cu258  O262    1.960   .     S
Cu258  O267    1.972   .     S
Cu258  O263    1.952   .     S
C269   H272    1.109   .     S
C269   H271    1.111   .     S
C269   C305    1.522   .     S
C269   H330    1.108   .     S
C273   H276    1.110   .     S
C273   H275    1.109   .     S
H274   C333    1.110   .     S
O277   H278    0.989   .     S
O279   H280    0.988   .     S
C281   H282    1.109   .     S
C281   H283    1.109   .     S
C281   H284    1.110   .     S
C285   H286    1.106   .     S
C285   H287    1.110   .     S
C285   H288    1.111   .     S
O289   H290    0.986   .     S
O291   H292    0.986   .     S
C293   H294    1.084   .     S
C293   H295    1.111   .     S
C293   H296    1.110   .     S
C297   H298    1.111   .     S
C297   H299    1.084   .     S
C297   H300    1.110   .     S
C301   O321    1.297   .     A
C301   C312    1.446   .     S
C301   O323    1.295   .     A
C302   O322    1.297   .     A
C302   C311    1.446   .     S
C302   O324    1.296   .     A
C303   O327    1.299   .     A
C303   O325    1.290   .     A
C303   C305    1.439   .     S
C304   O326    1.289   .     A
C304   C306    1.438   .     S
C304   O328    1.299   .     A
C306   C185    1.361   1_655 S
C306   C213    1.521   1_655 S
C307   O337    1.384   .     S
C307   C312    1.416   .     A
C308   O339    1.386   .     S
C308   C311    1.403   .     A
C308   C490    1.409   .     S
C309   C311    1.408   .     A
C309   C341    1.517   .     S
C309   C487    1.397   .     S
C310   C345    1.519   .     S
C310   C312    1.415   .     A
C313   O349    1.382   .     S
C313   N320    1.356   .     A
C313   C1395   1.439   1_554 S
C314   O351    1.381   .     S
C314   N319    1.356   .     A
C314   C856    1.439   .     S
C315   N319    1.395   .     A
C315   C353    1.513   .     S
C315   C853    1.439   .     S
C316   N320    1.395   .     A
C316   C357    1.513   .     S
C316   C1394   1.439   1_554 S
Cu317  O325    1.978   .     S
Cu317  Cu318   2.705   .     S
Cu317  N319    2.033   .     S
Cu317  O324    1.952   .     S
Cu317  O328    1.972   .     S
Cu317  O321    1.960   .     S
Cu318  O326    1.978   .     S
Cu318  N320    2.033   .     S
Cu318  O322    1.960   .     S
Cu318  O327    1.972   .     S
Cu318  O323    1.952   .     S
C329   H332    1.109   .     S
C329   H331    1.111   .     S
C329   C185    1.522   1_655 S
C329   H210    1.108   1_655 S
C333   H336    1.110   .     S
C333   H335    1.109   .     S
H334   C213    1.110   1_655 S
O337   H338    0.989   .     S
O339   H340    0.988   .     S
C341   H342    1.109   .     S
C341   H343    1.109   .     S
C341   H344    1.110   .     S
C345   H346    1.106   .     S
C345   H347    1.110   .     S
C345   H348    1.111   .     S
O349   H350    0.986   .     S
O351   H352    0.986   .     S
C353   H354    1.084   .     S
C353   H355    1.111   .     S
C353   H356    1.110   .     S
C357   H358    1.111   .     S
C357   H359    1.084   .     S
C357   H360    1.110   .     S
C361   O381    1.297   .     A
C361   C372    1.446   .     S
C361   O383    1.295   .     A
C362   O382    1.297   .     A
C362   C371    1.446   .     S
C362   O384    1.296   .     A
C363   O387    1.299   .     A
C363   O385    1.290   .     A
C363   C365    1.439   .     S
C364   O386    1.289   .     A
C364   C366    1.438   .     S
C364   O388    1.299   .     A
C365   C486    1.361   1_455 S
C365   C509    1.522   1_455 S
C366   C425    1.361   .     S
C366   C453    1.521   .     S
C367   O397    1.384   .     S
C367   C372    1.416   .     A
C368   O399    1.386   .     S
C368   C371    1.403   .     A
C368   C10     1.409   1_565 S
C369   C371    1.408   .     A
C369   C401    1.517   .     S
C369   C7      1.397   1_565 S
C370   C405    1.519   .     S
C370   C372    1.415   .     A
C373   O409    1.382   .     S
C373   N380    1.356   .     A
C373   C1455   1.439   1_554 S
C374   O411    1.381   .     S
C374   N379    1.356   .     A
C374   C916    1.439   .     S
C375   N379    1.395   .     A
C375   C413    1.513   .     S
C375   C913    1.439   .     S
C376   N380    1.395   .     A
C376   C417    1.513   .     S
C376   C1454   1.439   1_554 S
Cu377  O385    1.978   .     S
Cu377  Cu378   2.705   .     S
Cu377  N379    2.033   .     S
Cu377  O384    1.952   .     S
Cu377  O388    1.972   .     S
Cu377  O381    1.960   .     S
Cu378  O386    1.978   .     S
Cu378  N380    2.033   .     S
Cu378  O382    1.960   .     S
Cu378  O387    1.972   .     S
Cu378  O383    1.952   .     S
C389   H392    1.109   .     S
C389   H391    1.111   .     S
C389   C425    1.522   .     S
C389   H450    1.108   .     S
H390   C509    1.108   1_455 S
C393   H396    1.110   .     S
C393   H395    1.109   .     S
C393   C486    1.521   1_455 S
C393   H514    1.110   1_455 S
H394   C453    1.110   .     S
O397   H398    0.989   .     S
O399   H400    0.988   .     S
C401   H402    1.109   .     S
C401   H403    1.109   .     S
C401   H404    1.110   .     S
C405   H406    1.106   .     S
C405   H407    1.110   .     S
C405   H408    1.111   .     S
O409   H410    0.986   .     S
O411   H412    0.986   .     S
C413   H414    1.084   .     S
C413   H415    1.111   .     S
C413   H416    1.110   .     S
C417   H418    1.111   .     S
C417   H419    1.084   .     S
C417   H420    1.110   .     S
C421   O441    1.297   .     A
C421   C432    1.446   .     S
C421   O443    1.295   .     A
C422   O442    1.297   .     A
C422   C431    1.446   .     S
C422   O444    1.296   .     A
C423   O447    1.299   .     A
C423   O445    1.290   .     A
C423   C425    1.439   .     S
C424   O446    1.289   .     A
C424   C426    1.438   .     S
C424   O448    1.299   .     A
C426   C485    1.361   .     S
C426   C513    1.521   .     S
C427   O457    1.384   .     S
C427   C432    1.416   .     A
C428   O459    1.386   .     S
C428   C431    1.403   .     A
C428   C70     1.409   1_565 S
C429   C431    1.408   .     A
C429   C461    1.517   .     S
C429   C67     1.397   1_565 S
C430   C465    1.519   .     S
C430   C432    1.415   .     A
C433   O469    1.382   .     S
C433   N440    1.356   .     A
C433   C1515   1.439   1_554 S
C434   O471    1.381   .     S
C434   N439    1.356   .     A
C434   C976    1.439   .     S
C435   N439    1.395   .     A
C435   C473    1.513   .     S
C435   C973    1.439   .     S
C436   N440    1.395   .     A
C436   C477    1.513   .     S
C436   C1514   1.439   1_554 S
Cu437  O445    1.978   .     S
Cu437  Cu438   2.705   .     S
Cu437  N439    2.033   .     S
Cu437  O444    1.952   .     S
Cu437  O448    1.972   .     S
Cu437  O441    1.960   .     S
Cu438  O446    1.978   .     S
Cu438  N440    2.033   .     S
Cu438  O442    1.960   .     S
Cu438  O447    1.972   .     S
Cu438  O443    1.952   .     S
C449   H452    1.109   .     S
C449   H451    1.111   .     S
C449   C485    1.522   .     S
C449   H510    1.108   .     S
C453   H456    1.110   .     S
C453   H455    1.109   .     S
H454   C513    1.110   .     S
O457   H458    0.989   .     S
O459   H460    0.988   .     S
C461   H462    1.109   .     S
C461   H463    1.109   .     S
C461   H464    1.110   .     S
C465   H466    1.106   .     S
C465   H467    1.110   .     S
C465   H468    1.111   .     S
O469   H470    0.986   .     S
O471   H472    0.986   .     S
C473   H474    1.084   .     S
C473   H475    1.111   .     S
C473   H476    1.110   .     S
C477   H478    1.111   .     S
C477   H479    1.084   .     S
C477   H480    1.110   .     S
C481   O501    1.297   .     A
C481   C492    1.446   .     S
C481   O503    1.295   .     A
C482   O502    1.297   .     A
C482   C491    1.446   .     S
C482   O504    1.296   .     A
C483   O507    1.299   .     A
C483   O505    1.290   .     A
C483   C485    1.439   .     S
C484   O506    1.289   .     A
C484   C486    1.438   .     S
C484   O508    1.299   .     A
C486   C365    1.361   1_655 S
C486   C393    1.521   1_655 S
C487   O517    1.384   .     S
C487   C492    1.416   .     A
C488   O519    1.386   .     S
C488   C491    1.403   .     A
C488   C130    1.409   1_565 S
C489   C491    1.408   .     A
C489   C521    1.517   .     S
C489   C127    1.397   1_565 S
C490   C525    1.519   .     S
C490   C492    1.415   .     A
C493   O529    1.382   .     S
C493   N500    1.356   .     A
C493   C1575   1.439   1_554 S
C494   O531    1.381   .     S
C494   N499    1.356   .     A
C494   C1036   1.439   .     S
C495   N499    1.395   .     A
C495   C533    1.513   .     S
C495   C1033   1.439   .     S
C496   N500    1.395   .     A
C496   C537    1.513   .     S
C496   C1574   1.439   1_554 S
Cu497  O505    1.978   .     S
Cu497  Cu498   2.705   .     S
Cu497  N499    2.033   .     S
Cu497  O504    1.952   .     S
Cu497  O508    1.972   .     S
Cu497  O501    1.960   .     S
Cu498  O506    1.978   .     S
Cu498  N500    2.033   .     S
Cu498  O502    1.960   .     S
Cu498  O507    1.972   .     S
Cu498  O503    1.952   .     S
C509   H512    1.109   .     S
C509   H511    1.111   .     S
C509   C365    1.522   1_655 S
C509   H390    1.108   1_655 S
C513   H516    1.110   .     S
C513   H515    1.109   .     S
H514   C393    1.110   1_655 S
O517   H518    0.989   .     S
O519   H520    0.988   .     S
C521   H522    1.109   .     S
C521   H523    1.109   .     S
C521   H524    1.110   .     S
C525   H526    1.106   .     S
C525   H527    1.110   .     S
C525   H528    1.111   .     S
O529   H530    0.986   .     S
O531   H532    0.986   .     S
C533   H534    1.084   .     S
C533   H535    1.111   .     S
C533   H536    1.110   .     S
C537   H538    1.111   .     S
C537   H539    1.084   .     S
C537   H540    1.110   .     S
C541   O561    1.297   .     A
C541   C552    1.446   .     S
C541   O563    1.295   .     A
C542   O562    1.297   .     A
C542   C551    1.446   .     S
C542   O564    1.296   .     A
C543   O567    1.299   .     A
C543   O565    1.290   .     A
C543   C545    1.439   .     S
C544   O566    1.289   .     A
C544   C546    1.438   .     S
C544   O568    1.299   .     A
C545   C666    1.361   1_455 S
C545   C689    1.522   1_455 S
C546   C605    1.361   .     S
C546   C633    1.521   .     S
C547   O577    1.384   .     S
C547   C552    1.416   .     A
C547   C909    1.397   1_545 S
C548   O579    1.386   .     S
C548   C551    1.403   .     A
C548   C730    1.409   .     S
C549   C551    1.408   .     A
C549   C581    1.517   .     S
C549   C727    1.397   .     S
C550   C585    1.519   .     S
C550   C552    1.415   .     A
C550   C908    1.409   1_545 S
C553   O589    1.382   .     S
C553   N560    1.356   .     A
C554   O591    1.381   .     S
C554   N559    1.356   .     A
C554   C1096   1.439   .     S
C555   N559    1.395   .     A
C555   C593    1.513   .     S
C555   C1093   1.439   .     S
C556   N560    1.395   .     A
C556   C597    1.513   .     S
Cu557  O565    1.978   .     S
Cu557  Cu558   2.705   .     S
Cu557  N559    2.033   .     S
Cu557  O564    1.952   .     S
Cu557  O568    1.972   .     S
Cu557  O561    1.960   .     S
Cu558  O566    1.978   .     S
Cu558  N560    2.033   .     S
Cu558  O562    1.960   .     S
Cu558  O567    1.972   .     S
Cu558  O563    1.952   .     S
C569   H572    1.109   .     S
C569   H571    1.111   .     S
C569   C605    1.522   .     S
C569   H630    1.108   .     S
H570   C689    1.108   1_455 S
C573   H576    1.110   .     S
C573   H575    1.109   .     S
C573   C666    1.521   1_455 S
C573   H694    1.110   1_455 S
H574   C633    1.110   .     S
O577   H578    0.989   .     S
O579   H580    0.988   .     S
C581   H582    1.109   .     S
C581   H583    1.109   .     S
C581   H584    1.110   .     S
C585   H586    1.106   .     S
C585   H587    1.110   .     S
C585   H588    1.111   .     S
O589   H590    0.986   .     S
O591   H592    0.986   .     S
C593   H594    1.084   .     S
C593   H595    1.111   .     S
C593   H596    1.110   .     S
C597   H598    1.111   .     S
C597   H599    1.084   .     S
C597   H600    1.110   .     S
C601   O621    1.297   .     A
C601   C612    1.446   .     S
C601   O623    1.295   .     A
C602   O622    1.297   .     A
C602   C611    1.446   .     S
C602   O624    1.296   .     A
C603   O627    1.299   .     A
C603   O625    1.290   .     A
C603   C605    1.439   .     S
C604   O626    1.289   .     A
C604   C606    1.438   .     S
C604   O628    1.299   .     A
C606   C665    1.361   .     S
C606   C693    1.521   .     S
C607   O637    1.384   .     S
C607   C612    1.416   .     A
C607   C969    1.397   1_545 S
C608   O639    1.386   .     S
C608   C611    1.403   .     A
C608   C790    1.409   .     S
C609   C611    1.408   .     A
C609   C641    1.517   .     S
C609   C787    1.397   .     S
C610   C645    1.519   .     S
C610   C612    1.415   .     A
C610   C968    1.409   1_545 S
C613   O649    1.382   .     S
C613   N620    1.356   .     A
C614   O651    1.381   .     S
C614   N619    1.356   .     A
C614   C1156   1.439   .     S
C615   N619    1.395   .     A
C615   C653    1.513   .     S
C615   C1153   1.439   .     S
C616   N620    1.395   .     A
C616   C657    1.513   .     S
Cu617  O625    1.978   .     S
Cu617  Cu618   2.705   .     S
Cu617  N619    2.033   .     S
Cu617  O624    1.952   .     S
Cu617  O628    1.972   .     S
Cu617  O621    1.960   .     S
Cu618  O626    1.978   .     S
Cu618  N620    2.033   .     S
Cu618  O622    1.960   .     S
Cu618  O627    1.972   .     S
Cu618  O623    1.952   .     S
C629   H632    1.109   .     S
C629   H631    1.111   .     S
C629   C665    1.522   .     S
C629   H690    1.108   .     S
C633   H636    1.110   .     S
C633   H635    1.109   .     S
H634   C693    1.110   .     S
O637   H638    0.989   .     S
O639   H640    0.988   .     S
C641   H642    1.109   .     S
C641   H643    1.109   .     S
C641   H644    1.110   .     S
C645   H646    1.106   .     S
C645   H647    1.110   .     S
C645   H648    1.111   .     S
O649   H650    0.986   .     S
O651   H652    0.986   .     S
C653   H654    1.084   .     S
C653   H655    1.111   .     S
C653   H656    1.110   .     S
C657   H658    1.111   .     S
C657   H659    1.084   .     S
C657   H660    1.110   .     S
C661   O681    1.297   .     A
C661   C672    1.446   .     S
C661   O683    1.295   .     A
C662   O682    1.297   .     A
C662   C671    1.446   .     S
C662   O684    1.296   .     A
C663   O687    1.299   .     A
C663   O685    1.290   .     A
C663   C665    1.439   .     S
C664   O686    1.289   .     A
C664   C666    1.438   .     S
C664   O688    1.299   .     A
C666   C545    1.361   1_655 S
C666   C573    1.521   1_655 S
C667   O697    1.384   .     S
C667   C672    1.416   .     A
C667   C1029   1.397   1_545 S
C668   O699    1.386   .     S
C668   C671    1.403   .     A
C668   C850    1.409   .     S
C669   C671    1.408   .     A
C669   C701    1.517   .     S
C669   C847    1.397   .     S
C670   C705    1.519   .     S
C670   C672    1.415   .     A
C670   C1028   1.409   1_545 S
C673   O709    1.382   .     S
C673   N680    1.356   .     A
C674   O711    1.381   .     S
C674   N679    1.356   .     A
C674   C1216   1.439   .     S
C675   N679    1.395   .     A
C675   C713    1.513   .     S
C675   C1213   1.439   .     S
C676   N680    1.395   .     A
C676   C717    1.513   .     S
Cu677  O685    1.978   .     S
Cu677  Cu678   2.705   .     S
Cu677  N679    2.033   .     S
Cu677  O684    1.952   .     S
Cu677  O688    1.972   .     S
Cu677  O681    1.960   .     S
Cu678  O686    1.978   .     S
Cu678  N680    2.033   .     S
Cu678  O682    1.960   .     S
Cu678  O687    1.972   .     S
Cu678  O683    1.952   .     S
C689   H692    1.109   .     S
C689   H691    1.111   .     S
C689   C545    1.522   1_655 S
C689   H570    1.108   1_655 S
C693   H696    1.110   .     S
C693   H695    1.109   .     S
H694   C573    1.110   1_655 S
O697   H698    0.989   .     S
O699   H700    0.988   .     S
C701   H702    1.109   .     S
C701   H703    1.109   .     S
C701   H704    1.110   .     S
C705   H706    1.106   .     S
C705   H707    1.110   .     S
C705   H708    1.111   .     S
O709   H710    0.986   .     S
O711   H712    0.986   .     S
C713   H714    1.084   .     S
C713   H715    1.111   .     S
C713   H716    1.110   .     S
C717   H718    1.111   .     S
C717   H719    1.084   .     S
C717   H720    1.110   .     S
C721   O741    1.297   .     A
C721   C732    1.446   .     S
C721   O743    1.295   .     A
C722   O742    1.297   .     A
C722   C731    1.446   .     S
C722   O744    1.296   .     A
C723   O747    1.299   .     A
C723   O745    1.290   .     A
C723   C725    1.439   .     S
C724   O746    1.289   .     A
C724   C726    1.438   .     S
C724   O748    1.299   .     A
C725   C846    1.361   1_455 S
C725   C869    1.522   1_455 S
C726   C785    1.361   .     S
C726   C813    1.521   .     S
C727   O757    1.384   .     S
C727   C732    1.416   .     A
C728   O759    1.386   .     S
C728   C731    1.403   .     A
C728   C910    1.409   .     S
C729   C731    1.408   .     A
C729   C761    1.517   .     S
C729   C907    1.397   .     S
C730   C765    1.519   .     S
C730   C732    1.415   .     A
C733   O769    1.382   .     S
C733   N740    1.356   .     A
C734   O771    1.381   .     S
C734   N739    1.356   .     A
C734   C1276   1.439   .     S
C735   N739    1.395   .     A
C735   C773    1.513   .     S
C735   C1273   1.439   .     S
C736   N740    1.395   .     A
C736   C777    1.513   .     S
Cu737  O745    1.978   .     S
Cu737  Cu738   2.705   .     S
Cu737  N739    2.033   .     S
Cu737  O744    1.952   .     S
Cu737  O748    1.972   .     S
Cu737  O741    1.960   .     S
Cu738  O746    1.978   .     S
Cu738  N740    2.033   .     S
Cu738  O742    1.960   .     S
Cu738  O747    1.972   .     S
Cu738  O743    1.952   .     S
C749   H752    1.109   .     S
C749   H751    1.111   .     S
C749   C785    1.522   .     S
C749   H810    1.108   .     S
H750   C869    1.108   1_455 S
C753   H756    1.110   .     S
C753   H755    1.109   .     S
C753   C846    1.521   1_455 S
C753   H874    1.110   1_455 S
H754   C813    1.110   .     S
O757   H758    0.989   .     S
O759   H760    0.988   .     S
C761   H762    1.109   .     S
C761   H763    1.109   .     S
C761   H764    1.110   .     S
C765   H766    1.106   .     S
C765   H767    1.110   .     S
C765   H768    1.111   .     S
O769   H770    0.986   .     S
O771   H772    0.986   .     S
C773   H774    1.084   .     S
C773   H775    1.111   .     S
C773   H776    1.110   .     S
C777   H778    1.111   .     S
C777   H779    1.084   .     S
C777   H780    1.110   .     S
C781   O801    1.297   .     A
C781   C792    1.446   .     S
C781   O803    1.295   .     A
C782   O802    1.297   .     A
C782   C791    1.446   .     S
C782   O804    1.296   .     A
C783   O807    1.299   .     A
C783   O805    1.290   .     A
C783   C785    1.439   .     S
C784   O806    1.289   .     A
C784   C786    1.438   .     S
C784   O808    1.299   .     A
C786   C845    1.361   .     S
C786   C873    1.521   .     S
C787   O817    1.384   .     S
C787   C792    1.416   .     A
C788   O819    1.386   .     S
C788   C791    1.403   .     A
C788   C970    1.409   .     S
C789   C791    1.408   .     A
C789   C821    1.517   .     S
C789   C967    1.397   .     S
C790   C825    1.519   .     S
C790   C792    1.415   .     A
C793   O829    1.382   .     S
C793   N800    1.356   .     A
C794   O831    1.381   .     S
C794   N799    1.356   .     A
C794   C1336   1.439   .     S
C795   N799    1.395   .     A
C795   C833    1.513   .     S
C795   C1333   1.439   .     S
C796   N800    1.395   .     A
C796   C837    1.513   .     S
Cu797  O805    1.978   .     S
Cu797  Cu798   2.705   .     S
Cu797  N799    2.033   .     S
Cu797  O804    1.952   .     S
Cu797  O808    1.972   .     S
Cu797  O801    1.960   .     S
Cu798  O806    1.978   .     S
Cu798  N800    2.033   .     S
Cu798  O802    1.960   .     S
Cu798  O807    1.972   .     S
Cu798  O803    1.952   .     S
C809   H812    1.109   .     S
C809   H811    1.111   .     S
C809   C845    1.522   .     S
C809   H870    1.108   .     S
C813   H816    1.110   .     S
C813   H815    1.109   .     S
H814   C873    1.110   .     S
O817   H818    0.989   .     S
O819   H820    0.988   .     S
C821   H822    1.109   .     S
C821   H823    1.109   .     S
C821   H824    1.110   .     S
C825   H826    1.106   .     S
C825   H827    1.110   .     S
C825   H828    1.111   .     S
O829   H830    0.986   .     S
O831   H832    0.986   .     S
C833   H834    1.084   .     S
C833   H835    1.111   .     S
C833   H836    1.110   .     S
C837   H838    1.111   .     S
C837   H839    1.084   .     S
C837   H840    1.110   .     S
C841   O861    1.297   .     A
C841   C852    1.446   .     S
C841   O863    1.295   .     A
C842   O862    1.297   .     A
C842   C851    1.446   .     S
C842   O864    1.296   .     A
C843   O867    1.299   .     A
C843   O865    1.290   .     A
C843   C845    1.439   .     S
C844   O866    1.289   .     A
C844   C846    1.438   .     S
C844   O868    1.299   .     A
C846   C725    1.361   1_655 S
C846   C753    1.521   1_655 S
C847   O877    1.384   .     S
C847   C852    1.416   .     A
C848   O879    1.386   .     S
C848   C851    1.403   .     A
C848   C1030   1.409   .     S
C849   C851    1.408   .     A
C849   C881    1.517   .     S
C849   C1027   1.397   .     S
C850   C885    1.519   .     S
C850   C852    1.415   .     A
C853   O889    1.382   .     S
C853   N860    1.356   .     A
C854   O891    1.381   .     S
C854   N859    1.356   .     A
C854   C1396   1.439   .     S
C855   N859    1.395   .     A
C855   C893    1.513   .     S
C855   C1393   1.439   .     S
C856   N860    1.395   .     A
C856   C897    1.513   .     S
Cu857  O865    1.978   .     S
Cu857  Cu858   2.705   .     S
Cu857  N859    2.033   .     S
Cu857  O864    1.952   .     S
Cu857  O868    1.972   .     S
Cu857  O861    1.960   .     S
Cu858  O866    1.978   .     S
Cu858  N860    2.033   .     S
Cu858  O862    1.960   .     S
Cu858  O867    1.972   .     S
Cu858  O863    1.952   .     S
C869   H872    1.109   .     S
C869   H871    1.111   .     S
C869   C725    1.522   1_655 S
C869   H750    1.108   1_655 S
C873   H876    1.110   .     S
C873   H875    1.109   .     S
H874   C753    1.110   1_655 S
O877   H878    0.989   .     S
O879   H880    0.988   .     S
C881   H882    1.109   .     S
C881   H883    1.109   .     S
C881   H884    1.110   .     S
C885   H886    1.106   .     S
C885   H887    1.110   .     S
C885   H888    1.111   .     S
O889   H890    0.986   .     S
O891   H892    0.986   .     S
C893   H894    1.084   .     S
C893   H895    1.111   .     S
C893   H896    1.110   .     S
C897   H898    1.111   .     S
C897   H899    1.084   .     S
C897   H900    1.110   .     S
C901   O921    1.297   .     A
C901   C912    1.446   .     S
C901   O923    1.295   .     A
C902   O922    1.297   .     A
C902   C911    1.446   .     S
C902   O924    1.296   .     A
C903   O927    1.299   .     A
C903   O925    1.290   .     A
C903   C905    1.439   .     S
C904   O926    1.289   .     A
C904   C906    1.438   .     S
C904   O928    1.299   .     A
C905   C1026   1.361   1_455 S
C905   C1049   1.522   1_455 S
C906   C965    1.361   .     S
C906   C993    1.521   .     S
C907   O937    1.384   .     S
C907   C912    1.416   .     A
C908   O939    1.386   .     S
C908   C911    1.403   .     A
C908   C550    1.409   1_565 S
C909   C911    1.408   .     A
C909   C941    1.517   .     S
C909   C547    1.397   1_565 S
C910   C945    1.519   .     S
C910   C912    1.415   .     A
C913   O949    1.382   .     S
C913   N920    1.356   .     A
C914   O951    1.381   .     S
C914   N919    1.356   .     A
C914   C1456   1.439   .     S
C915   N919    1.395   .     A
C915   C953    1.513   .     S
C915   C1453   1.439   .     S
C916   N920    1.395   .     A
C916   C957    1.513   .     S
Cu917  O925    1.978   .     S
Cu917  Cu918   2.705   .     S
Cu917  N919    2.033   .     S
Cu917  O924    1.952   .     S
Cu917  O928    1.972   .     S
Cu917  O921    1.960   .     S
Cu918  O926    1.978   .     S
Cu918  N920    2.033   .     S
Cu918  O922    1.960   .     S
Cu918  O927    1.972   .     S
Cu918  O923    1.952   .     S
C929   H932    1.109   .     S
C929   H931    1.111   .     S
C929   C965    1.522   .     S
C929   H990    1.108   .     S
H930   C1049   1.108   1_455 S
C933   H936    1.110   .     S
C933   H935    1.109   .     S
C933   C1026   1.521   1_455 S
C933   H1054   1.110   1_455 S
H934   C993    1.110   .     S
O937   H938    0.989   .     S
O939   H940    0.988   .     S
C941   H942    1.109   .     S
C941   H943    1.109   .     S
C941   H944    1.110   .     S
C945   H946    1.106   .     S
C945   H947    1.110   .     S
C945   H948    1.111   .     S
O949   H950    0.986   .     S
O951   H952    0.986   .     S
C953   H954    1.084   .     S
C953   H955    1.111   .     S
C953   H956    1.110   .     S
C957   H958    1.111   .     S
C957   H959    1.084   .     S
C957   H960    1.110   .     S
C961   O981    1.297   .     A
C961   C972    1.446   .     S
C961   O983    1.295   .     A
C962   O982    1.297   .     A
C962   C971    1.446   .     S
C962   O984    1.296   .     A
C963   O987    1.299   .     A
C963   O985    1.290   .     A
C963   C965    1.439   .     S
C964   O986    1.289   .     A
C964   C966    1.438   .     S
C964   O988    1.299   .     A
C966   C1025   1.361   .     S
C966   C1053   1.521   .     S
C967   O997    1.384   .     S
C967   C972    1.416   .     A
C968   O999    1.386   .     S
C968   C971    1.403   .     A
C968   C610    1.409   1_565 S
C969   C971    1.408   .     A
C969   C1001   1.517   .     S
C969   C607    1.397   1_565 S
C970   C1005   1.519   .     S
C970   C972    1.415   .     A
C973   O1009   1.382   .     S
C973   N980    1.356   .     A
C974   O1011   1.381   .     S
C974   N979    1.356   .     A
C974   C1516   1.439   .     S
C975   N979    1.395   .     A
C975   C1013   1.513   .     S
C975   C1513   1.439   .     S
C976   N980    1.395   .     A
C976   C1017   1.513   .     S
Cu977  O985    1.978   .     S
Cu977  Cu978   2.705   .     S
Cu977  N979    2.033   .     S
Cu977  O984    1.952   .     S
Cu977  O988    1.972   .     S
Cu977  O981    1.960   .     S
Cu978  O986    1.978   .     S
Cu978  N980    2.033   .     S
Cu978  O982    1.960   .     S
Cu978  O987    1.972   .     S
Cu978  O983    1.952   .     S
C989   H992    1.109   .     S
C989   H991    1.111   .     S
C989   C1025   1.522   .     S
C989   H1050   1.108   .     S
C993   H996    1.110   .     S
C993   H995    1.109   .     S
H994   C1053   1.110   .     S
O997   H998    0.989   .     S
O999   H1000   0.988   .     S
C1001  H1002   1.109   .     S
C1001  H1003   1.109   .     S
C1001  H1004   1.110   .     S
C1005  H1006   1.106   .     S
C1005  H1007   1.110   .     S
C1005  H1008   1.111   .     S
O1009  H1010   0.986   .     S
O1011  H1012   0.986   .     S
C1013  H1014   1.084   .     S
C1013  H1015   1.111   .     S
C1013  H1016   1.110   .     S
C1017  H1018   1.111   .     S
C1017  H1019   1.084   .     S
C1017  H1020   1.110   .     S
C1021  O1041   1.297   .     A
C1021  C1032   1.446   .     S
C1021  O1043   1.295   .     A
C1022  O1042   1.297   .     A
C1022  C1031   1.446   .     S
C1022  O1044   1.296   .     A
C1023  O1047   1.299   .     A
C1023  O1045   1.290   .     A
C1023  C1025   1.439   .     S
C1024  O1046   1.289   .     A
C1024  C1026   1.438   .     S
C1024  O1048   1.299   .     A
C1026  C905    1.361   1_655 S
C1026  C933    1.521   1_655 S
C1027  O1057   1.384   .     S
C1027  C1032   1.416   .     A
C1028  O1059   1.386   .     S
C1028  C1031   1.403   .     A
C1028  C670    1.409   1_565 S
C1029  C1031   1.408   .     A
C1029  C1061   1.517   .     S
C1029  C667    1.397   1_565 S
C1030  C1065   1.519   .     S
C1030  C1032   1.415   .     A
C1033  O1069   1.382   .     S
C1033  N1040   1.356   .     A
C1034  O1071   1.381   .     S
C1034  N1039   1.356   .     A
C1034  C1576   1.439   .     S
C1035  N1039   1.395   .     A
C1035  C1073   1.513   .     S
C1035  C1573   1.439   .     S
C1036  N1040   1.395   .     A
C1036  C1077   1.513   .     S
Cu1037 O1045   1.978   .     S
Cu1037 Cu1038  2.705   .     S
Cu1037 N1039   2.033   .     S
Cu1037 O1044   1.952   .     S
Cu1037 O1048   1.972   .     S
Cu1037 O1041   1.960   .     S
Cu1038 O1046   1.978   .     S
Cu1038 N1040   2.033   .     S
Cu1038 O1042   1.960   .     S
Cu1038 O1047   1.972   .     S
Cu1038 O1043   1.952   .     S
C1049  H1052   1.109   .     S
C1049  H1051   1.111   .     S
C1049  C905    1.522   1_655 S
C1049  H930    1.108   1_655 S
C1053  H1056   1.110   .     S
C1053  H1055   1.109   .     S
H1054  C933    1.110   1_655 S
O1057  H1058   0.989   .     S
O1059  H1060   0.988   .     S
C1061  H1062   1.109   .     S
C1061  H1063   1.109   .     S
C1061  H1064   1.110   .     S
C1065  H1066   1.106   .     S
C1065  H1067   1.110   .     S
C1065  H1068   1.111   .     S
O1069  H1070   0.986   .     S
O1071  H1072   0.986   .     S
C1073  H1074   1.084   .     S
C1073  H1075   1.111   .     S
C1073  H1076   1.110   .     S
C1077  H1078   1.111   .     S
C1077  H1079   1.084   .     S
C1077  H1080   1.110   .     S
C1081  O1101   1.297   .     A
C1081  C1092   1.446   .     S
C1081  O1103   1.295   .     A
C1082  O1102   1.297   .     A
C1082  C1091   1.446   .     S
C1082  O1104   1.296   .     A
C1083  O1107   1.299   .     A
C1083  O1105   1.290   .     A
C1083  C1085   1.439   .     S
C1084  O1106   1.289   .     A
C1084  C1086   1.438   .     S
C1084  O1108   1.299   .     A
C1085  C1206   1.361   1_455 S
C1085  C1229   1.522   1_455 S
C1086  C1145   1.361   .     S
C1086  C1173   1.521   .     S
C1087  O1117   1.384   .     S
C1087  C1092   1.416   .     A
C1087  C1449   1.397   1_545 S
C1088  O1119   1.386   .     S
C1088  C1091   1.403   .     A
C1088  C1270   1.409   .     S
C1089  C1091   1.408   .     A
C1089  C1121   1.517   .     S
C1089  C1267   1.397   .     S
C1090  C1125   1.519   .     S
C1090  C1092   1.415   .     A
C1090  C1448   1.409   1_545 S
C1093  O1129   1.382   .     S
C1093  N1100   1.356   .     A
C1094  O1131   1.381   .     S
C1094  N1099   1.356   .     A
C1094  C16     1.439   1_556 S
C1095  N1099   1.395   .     A
C1095  C1133   1.513   .     S
C1095  C13     1.439   1_556 S
C1096  N1100   1.395   .     A
C1096  C1137   1.513   .     S
Cu1097 O1105   1.978   .     S
Cu1097 Cu1098  2.705   .     S
Cu1097 N1099   2.033   .     S
Cu1097 O1104   1.952   .     S
Cu1097 O1108   1.972   .     S
Cu1097 O1101   1.960   .     S
Cu1098 O1106   1.978   .     S
Cu1098 N1100   2.033   .     S
Cu1098 O1102   1.960   .     S
Cu1098 O1107   1.972   .     S
Cu1098 O1103   1.952   .     S
C1109  H1112   1.109   .     S
C1109  H1111   1.111   .     S
C1109  C1145   1.522   .     S
C1109  H1170   1.108   .     S
H1110  C1229   1.108   1_455 S
C1113  H1116   1.110   .     S
C1113  H1115   1.109   .     S
C1113  C1206   1.521   1_455 S
C1113  H1234   1.110   1_455 S
H1114  C1173   1.110   .     S
O1117  H1118   0.989   .     S
O1119  H1120   0.988   .     S
C1121  H1122   1.109   .     S
C1121  H1123   1.109   .     S
C1121  H1124   1.110   .     S
C1125  H1126   1.106   .     S
C1125  H1127   1.110   .     S
C1125  H1128   1.111   .     S
O1129  H1130   0.986   .     S
O1131  H1132   0.986   .     S
C1133  H1134   1.084   .     S
C1133  H1135   1.111   .     S
C1133  H1136   1.110   .     S
C1137  H1138   1.111   .     S
C1137  H1139   1.084   .     S
C1137  H1140   1.110   .     S
C1141  O1161   1.297   .     A
C1141  C1152   1.446   .     S
C1141  O1163   1.295   .     A
C1142  O1162   1.297   .     A
C1142  C1151   1.446   .     S
C1142  O1164   1.296   .     A
C1143  O1167   1.299   .     A
C1143  O1165   1.290   .     A
C1143  C1145   1.439   .     S
C1144  O1166   1.289   .     A
C1144  C1146   1.438   .     S
C1144  O1168   1.299   .     A
C1146  C1205   1.361   .     S
C1146  C1233   1.521   .     S
C1147  O1177   1.384   .     S
C1147  C1152   1.416   .     A
C1147  C1509   1.397   1_545 S
C1148  O1179   1.386   .     S
C1148  C1151   1.403   .     A
C1148  C1330   1.409   .     S
C1149  C1151   1.408   .     A
C1149  C1181   1.517   .     S
C1149  C1327   1.397   .     S
C1150  C1185   1.519   .     S
C1150  C1152   1.415   .     A
C1150  C1508   1.409   1_545 S
C1153  O1189   1.382   .     S
C1153  N1160   1.356   .     A
C1154  O1191   1.381   .     S
C1154  N1159   1.356   .     A
C1154  C76     1.439   1_556 S
C1155  N1159   1.395   .     A
C1155  C1193   1.513   .     S
C1155  C73     1.439   1_556 S
C1156  N1160   1.395   .     A
C1156  C1197   1.513   .     S
Cu1157 O1165   1.978   .     S
Cu1157 Cu1158  2.705   .     S
Cu1157 N1159   2.033   .     S
Cu1157 O1164   1.952   .     S
Cu1157 O1168   1.972   .     S
Cu1157 O1161   1.960   .     S
Cu1158 O1166   1.978   .     S
Cu1158 N1160   2.033   .     S
Cu1158 O1162   1.960   .     S
Cu1158 O1167   1.972   .     S
Cu1158 O1163   1.952   .     S
C1169  H1172   1.109   .     S
C1169  H1171   1.111   .     S
C1169  C1205   1.522   .     S
C1169  H1230   1.108   .     S
C1173  H1176   1.110   .     S
C1173  H1175   1.109   .     S
H1174  C1233   1.110   .     S
O1177  H1178   0.989   .     S
O1179  H1180   0.988   .     S
C1181  H1182   1.109   .     S
C1181  H1183   1.109   .     S
C1181  H1184   1.110   .     S
C1185  H1186   1.106   .     S
C1185  H1187   1.110   .     S
C1185  H1188   1.111   .     S
O1189  H1190   0.986   .     S
O1191  H1192   0.986   .     S
C1193  H1194   1.084   .     S
C1193  H1195   1.111   .     S
C1193  H1196   1.110   .     S
C1197  H1198   1.111   .     S
C1197  H1199   1.084   .     S
C1197  H1200   1.110   .     S
C1201  O1221   1.297   .     A
C1201  C1212   1.446   .     S
C1201  O1223   1.295   .     A
C1202  O1222   1.297   .     A
C1202  C1211   1.446   .     S
C1202  O1224   1.296   .     A
C1203  O1227   1.299   .     A
C1203  O1225   1.290   .     A
C1203  C1205   1.439   .     S
C1204  O1226   1.289   .     A
C1204  C1206   1.438   .     S
C1204  O1228   1.299   .     A
C1206  C1085   1.361   1_655 S
C1206  C1113   1.521   1_655 S
C1207  O1237   1.384   .     S
C1207  C1212   1.416   .     A
C1207  C1569   1.397   1_545 S
C1208  O1239   1.386   .     S
C1208  C1211   1.403   .     A
C1208  C1390   1.409   .     S
C1209  C1211   1.408   .     A
C1209  C1241   1.517   .     S
C1209  C1387   1.397   .     S
C1210  C1245   1.519   .     S
C1210  C1212   1.415   .     A
C1210  C1568   1.409   1_545 S
C1213  O1249   1.382   .     S
C1213  N1220   1.356   .     A
C1214  O1251   1.381   .     S
C1214  N1219   1.356   .     A
C1214  C136    1.439   1_556 S
C1215  N1219   1.395   .     A
C1215  C1253   1.513   .     S
C1215  C133    1.439   1_556 S
C1216  N1220   1.395   .     A
C1216  C1257   1.513   .     S
Cu1217 O1225   1.978   .     S
Cu1217 Cu1218  2.705   .     S
Cu1217 N1219   2.033   .     S
Cu1217 O1224   1.952   .     S
Cu1217 O1228   1.972   .     S
Cu1217 O1221   1.960   .     S
Cu1218 O1226   1.978   .     S
Cu1218 N1220   2.033   .     S
Cu1218 O1222   1.960   .     S
Cu1218 O1227   1.972   .     S
Cu1218 O1223   1.952   .     S
C1229  H1232   1.109   .     S
C1229  H1231   1.111   .     S
C1229  C1085   1.522   1_655 S
C1229  H1110   1.108   1_655 S
C1233  H1236   1.110   .     S
C1233  H1235   1.109   .     S
H1234  C1113   1.110   1_655 S
O1237  H1238   0.989   .     S
O1239  H1240   0.988   .     S
C1241  H1242   1.109   .     S
C1241  H1243   1.109   .     S
C1241  H1244   1.110   .     S
C1245  H1246   1.106   .     S
C1245  H1247   1.110   .     S
C1245  H1248   1.111   .     S
O1249  H1250   0.986   .     S
O1251  H1252   0.986   .     S
C1253  H1254   1.084   .     S
C1253  H1255   1.111   .     S
C1253  H1256   1.110   .     S
C1257  H1258   1.111   .     S
C1257  H1259   1.084   .     S
C1257  H1260   1.110   .     S
C1261  O1281   1.297   .     A
C1261  C1272   1.446   .     S
C1261  O1283   1.295   .     A
C1262  O1282   1.297   .     A
C1262  C1271   1.446   .     S
C1262  O1284   1.296   .     A
C1263  O1287   1.299   .     A
C1263  O1285   1.290   .     A
C1263  C1265   1.439   .     S
C1264  O1286   1.289   .     A
C1264  C1266   1.438   .     S
C1264  O1288   1.299   .     A
C1265  C1386   1.361   1_455 S
C1265  C1409   1.522   1_455 S
C1266  C1325   1.361   .     S
C1266  C1353   1.521   .     S
C1267  O1297   1.384   .     S
C1267  C1272   1.416   .     A
C1268  O1299   1.386   .     S
C1268  C1271   1.403   .     A
C1268  C1450   1.409   .     S
C1269  C1271   1.408   .     A
C1269  C1301   1.517   .     S
C1269  C1447   1.397   .     S
C1270  C1305   1.519   .     S
C1270  C1272   1.415   .     A
C1273  O1309   1.382   .     S
C1273  N1280   1.356   .     A
C1274  O1311   1.381   .     S
C1274  N1279   1.356   .     A
C1274  C196    1.439   1_556 S
C1275  N1279   1.395   .     A
C1275  C1313   1.513   .     S
C1275  C193    1.439   1_556 S
C1276  N1280   1.395   .     A
C1276  C1317   1.513   .     S
Cu1277 O1285   1.978   .     S
Cu1277 Cu1278  2.705   .     S
Cu1277 N1279   2.033   .     S
Cu1277 O1284   1.952   .     S
Cu1277 O1288   1.972   .     S
Cu1277 O1281   1.960   .     S
Cu1278 O1286   1.978   .     S
Cu1278 N1280   2.033   .     S
Cu1278 O1282   1.960   .     S
Cu1278 O1287   1.972   .     S
Cu1278 O1283   1.952   .     S
C1289  H1292   1.109   .     S
C1289  H1291   1.111   .     S
C1289  C1325   1.522   .     S
C1289  H1350   1.108   .     S
H1290  C1409   1.108   1_455 S
C1293  H1296   1.110   .     S
C1293  H1295   1.109   .     S
C1293  C1386   1.521   1_455 S
C1293  H1414   1.110   1_455 S
H1294  C1353   1.110   .     S
O1297  H1298   0.989   .     S
O1299  H1300   0.988   .     S
C1301  H1302   1.109   .     S
C1301  H1303   1.109   .     S
C1301  H1304   1.110   .     S
C1305  H1306   1.106   .     S
C1305  H1307   1.110   .     S
C1305  H1308   1.111   .     S
O1309  H1310   0.986   .     S
O1311  H1312   0.986   .     S
C1313  H1314   1.084   .     S
C1313  H1315   1.111   .     S
C1313  H1316   1.110   .     S
C1317  H1318   1.111   .     S
C1317  H1319   1.084   .     S
C1317  H1320   1.110   .     S
C1321  O1341   1.297   .     A
C1321  C1332   1.446   .     S
C1321  O1343   1.295   .     A
C1322  O1342   1.297   .     A
C1322  C1331   1.446   .     S
C1322  O1344   1.296   .     A
C1323  O1347   1.299   .     A
C1323  O1345   1.290   .     A
C1323  C1325   1.439   .     S
C1324  O1346   1.289   .     A
C1324  C1326   1.438   .     S
C1324  O1348   1.299   .     A
C1326  C1385   1.361   .     S
C1326  C1413   1.521   .     S
C1327  O1357   1.384   .     S
C1327  C1332   1.416   .     A
C1328  O1359   1.386   .     S
C1328  C1331   1.403   .     A
C1328  C1510   1.409   .     S
C1329  C1331   1.408   .     A
C1329  C1361   1.517   .     S
C1329  C1507   1.397   .     S
C1330  C1365   1.519   .     S
C1330  C1332   1.415   .     A
C1333  O1369   1.382   .     S
C1333  N1340   1.356   .     A
C1334  O1371   1.381   .     S
C1334  N1339   1.356   .     A
C1334  C256    1.439   1_556 S
C1335  N1339   1.395   .     A
C1335  C1373   1.513   .     S
C1335  C253    1.439   1_556 S
C1336  N1340   1.395   .     A
C1336  C1377   1.513   .     S
Cu1337 O1345   1.978   .     S
Cu1337 Cu1338  2.705   .     S
Cu1337 N1339   2.033   .     S
Cu1337 O1344   1.952   .     S
Cu1337 O1348   1.972   .     S
Cu1337 O1341   1.960   .     S
Cu1338 O1346   1.978   .     S
Cu1338 N1340   2.033   .     S
Cu1338 O1342   1.960   .     S
Cu1338 O1347   1.972   .     S
Cu1338 O1343   1.952   .     S
C1349  H1352   1.109   .     S
C1349  H1351   1.111   .     S
C1349  C1385   1.522   .     S
C1349  H1410   1.108   .     S
C1353  H1356   1.110   .     S
C1353  H1355   1.109   .     S
H1354  C1413   1.110   .     S
O1357  H1358   0.989   .     S
O1359  H1360   0.988   .     S
C1361  H1362   1.109   .     S
C1361  H1363   1.109   .     S
C1361  H1364   1.110   .     S
C1365  H1366   1.106   .     S
C1365  H1367   1.110   .     S
C1365  H1368   1.111   .     S
O1369  H1370   0.986   .     S
O1371  H1372   0.986   .     S
C1373  H1374   1.084   .     S
C1373  H1375   1.111   .     S
C1373  H1376   1.110   .     S
C1377  H1378   1.111   .     S
C1377  H1379   1.084   .     S
C1377  H1380   1.110   .     S
C1381  O1401   1.297   .     A
C1381  C1392   1.446   .     S
C1381  O1403   1.295   .     A
C1382  O1402   1.297   .     A
C1382  C1391   1.446   .     S
C1382  O1404   1.296   .     A
C1383  O1407   1.299   .     A
C1383  O1405   1.290   .     A
C1383  C1385   1.439   .     S
C1384  O1406   1.289   .     A
C1384  C1386   1.438   .     S
C1384  O1408   1.299   .     A
C1386  C1265   1.361   1_655 S
C1386  C1293   1.521   1_655 S
C1387  O1417   1.384   .     S
C1387  C1392   1.416   .     A
C1388  O1419   1.386   .     S
C1388  C1391   1.403   .     A
C1388  C1570   1.409   .     S
C1389  C1391   1.408   .     A
C1389  C1421   1.517   .     S
C1389  C1567   1.397   .     S
C1390  C1425   1.519   .     S
C1390  C1392   1.415   .     A
C1393  O1429   1.382   .     S
C1393  N1400   1.356   .     A
C1394  O1431   1.381   .     S
C1394  N1399   1.356   .     A
C1394  C316    1.439   1_556 S
C1395  N1399   1.395   .     A
C1395  C1433   1.513   .     S
C1395  C313    1.439   1_556 S
C1396  N1400   1.395   .     A
C1396  C1437   1.513   .     S
Cu1397 O1405   1.978   .     S
Cu1397 Cu1398  2.705   .     S
Cu1397 N1399   2.033   .     S
Cu1397 O1404   1.952   .     S
Cu1397 O1408   1.972   .     S
Cu1397 O1401   1.960   .     S
Cu1398 O1406   1.978   .     S
Cu1398 N1400   2.033   .     S
Cu1398 O1402   1.960   .     S
Cu1398 O1407   1.972   .     S
Cu1398 O1403   1.952   .     S
C1409  H1412   1.109   .     S
C1409  H1411   1.111   .     S
C1409  C1265   1.522   1_655 S
C1409  H1290   1.108   1_655 S
C1413  H1416   1.110   .     S
C1413  H1415   1.109   .     S
H1414  C1293   1.110   1_655 S
O1417  H1418   0.989   .     S
O1419  H1420   0.988   .     S
C1421  H1422   1.109   .     S
C1421  H1423   1.109   .     S
C1421  H1424   1.110   .     S
C1425  H1426   1.106   .     S
C1425  H1427   1.110   .     S
C1425  H1428   1.111   .     S
O1429  H1430   0.986   .     S
O1431  H1432   0.986   .     S
C1433  H1434   1.084   .     S
C1433  H1435   1.111   .     S
C1433  H1436   1.110   .     S
C1437  H1438   1.111   .     S
C1437  H1439   1.084   .     S
C1437  H1440   1.110   .     S
C1441  O1461   1.297   .     A
C1441  C1452   1.446   .     S
C1441  O1463   1.295   .     A
C1442  O1462   1.297   .     A
C1442  C1451   1.446   .     S
C1442  O1464   1.296   .     A
C1443  O1467   1.299   .     A
C1443  O1465   1.290   .     A
C1443  C1445   1.439   .     S
C1444  O1466   1.289   .     A
C1444  C1446   1.438   .     S
C1444  O1468   1.299   .     A
C1445  C1566   1.361   1_455 S
C1445  C1589   1.522   1_455 S
C1446  C1505   1.361   .     S
C1446  C1533   1.521   .     S
C1447  O1477   1.384   .     S
C1447  C1452   1.416   .     A
C1448  O1479   1.386   .     S
C1448  C1451   1.403   .     A
C1448  C1090   1.409   1_565 S
C1449  C1451   1.408   .     A
C1449  C1481   1.517   .     S
C1449  C1087   1.397   1_565 S
C1450  C1485   1.519   .     S
C1450  C1452   1.415   .     A
C1453  O1489   1.382   .     S
C1453  N1460   1.356   .     A
C1454  O1491   1.381   .     S
C1454  N1459   1.356   .     A
C1454  C376    1.439   1_556 S
C1455  N1459   1.395   .     A
C1455  C1493   1.513   .     S
C1455  C373    1.439   1_556 S
C1456  N1460   1.395   .     A
C1456  C1497   1.513   .     S
Cu1457 O1465   1.978   .     S
Cu1457 Cu1458  2.705   .     S
Cu1457 N1459   2.033   .     S
Cu1457 O1464   1.952   .     S
Cu1457 O1468   1.972   .     S
Cu1457 O1461   1.960   .     S
Cu1458 O1466   1.978   .     S
Cu1458 N1460   2.033   .     S
Cu1458 O1462   1.960   .     S
Cu1458 O1467   1.972   .     S
Cu1458 O1463   1.952   .     S
C1469  H1472   1.109   .     S
C1469  H1471   1.111   .     S
C1469  C1505   1.522   .     S
C1469  H1530   1.108   .     S
H1470  C1589   1.108   1_455 S
C1473  H1476   1.110   .     S
C1473  H1475   1.109   .     S
C1473  C1566   1.521   1_455 S
C1473  H1594   1.110   1_455 S
H1474  C1533   1.110   .     S
O1477  H1478   0.989   .     S
O1479  H1480   0.988   .     S
C1481  H1482   1.109   .     S
C1481  H1483   1.109   .     S
C1481  H1484   1.110   .     S
C1485  H1486   1.106   .     S
C1485  H1487   1.110   .     S
C1485  H1488   1.111   .     S
O1489  H1490   0.986   .     S
O1491  H1492   0.986   .     S
C1493  H1494   1.084   .     S
C1493  H1495   1.111   .     S
C1493  H1496   1.110   .     S
C1497  H1498   1.111   .     S
C1497  H1499   1.084   .     S
C1497  H1500   1.110   .     S
C1501  O1521   1.297   .     A
C1501  C1512   1.446   .     S
C1501  O1523   1.295   .     A
C1502  O1522   1.297   .     A
C1502  C1511   1.446   .     S
C1502  O1524   1.296   .     A
C1503  O1527   1.299   .     A
C1503  O1525   1.290   .     A
C1503  C1505   1.439   .     S
C1504  O1526   1.289   .     A
C1504  C1506   1.438   .     S
C1504  O1528   1.299   .     A
C1506  C1565   1.361   .     S
C1506  C1593   1.521   .     S
C1507  O1537   1.384   .     S
C1507  C1512   1.416   .     A
C1508  O1539   1.386   .     S
C1508  C1511   1.403   .     A
C1508  C1150   1.409   1_565 S
C1509  C1511   1.408   .     A
C1509  C1541   1.517   .     S
C1509  C1147   1.397   1_565 S
C1510  C1545   1.519   .     S
C1510  C1512   1.415   .     A
C1513  O1549   1.382   .     S
C1513  N1520   1.356   .     A
C1514  O1551   1.381   .     S
C1514  N1519   1.356   .     A
C1514  C436    1.439   1_556 S
C1515  N1519   1.395   .     A
C1515  C1553   1.513   .     S
C1515  C433    1.439   1_556 S
C1516  N1520   1.395   .     A
C1516  C1557   1.513   .     S
Cu1517 O1525   1.978   .     S
Cu1517 Cu1518  2.705   .     S
Cu1517 N1519   2.033   .     S
Cu1517 O1524   1.952   .     S
Cu1517 O1528   1.972   .     S
Cu1517 O1521   1.960   .     S
Cu1518 O1526   1.978   .     S
Cu1518 N1520   2.033   .     S
Cu1518 O1522   1.960   .     S
Cu1518 O1527   1.972   .     S
Cu1518 O1523   1.952   .     S
C1529  H1532   1.109   .     S
C1529  H1531   1.111   .     S
C1529  C1565   1.522   .     S
C1529  H1590   1.108   .     S
C1533  H1536   1.110   .     S
C1533  H1535   1.109   .     S
H1534  C1593   1.110   .     S
O1537  H1538   0.989   .     S
O1539  H1540   0.988   .     S
C1541  H1542   1.109   .     S
C1541  H1543   1.109   .     S
C1541  H1544   1.110   .     S
C1545  H1546   1.106   .     S
C1545  H1547   1.110   .     S
C1545  H1548   1.111   .     S
O1549  H1550   0.986   .     S
O1551  H1552   0.986   .     S
C1553  H1554   1.084   .     S
C1553  H1555   1.111   .     S
C1553  H1556   1.110   .     S
C1557  H1558   1.111   .     S
C1557  H1559   1.084   .     S
C1557  H1560   1.110   .     S
C1561  O1581   1.297   .     A
C1561  C1572   1.446   .     S
C1561  O1583   1.295   .     A
C1562  O1582   1.297   .     A
C1562  C1571   1.446   .     S
C1562  O1584   1.296   .     A
C1563  O1587   1.299   .     A
C1563  O1585   1.290   .     A
C1563  C1565   1.439   .     S
C1564  O1586   1.289   .     A
C1564  C1566   1.438   .     S
C1564  O1588   1.299   .     A
C1566  C1445   1.361   1_655 S
C1566  C1473   1.521   1_655 S
C1567  O1597   1.384   .     S
C1567  C1572   1.416   .     A
C1568  O1599   1.386   .     S
C1568  C1571   1.403   .     A
C1568  C1210   1.409   1_565 S
C1569  C1571   1.408   .     A
C1569  C1601   1.517   .     S
C1569  C1207   1.397   1_565 S
C1570  C1605   1.519   .     S
C1570  C1572   1.415   .     A
C1573  O1609   1.382   .     S
C1573  N1580   1.356   .     A
C1574  O1611   1.381   .     S
C1574  N1579   1.356   .     A
C1574  C496    1.439   1_556 S
C1575  N1579   1.395   .     A
C1575  C1613   1.513   .     S
C1575  C493    1.439   1_556 S
C1576  N1580   1.395   .     A
C1576  C1617   1.513   .     S
Cu1577 O1585   1.978   .     S
Cu1577 Cu1578  2.705   .     S
Cu1577 N1579   2.033   .     S
Cu1577 O1584   1.952   .     S
Cu1577 O1588   1.972   .     S
Cu1577 O1581   1.960   .     S
Cu1578 O1586   1.978   .     S
Cu1578 N1580   2.033   .     S
Cu1578 O1582   1.960   .     S
Cu1578 O1587   1.972   .     S
Cu1578 O1583   1.952   .     S
C1589  H1592   1.109   .     S
C1589  H1591   1.111   .     S
C1589  C1445   1.522   1_655 S
C1589  H1470   1.108   1_655 S
C1593  H1596   1.110   .     S
C1593  H1595   1.109   .     S
H1594  C1473   1.110   1_655 S
O1597  H1598   0.989   .     S
O1599  H1600   0.988   .     S
C1601  H1602   1.109   .     S
C1601  H1603   1.109   .     S
C1601  H1604   1.110   .     S
C1605  H1606   1.106   .     S
C1605  H1607   1.110   .     S
C1605  H1608   1.111   .     S
O1609  H1610   0.986   .     S
O1611  H1612   0.986   .     S
C1613  H1614   1.084   .     S
C1613  H1615   1.111   .     S
C1613  H1616   1.110   .     S
C1617  H1618   1.111   .     S
C1617  H1619   1.084   .     S
C1617  H1620   1.110   .     S
