data_str_m1_o10_o16_pcu_sym.70
_audit_creation_date              2020-01-03
_audit_creation_method            'Materials Studio'
_symmetry_space_group_name_H-M    'P1'
_symmetry_Int_Tables_number       1
_symmetry_cell_setting            triclinic
loop_
_symmetry_equiv_pos_as_xyz
  x,y,z
_cell_length_a                    32.4836
_cell_length_b                    32.6897
_cell_length_c                    30.9420
_cell_angle_alpha                 96.7218
_cell_angle_beta                  75.0507
_cell_angle_gamma                 98.1163
loop_
_atom_site_label
_atom_site_type_symbol
_atom_site_fract_x
_atom_site_fract_y
_atom_site_fract_z
_atom_site_U_iso_or_equiv
_atom_site_adp_type
_atom_site_occupancy
C1     C     0.05271   0.15954   0.26022   0.00000  Uiso   1.00
C2     C     0.17899   0.16583   0.05667   0.00000  Uiso   1.00
C3     C     0.19609   0.09754   0.06349   0.00000  Uiso   1.00
C4     C     0.28069   0.17375   0.24013   0.00000  Uiso   1.00
C5     C     0.14078   0.19261   0.42039   0.00000  Uiso   1.00
C6     C     0.32649   0.17640   0.23628   0.00000  Uiso   1.00
C7     C     0.00745   0.15713   0.26421   0.00000  Uiso   1.00
C8     C     0.17768   0.32190   0.23658   0.00000  Uiso   1.00
C9     C     0.15189   0.01289   0.26666   0.00000  Uiso   1.00
C10    C     0.15675   0.05605   0.25993   0.00000  Uiso   1.00
C11    C     0.17630   0.27784   0.24058   0.00000  Uiso   1.00
C12    C     0.12277   0.24165   0.48550   0.00000  Uiso   1.00
C13    C     0.18506   0.14791   0.12938   0.00000  Uiso   1.00
C14    C     0.14804   0.18416   0.37117   0.00000  Uiso   1.00
C15    C     0.18904   0.08406   0.02148   0.00000  Uiso   1.00
C16    C     0.19077   0.13832   0.08128   0.00000  Uiso   1.00
C17    C     0.12902   0.23152   0.43966   0.00000  Uiso   1.00
C18    C     0.12589   0.00139   0.31150   0.00000  Uiso   1.00
C19    C     0.11251   0.22279   0.06215   0.00000  Uiso   1.00
C20    C     0.13058   0.21426   0.01321   0.00000  Uiso   1.00
C21    C     0.14854   0.17692   0.49342   0.00000  Uiso   1.00
C22    C     0.14796   0.16398   0.44798   0.00000  Uiso   1.00
C23    C     0.16657   0.15151   0.01659   0.00000  Uiso   1.00
C24    C     0.17394   0.11050   0.49810   0.00000  Uiso   1.00
C25    C     0.16557   0.09598   0.45678   0.00000  Uiso   1.00
C26    C     0.15327   0.12239   0.43181   0.00000  Uiso   1.00
H27    H     0.20432   0.07577   0.08288   0.00000  Uiso   1.00
H28    H     0.01538   0.19408   0.21054   0.00000  Uiso   1.00
H29    H     0.12358   0.31124   0.36964   0.00000  Uiso   1.00
H30    H     0.10053   0.26550   0.11505   0.00000  Uiso   1.00
H31    H     0.31929   0.13936   0.29028   0.00000  Uiso   1.00
H32    H     0.19950   0.00148   0.20711   0.00000  Uiso   1.00
H33    H     0.16960   0.06430   0.44313   0.00000  Uiso   1.00
H34    H     0.19377   0.05245   0.00805   0.00000  Uiso   1.00
H35    H     0.17796   0.19767   0.07043   0.00000  Uiso   1.00
H36    H     0.12342   0.25396   0.41932   0.00000  Uiso   1.00
H37    H     0.11017   0.27060   0.49962   0.00000  Uiso   1.00
H38    H     0.14671   0.10915   0.40031   0.00000  Uiso   1.00
O39    O     0.16667   0.16667   0.25000   0.00000  Uiso   1.00
O40    O     0.15451   0.12637   0.15458   0.00000  Uiso   1.00
O41    O     0.12940   0.20391   0.34968   0.00000  Uiso   1.00
O42    O     0.20824   0.17759   0.14606   0.00000  Uiso   1.00
O43    O     0.17451   0.15880   0.34968   0.00000  Uiso   1.00
O44    O     0.08905   0.01005   0.32472   0.00000  Uiso   1.00
O45    O     0.14431   0.31661   0.33965   0.00000  Uiso   1.00
O46    O     0.09476   0.19434   0.08517   0.00000  Uiso   1.00
O47    O     0.11426   0.26362   0.08161   0.00000  Uiso   1.00
O48    O     0.17930   0.08019   0.28213   0.00000  Uiso   1.00
O49    O     0.14632   0.26085   0.27013   0.00000  Uiso   1.00
O50    O     0.07412   0.13291   0.23413   0.00000  Uiso   1.00
O51    O     0.26693   0.19272   0.21360   0.00000  Uiso   1.00
O52    O     0.07071   0.18878   0.28213   0.00000  Uiso   1.00
O53    O     0.25491   0.15226   0.27013   0.00000  Uiso   1.00
O54    O     0.13760   0.06944   0.23413   0.00000  Uiso   1.00
O55    O     0.20345   0.25620   0.21360   0.00000  Uiso   1.00
Zn56   Zn    0.19338   0.13994   0.28734   0.00000  Uiso   1.00
Zn57   Zn    0.13379   0.12458   0.21875   0.00000  Uiso   1.00
Zn58   Zn    0.21056   0.19775   0.20657   0.00000  Uiso   1.00
Zn59   Zn    0.12893   0.20439   0.28733   0.00000  Uiso   1.00
C60    C     0.38605   0.15954   0.26022   0.00000  Uiso   1.00
C61    C     0.51232   0.16583   0.05667   0.00000  Uiso   1.00
C62    C     0.52942   0.09754   0.06349   0.00000  Uiso   1.00
C63    C     0.61403   0.17375   0.24013   0.00000  Uiso   1.00
C64    C     0.47412   0.19261   0.42039   0.00000  Uiso   1.00
C65    C     0.65982   0.17640   0.23628   0.00000  Uiso   1.00
C66    C     0.34078   0.15713   0.26421   0.00000  Uiso   1.00
C67    C     0.51102   0.32190   0.23658   0.00000  Uiso   1.00
C68    C     0.48522   0.01289   0.26666   0.00000  Uiso   1.00
C69    C     0.49008   0.05605   0.25993   0.00000  Uiso   1.00
C70    C     0.50963   0.27784   0.24058   0.00000  Uiso   1.00
C71    C     0.45611   0.24165   0.48550   0.00000  Uiso   1.00
C72    C     0.51839   0.14791   0.12938   0.00000  Uiso   1.00
C73    C     0.48137   0.18416   0.37117   0.00000  Uiso   1.00
C74    C     0.52237   0.08406   0.02148   0.00000  Uiso   1.00
C75    C     0.52410   0.13832   0.08128   0.00000  Uiso   1.00
C76    C     0.46236   0.23152   0.43966   0.00000  Uiso   1.00
C77    C     0.45922   0.00139   0.31150   0.00000  Uiso   1.00
C78    C     0.44584   0.22279   0.06215   0.00000  Uiso   1.00
C79    C     0.46391   0.21426   0.01321   0.00000  Uiso   1.00
C80    C     0.48187   0.17692   0.49342   0.00000  Uiso   1.00
C81    C     0.48129   0.16398   0.44798   0.00000  Uiso   1.00
C82    C     0.49990   0.15151   0.01659   0.00000  Uiso   1.00
C83    C     0.50727   0.11050   0.49810   0.00000  Uiso   1.00
C84    C     0.49890   0.09598   0.45678   0.00000  Uiso   1.00
C85    C     0.48660   0.12239   0.43181   0.00000  Uiso   1.00
H86    H     0.53765   0.07577   0.08288   0.00000  Uiso   1.00
H87    H     0.34872   0.19408   0.21054   0.00000  Uiso   1.00
H88    H     0.45692   0.31124   0.36964   0.00000  Uiso   1.00
H89    H     0.43386   0.26550   0.11505   0.00000  Uiso   1.00
H90    H     0.65263   0.13936   0.29028   0.00000  Uiso   1.00
H91    H     0.53284   0.00148   0.20711   0.00000  Uiso   1.00
H92    H     0.50293   0.06430   0.44313   0.00000  Uiso   1.00
H93    H     0.52711   0.05245   0.00805   0.00000  Uiso   1.00
H94    H     0.51129   0.19767   0.07043   0.00000  Uiso   1.00
H95    H     0.45675   0.25396   0.41932   0.00000  Uiso   1.00
H96    H     0.44350   0.27060   0.49962   0.00000  Uiso   1.00
H97    H     0.48004   0.10915   0.40031   0.00000  Uiso   1.00
O98    O     0.50000   0.16667   0.25000   0.00000  Uiso   1.00
O99    O     0.48784   0.12637   0.15458   0.00000  Uiso   1.00
O100   O     0.46274   0.20391   0.34968   0.00000  Uiso   1.00
O101   O     0.54157   0.17759   0.14606   0.00000  Uiso   1.00
O102   O     0.50785   0.15880   0.34968   0.00000  Uiso   1.00
O103   O     0.42239   0.01005   0.32472   0.00000  Uiso   1.00
O104   O     0.47765   0.31661   0.33965   0.00000  Uiso   1.00
O105   O     0.42809   0.19434   0.08517   0.00000  Uiso   1.00
O106   O     0.44759   0.26362   0.08161   0.00000  Uiso   1.00
O107   O     0.51264   0.08019   0.28213   0.00000  Uiso   1.00
O108   O     0.47965   0.26085   0.27013   0.00000  Uiso   1.00
O109   O     0.40745   0.13291   0.23413   0.00000  Uiso   1.00
O110   O     0.60026   0.19272   0.21360   0.00000  Uiso   1.00
O111   O     0.40405   0.18878   0.28213   0.00000  Uiso   1.00
O112   O     0.58824   0.15226   0.27013   0.00000  Uiso   1.00
O113   O     0.47093   0.06944   0.23413   0.00000  Uiso   1.00
O114   O     0.53678   0.25620   0.21360   0.00000  Uiso   1.00
Zn115  Zn    0.52672   0.13994   0.28734   0.00000  Uiso   1.00
Zn116  Zn    0.46713   0.12458   0.21875   0.00000  Uiso   1.00
Zn117  Zn    0.54389   0.19775   0.20657   0.00000  Uiso   1.00
Zn118  Zn    0.46226   0.20439   0.28733   0.00000  Uiso   1.00
C119   C     0.71938   0.15954   0.26022   0.00000  Uiso   1.00
C120   C     0.84566   0.16583   0.05667   0.00000  Uiso   1.00
C121   C     0.86275   0.09754   0.06349   0.00000  Uiso   1.00
C122   C     0.94736   0.17375   0.24013   0.00000  Uiso   1.00
C123   C     0.80745   0.19261   0.42039   0.00000  Uiso   1.00
C124   C     0.99316   0.17640   0.23628   0.00000  Uiso   1.00
C125   C     0.67412   0.15713   0.26421   0.00000  Uiso   1.00
C126   C     0.84435   0.32190   0.23658   0.00000  Uiso   1.00
C127   C     0.81855   0.01289   0.26666   0.00000  Uiso   1.00
C128   C     0.82341   0.05605   0.25993   0.00000  Uiso   1.00
C129   C     0.84297   0.27784   0.24058   0.00000  Uiso   1.00
C130   C     0.78944   0.24165   0.48550   0.00000  Uiso   1.00
C131   C     0.85173   0.14791   0.12938   0.00000  Uiso   1.00
C132   C     0.81470   0.18416   0.37117   0.00000  Uiso   1.00
C133   C     0.85571   0.08406   0.02148   0.00000  Uiso   1.00
C134   C     0.85743   0.13832   0.08128   0.00000  Uiso   1.00
C135   C     0.79569   0.23152   0.43966   0.00000  Uiso   1.00
C136   C     0.79255   0.00139   0.31150   0.00000  Uiso   1.00
C137   C     0.77918   0.22279   0.06215   0.00000  Uiso   1.00
C138   C     0.79724   0.21426   0.01321   0.00000  Uiso   1.00
C139   C     0.81521   0.17692   0.49342   0.00000  Uiso   1.00
C140   C     0.81463   0.16398   0.44798   0.00000  Uiso   1.00
C141   C     0.83324   0.15151   0.01659   0.00000  Uiso   1.00
C142   C     0.84061   0.11050   0.49810   0.00000  Uiso   1.00
C143   C     0.83223   0.09598   0.45678   0.00000  Uiso   1.00
C144   C     0.81994   0.12239   0.43181   0.00000  Uiso   1.00
H145   H     0.87098   0.07577   0.08288   0.00000  Uiso   1.00
H146   H     0.68205   0.19408   0.21054   0.00000  Uiso   1.00
H147   H     0.79025   0.31124   0.36964   0.00000  Uiso   1.00
H148   H     0.76719   0.26550   0.11505   0.00000  Uiso   1.00
H149   H     0.98596   0.13936   0.29028   0.00000  Uiso   1.00
H150   H     0.86617   0.00148   0.20711   0.00000  Uiso   1.00
H151   H     0.83626   0.06430   0.44313   0.00000  Uiso   1.00
H152   H     0.86044   0.05245   0.00805   0.00000  Uiso   1.00
H153   H     0.84463   0.19767   0.07043   0.00000  Uiso   1.00
H154   H     0.79008   0.25396   0.41932   0.00000  Uiso   1.00
H155   H     0.77683   0.27060   0.49962   0.00000  Uiso   1.00
H156   H     0.81337   0.10915   0.40031   0.00000  Uiso   1.00
O157   O     0.83333   0.16667   0.25000   0.00000  Uiso   1.00
O158   O     0.82118   0.12637   0.15458   0.00000  Uiso   1.00
O159   O     0.79607   0.20391   0.34968   0.00000  Uiso   1.00
O160   O     0.87491   0.17759   0.14606   0.00000  Uiso   1.00
O161   O     0.84118   0.15880   0.34968   0.00000  Uiso   1.00
O162   O     0.75572   0.01005   0.32472   0.00000  Uiso   1.00
O163   O     0.81098   0.31661   0.33965   0.00000  Uiso   1.00
O164   O     0.76143   0.19434   0.08517   0.00000  Uiso   1.00
O165   O     0.78092   0.26362   0.08161   0.00000  Uiso   1.00
O166   O     0.84597   0.08019   0.28213   0.00000  Uiso   1.00
O167   O     0.81298   0.26085   0.27013   0.00000  Uiso   1.00
O168   O     0.74078   0.13291   0.23413   0.00000  Uiso   1.00
O169   O     0.93360   0.19272   0.21360   0.00000  Uiso   1.00
O170   O     0.73738   0.18878   0.28213   0.00000  Uiso   1.00
O171   O     0.92158   0.15226   0.27013   0.00000  Uiso   1.00
O172   O     0.80426   0.06944   0.23413   0.00000  Uiso   1.00
O173   O     0.87012   0.25620   0.21360   0.00000  Uiso   1.00
Zn174  Zn    0.86005   0.13994   0.28734   0.00000  Uiso   1.00
Zn175  Zn    0.80046   0.12458   0.21875   0.00000  Uiso   1.00
Zn176  Zn    0.87723   0.19775   0.20657   0.00000  Uiso   1.00
Zn177  Zn    0.79560   0.20439   0.28733   0.00000  Uiso   1.00
C178   C     0.05271   0.49288   0.26022   0.00000  Uiso   1.00
C179   C     0.17899   0.49916   0.05667   0.00000  Uiso   1.00
C180   C     0.19609   0.43087   0.06349   0.00000  Uiso   1.00
C181   C     0.28069   0.50708   0.24013   0.00000  Uiso   1.00
C182   C     0.14078   0.52594   0.42039   0.00000  Uiso   1.00
C183   C     0.32649   0.50973   0.23628   0.00000  Uiso   1.00
C184   C     0.00745   0.49046   0.26421   0.00000  Uiso   1.00
C185   C     0.17768   0.65523   0.23658   0.00000  Uiso   1.00
C186   C     0.15189   0.34622   0.26666   0.00000  Uiso   1.00
C187   C     0.15675   0.38938   0.25993   0.00000  Uiso   1.00
C188   C     0.17630   0.61117   0.24058   0.00000  Uiso   1.00
C189   C     0.12277   0.57498   0.48550   0.00000  Uiso   1.00
C190   C     0.18506   0.48124   0.12938   0.00000  Uiso   1.00
C191   C     0.14804   0.51750   0.37117   0.00000  Uiso   1.00
C192   C     0.18904   0.41739   0.02148   0.00000  Uiso   1.00
C193   C     0.19077   0.47166   0.08128   0.00000  Uiso   1.00
C194   C     0.12902   0.56485   0.43966   0.00000  Uiso   1.00
C195   C     0.12589   0.33472   0.31150   0.00000  Uiso   1.00
C196   C     0.11251   0.55612   0.06215   0.00000  Uiso   1.00
C197   C     0.13058   0.54759   0.01321   0.00000  Uiso   1.00
C198   C     0.14854   0.51026   0.49342   0.00000  Uiso   1.00
C199   C     0.14796   0.49731   0.44798   0.00000  Uiso   1.00
C200   C     0.16657   0.48485   0.01659   0.00000  Uiso   1.00
C201   C     0.17394   0.44383   0.49810   0.00000  Uiso   1.00
C202   C     0.16557   0.42932   0.45678   0.00000  Uiso   1.00
C203   C     0.15327   0.45573   0.43181   0.00000  Uiso   1.00
H204   H     0.20432   0.40910   0.08288   0.00000  Uiso   1.00
H205   H     0.01538   0.52742   0.21054   0.00000  Uiso   1.00
H206   H     0.12358   0.64457   0.36964   0.00000  Uiso   1.00
H207   H     0.10053   0.59884   0.11505   0.00000  Uiso   1.00
H208   H     0.31929   0.47269   0.29028   0.00000  Uiso   1.00
H209   H     0.19950   0.33481   0.20711   0.00000  Uiso   1.00
H210   H     0.16960   0.39763   0.44313   0.00000  Uiso   1.00
H211   H     0.19377   0.38579   0.00805   0.00000  Uiso   1.00
H212   H     0.17796   0.53100   0.07043   0.00000  Uiso   1.00
H213   H     0.12342   0.58730   0.41932   0.00000  Uiso   1.00
H214   H     0.11017   0.60393   0.49962   0.00000  Uiso   1.00
H215   H     0.14671   0.44249   0.40031   0.00000  Uiso   1.00
O216   O     0.16667   0.50000   0.25000   0.00000  Uiso   1.00
O217   O     0.15451   0.45970   0.15458   0.00000  Uiso   1.00
O218   O     0.12940   0.53724   0.34968   0.00000  Uiso   1.00
O219   O     0.20824   0.51092   0.14606   0.00000  Uiso   1.00
O220   O     0.17451   0.49213   0.34968   0.00000  Uiso   1.00
O221   O     0.08905   0.34338   0.32472   0.00000  Uiso   1.00
O222   O     0.14431   0.64995   0.33965   0.00000  Uiso   1.00
O223   O     0.09476   0.52767   0.08517   0.00000  Uiso   1.00
O224   O     0.11426   0.59696   0.08161   0.00000  Uiso   1.00
O225   O     0.17930   0.41352   0.28213   0.00000  Uiso   1.00
O226   O     0.14632   0.59418   0.27013   0.00000  Uiso   1.00
O227   O     0.07412   0.46625   0.23413   0.00000  Uiso   1.00
O228   O     0.26693   0.52605   0.21360   0.00000  Uiso   1.00
O229   O     0.07071   0.52211   0.28213   0.00000  Uiso   1.00
O230   O     0.25491   0.48559   0.27013   0.00000  Uiso   1.00
O231   O     0.13760   0.40277   0.23413   0.00000  Uiso   1.00
O232   O     0.20345   0.58953   0.21360   0.00000  Uiso   1.00
Zn233  Zn    0.19338   0.47327   0.28734   0.00000  Uiso   1.00
Zn234  Zn    0.13379   0.45791   0.21875   0.00000  Uiso   1.00
Zn235  Zn    0.21056   0.53109   0.20657   0.00000  Uiso   1.00
Zn236  Zn    0.12893   0.53773   0.28733   0.00000  Uiso   1.00
C237   C     0.38605   0.49288   0.26022   0.00000  Uiso   1.00
C238   C     0.51232   0.49916   0.05667   0.00000  Uiso   1.00
C239   C     0.52942   0.43087   0.06349   0.00000  Uiso   1.00
C240   C     0.61403   0.50708   0.24013   0.00000  Uiso   1.00
C241   C     0.47412   0.52594   0.42039   0.00000  Uiso   1.00
C242   C     0.65982   0.50973   0.23628   0.00000  Uiso   1.00
C243   C     0.34078   0.49046   0.26421   0.00000  Uiso   1.00
C244   C     0.51102   0.65523   0.23658   0.00000  Uiso   1.00
C245   C     0.48522   0.34622   0.26666   0.00000  Uiso   1.00
C246   C     0.49008   0.38938   0.25993   0.00000  Uiso   1.00
C247   C     0.50963   0.61117   0.24058   0.00000  Uiso   1.00
C248   C     0.45611   0.57498   0.48550   0.00000  Uiso   1.00
C249   C     0.51839   0.48124   0.12938   0.00000  Uiso   1.00
C250   C     0.48137   0.51750   0.37117   0.00000  Uiso   1.00
C251   C     0.52237   0.41739   0.02148   0.00000  Uiso   1.00
C252   C     0.52410   0.47166   0.08128   0.00000  Uiso   1.00
C253   C     0.46236   0.56485   0.43966   0.00000  Uiso   1.00
C254   C     0.45922   0.33472   0.31150   0.00000  Uiso   1.00
C255   C     0.44584   0.55612   0.06215   0.00000  Uiso   1.00
C256   C     0.46391   0.54759   0.01321   0.00000  Uiso   1.00
C257   C     0.48187   0.51026   0.49342   0.00000  Uiso   1.00
C258   C     0.48129   0.49731   0.44798   0.00000  Uiso   1.00
C259   C     0.49990   0.48485   0.01659   0.00000  Uiso   1.00
C260   C     0.50727   0.44383   0.49810   0.00000  Uiso   1.00
C261   C     0.49890   0.42932   0.45678   0.00000  Uiso   1.00
C262   C     0.48660   0.45573   0.43181   0.00000  Uiso   1.00
H263   H     0.53765   0.40910   0.08288   0.00000  Uiso   1.00
H264   H     0.34872   0.52742   0.21054   0.00000  Uiso   1.00
H265   H     0.45692   0.64457   0.36964   0.00000  Uiso   1.00
H266   H     0.43386   0.59884   0.11505   0.00000  Uiso   1.00
H267   H     0.65263   0.47269   0.29028   0.00000  Uiso   1.00
H268   H     0.53284   0.33481   0.20711   0.00000  Uiso   1.00
H269   H     0.50293   0.39763   0.44313   0.00000  Uiso   1.00
H270   H     0.52711   0.38579   0.00805   0.00000  Uiso   1.00
H271   H     0.51129   0.53100   0.07043   0.00000  Uiso   1.00
H272   H     0.45675   0.58730   0.41932   0.00000  Uiso   1.00
H273   H     0.44350   0.60393   0.49962   0.00000  Uiso   1.00
H274   H     0.48004   0.44249   0.40031   0.00000  Uiso   1.00
O275   O     0.50000   0.50000   0.25000   0.00000  Uiso   1.00
O276   O     0.48784   0.45970   0.15458   0.00000  Uiso   1.00
O277   O     0.46274   0.53724   0.34968   0.00000  Uiso   1.00
O278   O     0.54157   0.51092   0.14606   0.00000  Uiso   1.00
O279   O     0.50785   0.49213   0.34968   0.00000  Uiso   1.00
O280   O     0.42239   0.34338   0.32472   0.00000  Uiso   1.00
O281   O     0.47765   0.64995   0.33965   0.00000  Uiso   1.00
O282   O     0.42809   0.52767   0.08517   0.00000  Uiso   1.00
O283   O     0.44759   0.59696   0.08161   0.00000  Uiso   1.00
O284   O     0.51264   0.41352   0.28213   0.00000  Uiso   1.00
O285   O     0.47965   0.59418   0.27013   0.00000  Uiso   1.00
O286   O     0.40745   0.46625   0.23413   0.00000  Uiso   1.00
O287   O     0.60026   0.52605   0.21360   0.00000  Uiso   1.00
O288   O     0.40405   0.52211   0.28213   0.00000  Uiso   1.00
O289   O     0.58824   0.48559   0.27013   0.00000  Uiso   1.00
O290   O     0.47093   0.40277   0.23413   0.00000  Uiso   1.00
O291   O     0.53678   0.58953   0.21360   0.00000  Uiso   1.00
Zn292  Zn    0.52672   0.47327   0.28734   0.00000  Uiso   1.00
Zn293  Zn    0.46713   0.45791   0.21875   0.00000  Uiso   1.00
Zn294  Zn    0.54389   0.53109   0.20657   0.00000  Uiso   1.00
Zn295  Zn    0.46226   0.53773   0.28733   0.00000  Uiso   1.00
C296   C     0.71938   0.49288   0.26022   0.00000  Uiso   1.00
C297   C     0.84566   0.49916   0.05667   0.00000  Uiso   1.00
C298   C     0.86275   0.43087   0.06349   0.00000  Uiso   1.00
C299   C     0.94736   0.50708   0.24013   0.00000  Uiso   1.00
C300   C     0.80745   0.52594   0.42039   0.00000  Uiso   1.00
C301   C     0.99316   0.50973   0.23628   0.00000  Uiso   1.00
C302   C     0.67412   0.49046   0.26421   0.00000  Uiso   1.00
C303   C     0.84435   0.65523   0.23658   0.00000  Uiso   1.00
C304   C     0.81855   0.34622   0.26666   0.00000  Uiso   1.00
C305   C     0.82341   0.38938   0.25993   0.00000  Uiso   1.00
C306   C     0.84297   0.61117   0.24058   0.00000  Uiso   1.00
C307   C     0.78944   0.57498   0.48550   0.00000  Uiso   1.00
C308   C     0.85173   0.48124   0.12938   0.00000  Uiso   1.00
C309   C     0.81470   0.51750   0.37117   0.00000  Uiso   1.00
C310   C     0.85571   0.41739   0.02148   0.00000  Uiso   1.00
C311   C     0.85743   0.47166   0.08128   0.00000  Uiso   1.00
C312   C     0.79569   0.56485   0.43966   0.00000  Uiso   1.00
C313   C     0.79255   0.33472   0.31150   0.00000  Uiso   1.00
C314   C     0.77918   0.55612   0.06215   0.00000  Uiso   1.00
C315   C     0.79724   0.54759   0.01321   0.00000  Uiso   1.00
C316   C     0.81521   0.51026   0.49342   0.00000  Uiso   1.00
C317   C     0.81463   0.49731   0.44798   0.00000  Uiso   1.00
C318   C     0.83324   0.48485   0.01659   0.00000  Uiso   1.00
C319   C     0.84061   0.44383   0.49810   0.00000  Uiso   1.00
C320   C     0.83223   0.42932   0.45678   0.00000  Uiso   1.00
C321   C     0.81994   0.45573   0.43181   0.00000  Uiso   1.00
H322   H     0.87098   0.40910   0.08288   0.00000  Uiso   1.00
H323   H     0.68205   0.52742   0.21054   0.00000  Uiso   1.00
H324   H     0.79025   0.64457   0.36964   0.00000  Uiso   1.00
H325   H     0.76719   0.59884   0.11505   0.00000  Uiso   1.00
H326   H     0.98596   0.47269   0.29028   0.00000  Uiso   1.00
H327   H     0.86617   0.33481   0.20711   0.00000  Uiso   1.00
H328   H     0.83626   0.39763   0.44313   0.00000  Uiso   1.00
H329   H     0.86044   0.38579   0.00805   0.00000  Uiso   1.00
H330   H     0.84463   0.53100   0.07043   0.00000  Uiso   1.00
H331   H     0.79008   0.58730   0.41932   0.00000  Uiso   1.00
H332   H     0.77683   0.60393   0.49962   0.00000  Uiso   1.00
H333   H     0.81337   0.44249   0.40031   0.00000  Uiso   1.00
O334   O     0.83333   0.50000   0.25000   0.00000  Uiso   1.00
O335   O     0.82118   0.45970   0.15458   0.00000  Uiso   1.00
O336   O     0.79607   0.53724   0.34968   0.00000  Uiso   1.00
O337   O     0.87491   0.51092   0.14606   0.00000  Uiso   1.00
O338   O     0.84118   0.49213   0.34968   0.00000  Uiso   1.00
O339   O     0.75572   0.34338   0.32472   0.00000  Uiso   1.00
O340   O     0.81098   0.64995   0.33965   0.00000  Uiso   1.00
O341   O     0.76143   0.52767   0.08517   0.00000  Uiso   1.00
O342   O     0.78092   0.59696   0.08161   0.00000  Uiso   1.00
O343   O     0.84597   0.41352   0.28213   0.00000  Uiso   1.00
O344   O     0.81298   0.59418   0.27013   0.00000  Uiso   1.00
O345   O     0.74078   0.46625   0.23413   0.00000  Uiso   1.00
O346   O     0.93360   0.52605   0.21360   0.00000  Uiso   1.00
O347   O     0.73738   0.52211   0.28213   0.00000  Uiso   1.00
O348   O     0.92158   0.48559   0.27013   0.00000  Uiso   1.00
O349   O     0.80426   0.40277   0.23413   0.00000  Uiso   1.00
O350   O     0.87012   0.58953   0.21360   0.00000  Uiso   1.00
Zn351  Zn    0.86005   0.47327   0.28734   0.00000  Uiso   1.00
Zn352  Zn    0.80046   0.45791   0.21875   0.00000  Uiso   1.00
Zn353  Zn    0.87723   0.53109   0.20657   0.00000  Uiso   1.00
Zn354  Zn    0.79560   0.53773   0.28733   0.00000  Uiso   1.00
C355   C     0.05271   0.82621   0.26022   0.00000  Uiso   1.00
C356   C     0.17899   0.83249   0.05667   0.00000  Uiso   1.00
C357   C     0.19609   0.76421   0.06349   0.00000  Uiso   1.00
C358   C     0.28069   0.84041   0.24013   0.00000  Uiso   1.00
C359   C     0.14078   0.85927   0.42039   0.00000  Uiso   1.00
C360   C     0.32649   0.84306   0.23628   0.00000  Uiso   1.00
C361   C     0.00745   0.82380   0.26421   0.00000  Uiso   1.00
C362   C     0.17768   0.98856   0.23658   0.00000  Uiso   1.00
C363   C     0.15189   0.67955   0.26666   0.00000  Uiso   1.00
C364   C     0.15675   0.72271   0.25993   0.00000  Uiso   1.00
C365   C     0.17630   0.94451   0.24058   0.00000  Uiso   1.00
C366   C     0.12277   0.90831   0.48550   0.00000  Uiso   1.00
C367   C     0.18506   0.81457   0.12938   0.00000  Uiso   1.00
C368   C     0.14804   0.85083   0.37117   0.00000  Uiso   1.00
C369   C     0.18904   0.75073   0.02148   0.00000  Uiso   1.00
C370   C     0.19077   0.80499   0.08128   0.00000  Uiso   1.00
C371   C     0.12902   0.89818   0.43966   0.00000  Uiso   1.00
C372   C     0.12589   0.66805   0.31150   0.00000  Uiso   1.00
C373   C     0.11251   0.88946   0.06215   0.00000  Uiso   1.00
C374   C     0.13058   0.88093   0.01321   0.00000  Uiso   1.00
C375   C     0.14854   0.84359   0.49342   0.00000  Uiso   1.00
C376   C     0.14796   0.83064   0.44798   0.00000  Uiso   1.00
C377   C     0.16657   0.81818   0.01659   0.00000  Uiso   1.00
C378   C     0.17394   0.77716   0.49810   0.00000  Uiso   1.00
C379   C     0.16557   0.76265   0.45678   0.00000  Uiso   1.00
C380   C     0.15327   0.78906   0.43181   0.00000  Uiso   1.00
H381   H     0.20432   0.74244   0.08288   0.00000  Uiso   1.00
H382   H     0.01538   0.86075   0.21054   0.00000  Uiso   1.00
H383   H     0.12358   0.97791   0.36964   0.00000  Uiso   1.00
H384   H     0.10053   0.93217   0.11505   0.00000  Uiso   1.00
H385   H     0.31929   0.80603   0.29028   0.00000  Uiso   1.00
H386   H     0.19950   0.66814   0.20711   0.00000  Uiso   1.00
H387   H     0.16960   0.73096   0.44313   0.00000  Uiso   1.00
H388   H     0.19377   0.71912   0.00805   0.00000  Uiso   1.00
H389   H     0.17796   0.86434   0.07043   0.00000  Uiso   1.00
H390   H     0.12342   0.92063   0.41932   0.00000  Uiso   1.00
H391   H     0.11017   0.93726   0.49962   0.00000  Uiso   1.00
H392   H     0.14671   0.77582   0.40031   0.00000  Uiso   1.00
O393   O     0.16667   0.83333   0.25000   0.00000  Uiso   1.00
O394   O     0.15451   0.79304   0.15458   0.00000  Uiso   1.00
O395   O     0.12940   0.87058   0.34968   0.00000  Uiso   1.00
O396   O     0.20824   0.84425   0.14606   0.00000  Uiso   1.00
O397   O     0.17451   0.82546   0.34968   0.00000  Uiso   1.00
O398   O     0.08905   0.67671   0.32472   0.00000  Uiso   1.00
O399   O     0.14431   0.98328   0.33965   0.00000  Uiso   1.00
O400   O     0.09476   0.86100   0.08517   0.00000  Uiso   1.00
O401   O     0.11426   0.93029   0.08161   0.00000  Uiso   1.00
O402   O     0.17930   0.74686   0.28213   0.00000  Uiso   1.00
O403   O     0.14632   0.92751   0.27013   0.00000  Uiso   1.00
O404   O     0.07412   0.79958   0.23413   0.00000  Uiso   1.00
O405   O     0.26693   0.85939   0.21360   0.00000  Uiso   1.00
O406   O     0.07071   0.85544   0.28213   0.00000  Uiso   1.00
O407   O     0.25491   0.81892   0.27013   0.00000  Uiso   1.00
O408   O     0.13760   0.73610   0.23413   0.00000  Uiso   1.00
O409   O     0.20345   0.92286   0.21360   0.00000  Uiso   1.00
Zn410  Zn    0.19338   0.80661   0.28734   0.00000  Uiso   1.00
Zn411  Zn    0.13379   0.79124   0.21875   0.00000  Uiso   1.00
Zn412  Zn    0.21056   0.86442   0.20657   0.00000  Uiso   1.00
Zn413  Zn    0.12893   0.87106   0.28733   0.00000  Uiso   1.00
C414   C     0.38605   0.82621   0.26022   0.00000  Uiso   1.00
C415   C     0.51232   0.83249   0.05667   0.00000  Uiso   1.00
C416   C     0.52942   0.76421   0.06349   0.00000  Uiso   1.00
C417   C     0.61403   0.84041   0.24013   0.00000  Uiso   1.00
C418   C     0.47412   0.85927   0.42039   0.00000  Uiso   1.00
C419   C     0.65982   0.84306   0.23628   0.00000  Uiso   1.00
C420   C     0.34078   0.82380   0.26421   0.00000  Uiso   1.00
C421   C     0.51102   0.98856   0.23658   0.00000  Uiso   1.00
C422   C     0.48522   0.67955   0.26666   0.00000  Uiso   1.00
C423   C     0.49008   0.72271   0.25993   0.00000  Uiso   1.00
C424   C     0.50963   0.94451   0.24058   0.00000  Uiso   1.00
C425   C     0.45611   0.90831   0.48550   0.00000  Uiso   1.00
C426   C     0.51839   0.81457   0.12938   0.00000  Uiso   1.00
C427   C     0.48137   0.85083   0.37117   0.00000  Uiso   1.00
C428   C     0.52237   0.75073   0.02148   0.00000  Uiso   1.00
C429   C     0.52410   0.80499   0.08128   0.00000  Uiso   1.00
C430   C     0.46236   0.89818   0.43966   0.00000  Uiso   1.00
C431   C     0.45922   0.66805   0.31150   0.00000  Uiso   1.00
C432   C     0.44584   0.88946   0.06215   0.00000  Uiso   1.00
C433   C     0.46391   0.88093   0.01321   0.00000  Uiso   1.00
C434   C     0.48187   0.84359   0.49342   0.00000  Uiso   1.00
C435   C     0.48129   0.83064   0.44798   0.00000  Uiso   1.00
C436   C     0.49990   0.81818   0.01659   0.00000  Uiso   1.00
C437   C     0.50727   0.77716   0.49810   0.00000  Uiso   1.00
C438   C     0.49890   0.76265   0.45678   0.00000  Uiso   1.00
C439   C     0.48660   0.78906   0.43181   0.00000  Uiso   1.00
H440   H     0.53765   0.74244   0.08288   0.00000  Uiso   1.00
H441   H     0.34872   0.86075   0.21054   0.00000  Uiso   1.00
H442   H     0.45692   0.97791   0.36964   0.00000  Uiso   1.00
H443   H     0.43386   0.93217   0.11505   0.00000  Uiso   1.00
H444   H     0.65263   0.80603   0.29028   0.00000  Uiso   1.00
H445   H     0.53284   0.66814   0.20711   0.00000  Uiso   1.00
H446   H     0.50293   0.73096   0.44313   0.00000  Uiso   1.00
H447   H     0.52711   0.71912   0.00805   0.00000  Uiso   1.00
H448   H     0.51129   0.86434   0.07043   0.00000  Uiso   1.00
H449   H     0.45675   0.92063   0.41932   0.00000  Uiso   1.00
H450   H     0.44350   0.93726   0.49962   0.00000  Uiso   1.00
H451   H     0.48004   0.77582   0.40031   0.00000  Uiso   1.00
O452   O     0.50000   0.83333   0.25000   0.00000  Uiso   1.00
O453   O     0.48784   0.79304   0.15458   0.00000  Uiso   1.00
O454   O     0.46274   0.87058   0.34968   0.00000  Uiso   1.00
O455   O     0.54157   0.84425   0.14606   0.00000  Uiso   1.00
O456   O     0.50785   0.82546   0.34968   0.00000  Uiso   1.00
O457   O     0.42239   0.67671   0.32472   0.00000  Uiso   1.00
O458   O     0.47765   0.98328   0.33965   0.00000  Uiso   1.00
O459   O     0.42809   0.86100   0.08517   0.00000  Uiso   1.00
O460   O     0.44759   0.93029   0.08161   0.00000  Uiso   1.00
O461   O     0.51264   0.74686   0.28213   0.00000  Uiso   1.00
O462   O     0.47965   0.92751   0.27013   0.00000  Uiso   1.00
O463   O     0.40745   0.79958   0.23413   0.00000  Uiso   1.00
O464   O     0.60026   0.85939   0.21360   0.00000  Uiso   1.00
O465   O     0.40405   0.85544   0.28213   0.00000  Uiso   1.00
O466   O     0.58824   0.81892   0.27013   0.00000  Uiso   1.00
O467   O     0.47093   0.73610   0.23413   0.00000  Uiso   1.00
O468   O     0.53678   0.92286   0.21360   0.00000  Uiso   1.00
Zn469  Zn    0.52672   0.80661   0.28734   0.00000  Uiso   1.00
Zn470  Zn    0.46713   0.79124   0.21875   0.00000  Uiso   1.00
Zn471  Zn    0.54389   0.86442   0.20657   0.00000  Uiso   1.00
Zn472  Zn    0.46226   0.87106   0.28733   0.00000  Uiso   1.00
C473   C     0.71938   0.82621   0.26022   0.00000  Uiso   1.00
C474   C     0.84566   0.83249   0.05667   0.00000  Uiso   1.00
C475   C     0.86275   0.76421   0.06349   0.00000  Uiso   1.00
C476   C     0.94736   0.84041   0.24013   0.00000  Uiso   1.00
C477   C     0.80745   0.85927   0.42039   0.00000  Uiso   1.00
C478   C     0.99316   0.84306   0.23628   0.00000  Uiso   1.00
C479   C     0.67412   0.82380   0.26421   0.00000  Uiso   1.00
C480   C     0.84435   0.98856   0.23658   0.00000  Uiso   1.00
C481   C     0.81855   0.67955   0.26666   0.00000  Uiso   1.00
C482   C     0.82341   0.72271   0.25993   0.00000  Uiso   1.00
C483   C     0.84297   0.94451   0.24058   0.00000  Uiso   1.00
C484   C     0.78944   0.90831   0.48550   0.00000  Uiso   1.00
C485   C     0.85173   0.81457   0.12938   0.00000  Uiso   1.00
C486   C     0.81470   0.85083   0.37117   0.00000  Uiso   1.00
C487   C     0.85571   0.75073   0.02148   0.00000  Uiso   1.00
C488   C     0.85743   0.80499   0.08128   0.00000  Uiso   1.00
C489   C     0.79569   0.89818   0.43966   0.00000  Uiso   1.00
C490   C     0.79255   0.66805   0.31150   0.00000  Uiso   1.00
C491   C     0.77918   0.88946   0.06215   0.00000  Uiso   1.00
C492   C     0.79724   0.88093   0.01321   0.00000  Uiso   1.00
C493   C     0.81521   0.84359   0.49342   0.00000  Uiso   1.00
C494   C     0.81463   0.83064   0.44798   0.00000  Uiso   1.00
C495   C     0.83324   0.81818   0.01659   0.00000  Uiso   1.00
C496   C     0.84061   0.77716   0.49810   0.00000  Uiso   1.00
C497   C     0.83223   0.76265   0.45678   0.00000  Uiso   1.00
C498   C     0.81994   0.78906   0.43181   0.00000  Uiso   1.00
H499   H     0.87098   0.74244   0.08288   0.00000  Uiso   1.00
H500   H     0.68205   0.86075   0.21054   0.00000  Uiso   1.00
H501   H     0.79025   0.97791   0.36964   0.00000  Uiso   1.00
H502   H     0.76719   0.93217   0.11505   0.00000  Uiso   1.00
H503   H     0.98596   0.80603   0.29028   0.00000  Uiso   1.00
H504   H     0.86617   0.66814   0.20711   0.00000  Uiso   1.00
H505   H     0.83626   0.73096   0.44313   0.00000  Uiso   1.00
H506   H     0.86044   0.71912   0.00805   0.00000  Uiso   1.00
H507   H     0.84463   0.86434   0.07043   0.00000  Uiso   1.00
H508   H     0.79008   0.92063   0.41932   0.00000  Uiso   1.00
H509   H     0.77683   0.93726   0.49962   0.00000  Uiso   1.00
H510   H     0.81337   0.77582   0.40031   0.00000  Uiso   1.00
O511   O     0.83333   0.83333   0.25000   0.00000  Uiso   1.00
O512   O     0.82118   0.79304   0.15458   0.00000  Uiso   1.00
O513   O     0.79607   0.87058   0.34968   0.00000  Uiso   1.00
O514   O     0.87491   0.84425   0.14606   0.00000  Uiso   1.00
O515   O     0.84118   0.82546   0.34968   0.00000  Uiso   1.00
O516   O     0.75572   0.67671   0.32472   0.00000  Uiso   1.00
O517   O     0.81098   0.98328   0.33965   0.00000  Uiso   1.00
O518   O     0.76143   0.86100   0.08517   0.00000  Uiso   1.00
O519   O     0.78092   0.93029   0.08161   0.00000  Uiso   1.00
O520   O     0.84597   0.74686   0.28213   0.00000  Uiso   1.00
O521   O     0.81298   0.92751   0.27013   0.00000  Uiso   1.00
O522   O     0.74078   0.79958   0.23413   0.00000  Uiso   1.00
O523   O     0.93360   0.85939   0.21360   0.00000  Uiso   1.00
O524   O     0.73738   0.85544   0.28213   0.00000  Uiso   1.00
O525   O     0.92158   0.81892   0.27013   0.00000  Uiso   1.00
O526   O     0.80426   0.73610   0.23413   0.00000  Uiso   1.00
O527   O     0.87012   0.92286   0.21360   0.00000  Uiso   1.00
Zn528  Zn    0.86005   0.80661   0.28734   0.00000  Uiso   1.00
Zn529  Zn    0.80046   0.79124   0.21875   0.00000  Uiso   1.00
Zn530  Zn    0.87723   0.86442   0.20657   0.00000  Uiso   1.00
Zn531  Zn    0.79560   0.87106   0.28733   0.00000  Uiso   1.00
C532   C     0.05271   0.15954   0.76022   0.00000  Uiso   1.00
C533   C     0.17899   0.16583   0.55667   0.00000  Uiso   1.00
C534   C     0.19609   0.09754   0.56349   0.00000  Uiso   1.00
C535   C     0.28069   0.17375   0.74013   0.00000  Uiso   1.00
C536   C     0.14078   0.19261   0.92039   0.00000  Uiso   1.00
C537   C     0.32649   0.17640   0.73628   0.00000  Uiso   1.00
C538   C     0.00745   0.15713   0.76421   0.00000  Uiso   1.00
C539   C     0.17768   0.32190   0.73658   0.00000  Uiso   1.00
C540   C     0.15189   0.01289   0.76666   0.00000  Uiso   1.00
C541   C     0.15675   0.05605   0.75993   0.00000  Uiso   1.00
C542   C     0.17630   0.27784   0.74058   0.00000  Uiso   1.00
C543   C     0.12277   0.24165   0.98550   0.00000  Uiso   1.00
C544   C     0.18506   0.14791   0.62938   0.00000  Uiso   1.00
C545   C     0.14804   0.18416   0.87117   0.00000  Uiso   1.00
C546   C     0.18904   0.08406   0.52148   0.00000  Uiso   1.00
C547   C     0.19077   0.13832   0.58128   0.00000  Uiso   1.00
C548   C     0.12902   0.23152   0.93966   0.00000  Uiso   1.00
C549   C     0.12589   0.00139   0.81150   0.00000  Uiso   1.00
C550   C     0.11251   0.22279   0.56215   0.00000  Uiso   1.00
C551   C     0.13058   0.21426   0.51321   0.00000  Uiso   1.00
C552   C     0.14854   0.17692   0.99342   0.00000  Uiso   1.00
C553   C     0.14796   0.16398   0.94798   0.00000  Uiso   1.00
C554   C     0.16657   0.15151   0.51659   0.00000  Uiso   1.00
C555   C     0.17394   0.11050   0.99810   0.00000  Uiso   1.00
C556   C     0.16557   0.09598   0.95678   0.00000  Uiso   1.00
C557   C     0.15327   0.12239   0.93181   0.00000  Uiso   1.00
H558   H     0.20432   0.07577   0.58288   0.00000  Uiso   1.00
H559   H     0.01538   0.19408   0.71054   0.00000  Uiso   1.00
H560   H     0.12358   0.31124   0.86964   0.00000  Uiso   1.00
H561   H     0.10053   0.26550   0.61505   0.00000  Uiso   1.00
H562   H     0.31929   0.13936   0.79028   0.00000  Uiso   1.00
H563   H     0.19950   0.00148   0.70711   0.00000  Uiso   1.00
H564   H     0.16960   0.06430   0.94313   0.00000  Uiso   1.00
H565   H     0.19377   0.05245   0.50805   0.00000  Uiso   1.00
H566   H     0.17796   0.19767   0.57043   0.00000  Uiso   1.00
H567   H     0.12342   0.25396   0.91932   0.00000  Uiso   1.00
H568   H     0.11017   0.27060   0.99962   0.00000  Uiso   1.00
H569   H     0.14671   0.10915   0.90031   0.00000  Uiso   1.00
O570   O     0.16667   0.16667   0.75000   0.00000  Uiso   1.00
O571   O     0.15451   0.12637   0.65458   0.00000  Uiso   1.00
O572   O     0.12940   0.20391   0.84968   0.00000  Uiso   1.00
O573   O     0.20824   0.17759   0.64606   0.00000  Uiso   1.00
O574   O     0.17451   0.15880   0.84968   0.00000  Uiso   1.00
O575   O     0.08905   0.01005   0.82472   0.00000  Uiso   1.00
O576   O     0.14431   0.31661   0.83965   0.00000  Uiso   1.00
O577   O     0.09476   0.19434   0.58517   0.00000  Uiso   1.00
O578   O     0.11426   0.26362   0.58161   0.00000  Uiso   1.00
O579   O     0.17930   0.08019   0.78213   0.00000  Uiso   1.00
O580   O     0.14632   0.26085   0.77013   0.00000  Uiso   1.00
O581   O     0.07412   0.13291   0.73413   0.00000  Uiso   1.00
O582   O     0.26693   0.19272   0.71360   0.00000  Uiso   1.00
O583   O     0.07071   0.18878   0.78213   0.00000  Uiso   1.00
O584   O     0.25491   0.15226   0.77013   0.00000  Uiso   1.00
O585   O     0.13760   0.06944   0.73413   0.00000  Uiso   1.00
O586   O     0.20345   0.25620   0.71360   0.00000  Uiso   1.00
Zn587  Zn    0.19338   0.13994   0.78734   0.00000  Uiso   1.00
Zn588  Zn    0.13379   0.12458   0.71875   0.00000  Uiso   1.00
Zn589  Zn    0.21056   0.19775   0.70657   0.00000  Uiso   1.00
Zn590  Zn    0.12893   0.20439   0.78733   0.00000  Uiso   1.00
C591   C     0.38605   0.15954   0.76022   0.00000  Uiso   1.00
C592   C     0.51232   0.16583   0.55667   0.00000  Uiso   1.00
C593   C     0.52942   0.09754   0.56349   0.00000  Uiso   1.00
C594   C     0.61403   0.17375   0.74013   0.00000  Uiso   1.00
C595   C     0.47412   0.19261   0.92039   0.00000  Uiso   1.00
C596   C     0.65982   0.17640   0.73628   0.00000  Uiso   1.00
C597   C     0.34078   0.15713   0.76421   0.00000  Uiso   1.00
C598   C     0.51102   0.32190   0.73658   0.00000  Uiso   1.00
C599   C     0.48522   0.01289   0.76666   0.00000  Uiso   1.00
C600   C     0.49008   0.05605   0.75993   0.00000  Uiso   1.00
C601   C     0.50963   0.27784   0.74058   0.00000  Uiso   1.00
C602   C     0.45611   0.24165   0.98550   0.00000  Uiso   1.00
C603   C     0.51839   0.14791   0.62938   0.00000  Uiso   1.00
C604   C     0.48137   0.18416   0.87117   0.00000  Uiso   1.00
C605   C     0.52237   0.08406   0.52148   0.00000  Uiso   1.00
C606   C     0.52410   0.13832   0.58128   0.00000  Uiso   1.00
C607   C     0.46236   0.23152   0.93966   0.00000  Uiso   1.00
C608   C     0.45922   0.00139   0.81150   0.00000  Uiso   1.00
C609   C     0.44584   0.22279   0.56215   0.00000  Uiso   1.00
C610   C     0.46391   0.21426   0.51321   0.00000  Uiso   1.00
C611   C     0.48187   0.17692   0.99342   0.00000  Uiso   1.00
C612   C     0.48129   0.16398   0.94798   0.00000  Uiso   1.00
C613   C     0.49990   0.15151   0.51659   0.00000  Uiso   1.00
C614   C     0.50727   0.11050   0.99810   0.00000  Uiso   1.00
C615   C     0.49890   0.09598   0.95678   0.00000  Uiso   1.00
C616   C     0.48660   0.12239   0.93181   0.00000  Uiso   1.00
H617   H     0.53765   0.07577   0.58288   0.00000  Uiso   1.00
H618   H     0.34872   0.19408   0.71054   0.00000  Uiso   1.00
H619   H     0.45692   0.31124   0.86964   0.00000  Uiso   1.00
H620   H     0.43386   0.26550   0.61505   0.00000  Uiso   1.00
H621   H     0.65263   0.13936   0.79028   0.00000  Uiso   1.00
H622   H     0.53284   0.00148   0.70711   0.00000  Uiso   1.00
H623   H     0.50293   0.06430   0.94313   0.00000  Uiso   1.00
H624   H     0.52711   0.05245   0.50805   0.00000  Uiso   1.00
H625   H     0.51129   0.19767   0.57043   0.00000  Uiso   1.00
H626   H     0.45675   0.25396   0.91932   0.00000  Uiso   1.00
H627   H     0.44350   0.27060   0.99962   0.00000  Uiso   1.00
H628   H     0.48004   0.10915   0.90031   0.00000  Uiso   1.00
O629   O     0.50000   0.16667   0.75000   0.00000  Uiso   1.00
O630   O     0.48784   0.12637   0.65458   0.00000  Uiso   1.00
O631   O     0.46274   0.20391   0.84968   0.00000  Uiso   1.00
O632   O     0.54157   0.17759   0.64606   0.00000  Uiso   1.00
O633   O     0.50785   0.15880   0.84968   0.00000  Uiso   1.00
O634   O     0.42239   0.01005   0.82472   0.00000  Uiso   1.00
O635   O     0.47765   0.31661   0.83965   0.00000  Uiso   1.00
O636   O     0.42809   0.19434   0.58517   0.00000  Uiso   1.00
O637   O     0.44759   0.26362   0.58161   0.00000  Uiso   1.00
O638   O     0.51264   0.08019   0.78213   0.00000  Uiso   1.00
O639   O     0.47965   0.26085   0.77013   0.00000  Uiso   1.00
O640   O     0.40745   0.13291   0.73413   0.00000  Uiso   1.00
O641   O     0.60026   0.19272   0.71360   0.00000  Uiso   1.00
O642   O     0.40405   0.18878   0.78213   0.00000  Uiso   1.00
O643   O     0.58824   0.15226   0.77013   0.00000  Uiso   1.00
O644   O     0.47093   0.06944   0.73413   0.00000  Uiso   1.00
O645   O     0.53678   0.25620   0.71360   0.00000  Uiso   1.00
Zn646  Zn    0.52672   0.13994   0.78734   0.00000  Uiso   1.00
Zn647  Zn    0.46713   0.12458   0.71875   0.00000  Uiso   1.00
Zn648  Zn    0.54389   0.19775   0.70657   0.00000  Uiso   1.00
Zn649  Zn    0.46226   0.20439   0.78733   0.00000  Uiso   1.00
C650   C     0.71938   0.15954   0.76022   0.00000  Uiso   1.00
C651   C     0.84566   0.16583   0.55667   0.00000  Uiso   1.00
C652   C     0.86275   0.09754   0.56349   0.00000  Uiso   1.00
C653   C     0.94736   0.17375   0.74013   0.00000  Uiso   1.00
C654   C     0.80745   0.19261   0.92039   0.00000  Uiso   1.00
C655   C     0.99316   0.17640   0.73628   0.00000  Uiso   1.00
C656   C     0.67412   0.15713   0.76421   0.00000  Uiso   1.00
C657   C     0.84435   0.32190   0.73658   0.00000  Uiso   1.00
C658   C     0.81855   0.01289   0.76666   0.00000  Uiso   1.00
C659   C     0.82341   0.05605   0.75993   0.00000  Uiso   1.00
C660   C     0.84297   0.27784   0.74058   0.00000  Uiso   1.00
C661   C     0.78944   0.24165   0.98550   0.00000  Uiso   1.00
C662   C     0.85173   0.14791   0.62938   0.00000  Uiso   1.00
C663   C     0.81470   0.18416   0.87117   0.00000  Uiso   1.00
C664   C     0.85571   0.08406   0.52148   0.00000  Uiso   1.00
C665   C     0.85743   0.13832   0.58128   0.00000  Uiso   1.00
C666   C     0.79569   0.23152   0.93966   0.00000  Uiso   1.00
C667   C     0.79255   0.00139   0.81150   0.00000  Uiso   1.00
C668   C     0.77918   0.22279   0.56215   0.00000  Uiso   1.00
C669   C     0.79724   0.21426   0.51321   0.00000  Uiso   1.00
C670   C     0.81521   0.17692   0.99342   0.00000  Uiso   1.00
C671   C     0.81463   0.16398   0.94798   0.00000  Uiso   1.00
C672   C     0.83324   0.15151   0.51659   0.00000  Uiso   1.00
C673   C     0.84061   0.11050   0.99810   0.00000  Uiso   1.00
C674   C     0.83223   0.09598   0.95678   0.00000  Uiso   1.00
C675   C     0.81994   0.12239   0.93181   0.00000  Uiso   1.00
H676   H     0.87098   0.07577   0.58288   0.00000  Uiso   1.00
H677   H     0.68205   0.19408   0.71054   0.00000  Uiso   1.00
H678   H     0.79025   0.31124   0.86964   0.00000  Uiso   1.00
H679   H     0.76719   0.26550   0.61505   0.00000  Uiso   1.00
H680   H     0.98596   0.13936   0.79028   0.00000  Uiso   1.00
H681   H     0.86617   0.00148   0.70711   0.00000  Uiso   1.00
H682   H     0.83626   0.06430   0.94313   0.00000  Uiso   1.00
H683   H     0.86044   0.05245   0.50805   0.00000  Uiso   1.00
H684   H     0.84463   0.19767   0.57043   0.00000  Uiso   1.00
H685   H     0.79008   0.25396   0.91932   0.00000  Uiso   1.00
H686   H     0.77683   0.27060   0.99962   0.00000  Uiso   1.00
H687   H     0.81337   0.10915   0.90031   0.00000  Uiso   1.00
O688   O     0.83333   0.16667   0.75000   0.00000  Uiso   1.00
O689   O     0.82118   0.12637   0.65458   0.00000  Uiso   1.00
O690   O     0.79607   0.20391   0.84968   0.00000  Uiso   1.00
O691   O     0.87491   0.17759   0.64606   0.00000  Uiso   1.00
O692   O     0.84118   0.15880   0.84968   0.00000  Uiso   1.00
O693   O     0.75572   0.01005   0.82472   0.00000  Uiso   1.00
O694   O     0.81098   0.31661   0.83965   0.00000  Uiso   1.00
O695   O     0.76143   0.19434   0.58517   0.00000  Uiso   1.00
O696   O     0.78092   0.26362   0.58161   0.00000  Uiso   1.00
O697   O     0.84597   0.08019   0.78213   0.00000  Uiso   1.00
O698   O     0.81298   0.26085   0.77013   0.00000  Uiso   1.00
O699   O     0.74078   0.13291   0.73413   0.00000  Uiso   1.00
O700   O     0.93360   0.19272   0.71360   0.00000  Uiso   1.00
O701   O     0.73738   0.18878   0.78213   0.00000  Uiso   1.00
O702   O     0.92158   0.15226   0.77013   0.00000  Uiso   1.00
O703   O     0.80426   0.06944   0.73413   0.00000  Uiso   1.00
O704   O     0.87012   0.25620   0.71360   0.00000  Uiso   1.00
Zn705  Zn    0.86005   0.13994   0.78734   0.00000  Uiso   1.00
Zn706  Zn    0.80046   0.12458   0.71875   0.00000  Uiso   1.00
Zn707  Zn    0.87723   0.19775   0.70657   0.00000  Uiso   1.00
Zn708  Zn    0.79560   0.20439   0.78733   0.00000  Uiso   1.00
C709   C     0.05271   0.49288   0.76022   0.00000  Uiso   1.00
C710   C     0.17899   0.49916   0.55667   0.00000  Uiso   1.00
C711   C     0.19609   0.43087   0.56349   0.00000  Uiso   1.00
C712   C     0.28069   0.50708   0.74013   0.00000  Uiso   1.00
C713   C     0.14078   0.52594   0.92039   0.00000  Uiso   1.00
C714   C     0.32649   0.50973   0.73628   0.00000  Uiso   1.00
C715   C     0.00745   0.49046   0.76421   0.00000  Uiso   1.00
C716   C     0.17768   0.65523   0.73658   0.00000  Uiso   1.00
C717   C     0.15189   0.34622   0.76666   0.00000  Uiso   1.00
C718   C     0.15675   0.38938   0.75993   0.00000  Uiso   1.00
C719   C     0.17630   0.61117   0.74058   0.00000  Uiso   1.00
C720   C     0.12277   0.57498   0.98550   0.00000  Uiso   1.00
C721   C     0.18506   0.48124   0.62938   0.00000  Uiso   1.00
C722   C     0.14804   0.51750   0.87117   0.00000  Uiso   1.00
C723   C     0.18904   0.41739   0.52148   0.00000  Uiso   1.00
C724   C     0.19077   0.47166   0.58128   0.00000  Uiso   1.00
C725   C     0.12902   0.56485   0.93966   0.00000  Uiso   1.00
C726   C     0.12589   0.33472   0.81150   0.00000  Uiso   1.00
C727   C     0.11251   0.55612   0.56215   0.00000  Uiso   1.00
C728   C     0.13058   0.54759   0.51321   0.00000  Uiso   1.00
C729   C     0.14854   0.51026   0.99342   0.00000  Uiso   1.00
C730   C     0.14796   0.49731   0.94798   0.00000  Uiso   1.00
C731   C     0.16657   0.48485   0.51659   0.00000  Uiso   1.00
C732   C     0.17394   0.44383   0.99810   0.00000  Uiso   1.00
C733   C     0.16557   0.42932   0.95678   0.00000  Uiso   1.00
C734   C     0.15327   0.45573   0.93181   0.00000  Uiso   1.00
H735   H     0.20432   0.40910   0.58288   0.00000  Uiso   1.00
H736   H     0.01538   0.52742   0.71054   0.00000  Uiso   1.00
H737   H     0.12358   0.64457   0.86964   0.00000  Uiso   1.00
H738   H     0.10053   0.59884   0.61505   0.00000  Uiso   1.00
H739   H     0.31929   0.47269   0.79028   0.00000  Uiso   1.00
H740   H     0.19950   0.33481   0.70711   0.00000  Uiso   1.00
H741   H     0.16960   0.39763   0.94313   0.00000  Uiso   1.00
H742   H     0.19377   0.38579   0.50805   0.00000  Uiso   1.00
H743   H     0.17796   0.53100   0.57043   0.00000  Uiso   1.00
H744   H     0.12342   0.58730   0.91932   0.00000  Uiso   1.00
H745   H     0.11017   0.60393   0.99962   0.00000  Uiso   1.00
H746   H     0.14671   0.44249   0.90031   0.00000  Uiso   1.00
O747   O     0.16667   0.50000   0.75000   0.00000  Uiso   1.00
O748   O     0.15451   0.45970   0.65458   0.00000  Uiso   1.00
O749   O     0.12940   0.53724   0.84968   0.00000  Uiso   1.00
O750   O     0.20824   0.51092   0.64606   0.00000  Uiso   1.00
O751   O     0.17451   0.49213   0.84968   0.00000  Uiso   1.00
O752   O     0.08905   0.34338   0.82472   0.00000  Uiso   1.00
O753   O     0.14431   0.64995   0.83965   0.00000  Uiso   1.00
O754   O     0.09476   0.52767   0.58517   0.00000  Uiso   1.00
O755   O     0.11426   0.59696   0.58161   0.00000  Uiso   1.00
O756   O     0.17930   0.41352   0.78213   0.00000  Uiso   1.00
O757   O     0.14632   0.59418   0.77013   0.00000  Uiso   1.00
O758   O     0.07412   0.46625   0.73413   0.00000  Uiso   1.00
O759   O     0.26693   0.52605   0.71360   0.00000  Uiso   1.00
O760   O     0.07071   0.52211   0.78213   0.00000  Uiso   1.00
O761   O     0.25491   0.48559   0.77013   0.00000  Uiso   1.00
O762   O     0.13760   0.40277   0.73413   0.00000  Uiso   1.00
O763   O     0.20345   0.58953   0.71360   0.00000  Uiso   1.00
Zn764  Zn    0.19338   0.47327   0.78734   0.00000  Uiso   1.00
Zn765  Zn    0.13379   0.45791   0.71875   0.00000  Uiso   1.00
Zn766  Zn    0.21056   0.53109   0.70657   0.00000  Uiso   1.00
Zn767  Zn    0.12893   0.53773   0.78733   0.00000  Uiso   1.00
C768   C     0.38605   0.49288   0.76022   0.00000  Uiso   1.00
C769   C     0.51232   0.49916   0.55667   0.00000  Uiso   1.00
C770   C     0.52942   0.43087   0.56349   0.00000  Uiso   1.00
C771   C     0.61403   0.50708   0.74013   0.00000  Uiso   1.00
C772   C     0.47412   0.52594   0.92039   0.00000  Uiso   1.00
C773   C     0.65982   0.50973   0.73628   0.00000  Uiso   1.00
C774   C     0.34078   0.49046   0.76421   0.00000  Uiso   1.00
C775   C     0.51102   0.65523   0.73658   0.00000  Uiso   1.00
C776   C     0.48522   0.34622   0.76666   0.00000  Uiso   1.00
C777   C     0.49008   0.38938   0.75993   0.00000  Uiso   1.00
C778   C     0.50963   0.61117   0.74058   0.00000  Uiso   1.00
C779   C     0.45611   0.57498   0.98550   0.00000  Uiso   1.00
C780   C     0.51839   0.48124   0.62938   0.00000  Uiso   1.00
C781   C     0.48137   0.51750   0.87117   0.00000  Uiso   1.00
C782   C     0.52237   0.41739   0.52148   0.00000  Uiso   1.00
C783   C     0.52410   0.47166   0.58128   0.00000  Uiso   1.00
C784   C     0.46236   0.56485   0.93966   0.00000  Uiso   1.00
C785   C     0.45922   0.33472   0.81150   0.00000  Uiso   1.00
C786   C     0.44584   0.55612   0.56215   0.00000  Uiso   1.00
C787   C     0.46391   0.54759   0.51321   0.00000  Uiso   1.00
C788   C     0.48187   0.51026   0.99342   0.00000  Uiso   1.00
C789   C     0.48129   0.49731   0.94798   0.00000  Uiso   1.00
C790   C     0.49990   0.48485   0.51659   0.00000  Uiso   1.00
C791   C     0.50727   0.44383   0.99810   0.00000  Uiso   1.00
C792   C     0.49890   0.42932   0.95678   0.00000  Uiso   1.00
C793   C     0.48660   0.45573   0.93181   0.00000  Uiso   1.00
H794   H     0.53765   0.40910   0.58288   0.00000  Uiso   1.00
H795   H     0.34872   0.52742   0.71054   0.00000  Uiso   1.00
H796   H     0.45692   0.64457   0.86964   0.00000  Uiso   1.00
H797   H     0.43386   0.59884   0.61505   0.00000  Uiso   1.00
H798   H     0.65263   0.47269   0.79028   0.00000  Uiso   1.00
H799   H     0.53284   0.33481   0.70711   0.00000  Uiso   1.00
H800   H     0.50293   0.39763   0.94313   0.00000  Uiso   1.00
H801   H     0.52711   0.38579   0.50805   0.00000  Uiso   1.00
H802   H     0.51129   0.53100   0.57043   0.00000  Uiso   1.00
H803   H     0.45675   0.58730   0.91932   0.00000  Uiso   1.00
H804   H     0.44350   0.60393   0.99962   0.00000  Uiso   1.00
H805   H     0.48004   0.44249   0.90031   0.00000  Uiso   1.00
O806   O     0.50000   0.50000   0.75000   0.00000  Uiso   1.00
O807   O     0.48784   0.45970   0.65458   0.00000  Uiso   1.00
O808   O     0.46274   0.53724   0.84968   0.00000  Uiso   1.00
O809   O     0.54157   0.51092   0.64606   0.00000  Uiso   1.00
O810   O     0.50785   0.49213   0.84968   0.00000  Uiso   1.00
O811   O     0.42239   0.34338   0.82472   0.00000  Uiso   1.00
O812   O     0.47765   0.64995   0.83965   0.00000  Uiso   1.00
O813   O     0.42809   0.52767   0.58517   0.00000  Uiso   1.00
O814   O     0.44759   0.59696   0.58161   0.00000  Uiso   1.00
O815   O     0.51264   0.41352   0.78213   0.00000  Uiso   1.00
O816   O     0.47965   0.59418   0.77013   0.00000  Uiso   1.00
O817   O     0.40745   0.46625   0.73413   0.00000  Uiso   1.00
O818   O     0.60026   0.52605   0.71360   0.00000  Uiso   1.00
O819   O     0.40405   0.52211   0.78213   0.00000  Uiso   1.00
O820   O     0.58824   0.48559   0.77013   0.00000  Uiso   1.00
O821   O     0.47093   0.40277   0.73413   0.00000  Uiso   1.00
O822   O     0.53678   0.58953   0.71360   0.00000  Uiso   1.00
Zn823  Zn    0.52672   0.47327   0.78734   0.00000  Uiso   1.00
Zn824  Zn    0.46713   0.45791   0.71875   0.00000  Uiso   1.00
Zn825  Zn    0.54389   0.53109   0.70657   0.00000  Uiso   1.00
Zn826  Zn    0.46226   0.53773   0.78733   0.00000  Uiso   1.00
C827   C     0.71938   0.49288   0.76022   0.00000  Uiso   1.00
C828   C     0.84566   0.49916   0.55667   0.00000  Uiso   1.00
C829   C     0.86275   0.43087   0.56349   0.00000  Uiso   1.00
C830   C     0.94736   0.50708   0.74013   0.00000  Uiso   1.00
C831   C     0.80745   0.52594   0.92039   0.00000  Uiso   1.00
C832   C     0.99316   0.50973   0.73628   0.00000  Uiso   1.00
C833   C     0.67412   0.49046   0.76421   0.00000  Uiso   1.00
C834   C     0.84435   0.65523   0.73658   0.00000  Uiso   1.00
C835   C     0.81855   0.34622   0.76666   0.00000  Uiso   1.00
C836   C     0.82341   0.38938   0.75993   0.00000  Uiso   1.00
C837   C     0.84297   0.61117   0.74058   0.00000  Uiso   1.00
C838   C     0.78944   0.57498   0.98550   0.00000  Uiso   1.00
C839   C     0.85173   0.48124   0.62938   0.00000  Uiso   1.00
C840   C     0.81470   0.51750   0.87117   0.00000  Uiso   1.00
C841   C     0.85571   0.41739   0.52148   0.00000  Uiso   1.00
C842   C     0.85743   0.47166   0.58128   0.00000  Uiso   1.00
C843   C     0.79569   0.56485   0.93966   0.00000  Uiso   1.00
C844   C     0.79255   0.33472   0.81150   0.00000  Uiso   1.00
C845   C     0.77918   0.55612   0.56215   0.00000  Uiso   1.00
C846   C     0.79724   0.54759   0.51321   0.00000  Uiso   1.00
C847   C     0.81521   0.51026   0.99342   0.00000  Uiso   1.00
C848   C     0.81463   0.49731   0.94798   0.00000  Uiso   1.00
C849   C     0.83324   0.48485   0.51659   0.00000  Uiso   1.00
C850   C     0.84061   0.44383   0.99810   0.00000  Uiso   1.00
C851   C     0.83223   0.42932   0.95678   0.00000  Uiso   1.00
C852   C     0.81994   0.45573   0.93181   0.00000  Uiso   1.00
H853   H     0.87098   0.40910   0.58288   0.00000  Uiso   1.00
H854   H     0.68205   0.52742   0.71054   0.00000  Uiso   1.00
H855   H     0.79025   0.64457   0.86964   0.00000  Uiso   1.00
H856   H     0.76719   0.59884   0.61505   0.00000  Uiso   1.00
H857   H     0.98596   0.47269   0.79028   0.00000  Uiso   1.00
H858   H     0.86617   0.33481   0.70711   0.00000  Uiso   1.00
H859   H     0.83626   0.39763   0.94313   0.00000  Uiso   1.00
H860   H     0.86044   0.38579   0.50805   0.00000  Uiso   1.00
H861   H     0.84463   0.53100   0.57043   0.00000  Uiso   1.00
H862   H     0.79008   0.58730   0.91932   0.00000  Uiso   1.00
H863   H     0.77683   0.60393   0.99962   0.00000  Uiso   1.00
H864   H     0.81337   0.44249   0.90031   0.00000  Uiso   1.00
O865   O     0.83333   0.50000   0.75000   0.00000  Uiso   1.00
O866   O     0.82118   0.45970   0.65458   0.00000  Uiso   1.00
O867   O     0.79607   0.53724   0.84968   0.00000  Uiso   1.00
O868   O     0.87491   0.51092   0.64606   0.00000  Uiso   1.00
O869   O     0.84118   0.49213   0.84968   0.00000  Uiso   1.00
O870   O     0.75572   0.34338   0.82472   0.00000  Uiso   1.00
O871   O     0.81098   0.64995   0.83965   0.00000  Uiso   1.00
O872   O     0.76143   0.52767   0.58517   0.00000  Uiso   1.00
O873   O     0.78092   0.59696   0.58161   0.00000  Uiso   1.00
O874   O     0.84597   0.41352   0.78213   0.00000  Uiso   1.00
O875   O     0.81298   0.59418   0.77013   0.00000  Uiso   1.00
O876   O     0.74078   0.46625   0.73413   0.00000  Uiso   1.00
O877   O     0.93360   0.52605   0.71360   0.00000  Uiso   1.00
O878   O     0.73738   0.52211   0.78213   0.00000  Uiso   1.00
O879   O     0.92158   0.48559   0.77013   0.00000  Uiso   1.00
O880   O     0.80426   0.40277   0.73413   0.00000  Uiso   1.00
O881   O     0.87012   0.58953   0.71360   0.00000  Uiso   1.00
Zn882  Zn    0.86005   0.47327   0.78734   0.00000  Uiso   1.00
Zn883  Zn    0.80046   0.45791   0.71875   0.00000  Uiso   1.00
Zn884  Zn    0.87723   0.53109   0.70657   0.00000  Uiso   1.00
Zn885  Zn    0.79560   0.53773   0.78733   0.00000  Uiso   1.00
C886   C     0.05271   0.82621   0.76022   0.00000  Uiso   1.00
C887   C     0.17899   0.83249   0.55667   0.00000  Uiso   1.00
C888   C     0.19609   0.76421   0.56349   0.00000  Uiso   1.00
C889   C     0.28069   0.84041   0.74013   0.00000  Uiso   1.00
C890   C     0.14078   0.85927   0.92039   0.00000  Uiso   1.00
C891   C     0.32649   0.84306   0.73628   0.00000  Uiso   1.00
C892   C     0.00745   0.82380   0.76421   0.00000  Uiso   1.00
C893   C     0.17768   0.98856   0.73658   0.00000  Uiso   1.00
C894   C     0.15189   0.67955   0.76666   0.00000  Uiso   1.00
C895   C     0.15675   0.72271   0.75993   0.00000  Uiso   1.00
C896   C     0.17630   0.94451   0.74058   0.00000  Uiso   1.00
C897   C     0.12277   0.90831   0.98550   0.00000  Uiso   1.00
C898   C     0.18506   0.81457   0.62938   0.00000  Uiso   1.00
C899   C     0.14804   0.85083   0.87117   0.00000  Uiso   1.00
C900   C     0.18904   0.75073   0.52148   0.00000  Uiso   1.00
C901   C     0.19077   0.80499   0.58128   0.00000  Uiso   1.00
C902   C     0.12902   0.89818   0.93966   0.00000  Uiso   1.00
C903   C     0.12589   0.66805   0.81150   0.00000  Uiso   1.00
C904   C     0.11251   0.88946   0.56215   0.00000  Uiso   1.00
C905   C     0.13058   0.88093   0.51321   0.00000  Uiso   1.00
C906   C     0.14854   0.84359   0.99342   0.00000  Uiso   1.00
C907   C     0.14796   0.83064   0.94798   0.00000  Uiso   1.00
C908   C     0.16657   0.81818   0.51659   0.00000  Uiso   1.00
C909   C     0.17394   0.77716   0.99810   0.00000  Uiso   1.00
C910   C     0.16557   0.76265   0.95678   0.00000  Uiso   1.00
C911   C     0.15327   0.78906   0.93181   0.00000  Uiso   1.00
H912   H     0.20432   0.74244   0.58288   0.00000  Uiso   1.00
H913   H     0.01538   0.86075   0.71054   0.00000  Uiso   1.00
H914   H     0.12358   0.97791   0.86964   0.00000  Uiso   1.00
H915   H     0.10053   0.93217   0.61505   0.00000  Uiso   1.00
H916   H     0.31929   0.80603   0.79028   0.00000  Uiso   1.00
H917   H     0.19950   0.66814   0.70711   0.00000  Uiso   1.00
H918   H     0.16960   0.73096   0.94313   0.00000  Uiso   1.00
H919   H     0.19377   0.71912   0.50805   0.00000  Uiso   1.00
H920   H     0.17796   0.86434   0.57043   0.00000  Uiso   1.00
H921   H     0.12342   0.92063   0.91932   0.00000  Uiso   1.00
H922   H     0.11017   0.93726   0.99962   0.00000  Uiso   1.00
H923   H     0.14671   0.77582   0.90031   0.00000  Uiso   1.00
O924   O     0.16667   0.83333   0.75000   0.00000  Uiso   1.00
O925   O     0.15451   0.79304   0.65458   0.00000  Uiso   1.00
O926   O     0.12940   0.87058   0.84968   0.00000  Uiso   1.00
O927   O     0.20824   0.84425   0.64606   0.00000  Uiso   1.00
O928   O     0.17451   0.82546   0.84968   0.00000  Uiso   1.00
O929   O     0.08905   0.67671   0.82472   0.00000  Uiso   1.00
O930   O     0.14431   0.98328   0.83965   0.00000  Uiso   1.00
O931   O     0.09476   0.86100   0.58517   0.00000  Uiso   1.00
O932   O     0.11426   0.93029   0.58161   0.00000  Uiso   1.00
O933   O     0.17930   0.74686   0.78213   0.00000  Uiso   1.00
O934   O     0.14632   0.92751   0.77013   0.00000  Uiso   1.00
O935   O     0.07412   0.79958   0.73413   0.00000  Uiso   1.00
O936   O     0.26693   0.85939   0.71360   0.00000  Uiso   1.00
O937   O     0.07071   0.85544   0.78213   0.00000  Uiso   1.00
O938   O     0.25491   0.81892   0.77013   0.00000  Uiso   1.00
O939   O     0.13760   0.73610   0.73413   0.00000  Uiso   1.00
O940   O     0.20345   0.92286   0.71360   0.00000  Uiso   1.00
Zn941  Zn    0.19338   0.80661   0.78734   0.00000  Uiso   1.00
Zn942  Zn    0.13379   0.79124   0.71875   0.00000  Uiso   1.00
Zn943  Zn    0.21056   0.86442   0.70657   0.00000  Uiso   1.00
Zn944  Zn    0.12893   0.87106   0.78733   0.00000  Uiso   1.00
C945   C     0.38605   0.82621   0.76022   0.00000  Uiso   1.00
C946   C     0.51232   0.83249   0.55667   0.00000  Uiso   1.00
C947   C     0.52942   0.76421   0.56349   0.00000  Uiso   1.00
C948   C     0.61403   0.84041   0.74013   0.00000  Uiso   1.00
C949   C     0.47412   0.85927   0.92039   0.00000  Uiso   1.00
C950   C     0.65982   0.84306   0.73628   0.00000  Uiso   1.00
C951   C     0.34078   0.82380   0.76421   0.00000  Uiso   1.00
C952   C     0.51102   0.98856   0.73658   0.00000  Uiso   1.00
C953   C     0.48522   0.67955   0.76666   0.00000  Uiso   1.00
C954   C     0.49008   0.72271   0.75993   0.00000  Uiso   1.00
C955   C     0.50963   0.94451   0.74058   0.00000  Uiso   1.00
C956   C     0.45611   0.90831   0.98550   0.00000  Uiso   1.00
C957   C     0.51839   0.81457   0.62938   0.00000  Uiso   1.00
C958   C     0.48137   0.85083   0.87117   0.00000  Uiso   1.00
C959   C     0.52237   0.75073   0.52148   0.00000  Uiso   1.00
C960   C     0.52410   0.80499   0.58128   0.00000  Uiso   1.00
C961   C     0.46236   0.89818   0.93966   0.00000  Uiso   1.00
C962   C     0.45922   0.66805   0.81150   0.00000  Uiso   1.00
C963   C     0.44584   0.88946   0.56215   0.00000  Uiso   1.00
C964   C     0.46391   0.88093   0.51321   0.00000  Uiso   1.00
C965   C     0.48187   0.84359   0.99342   0.00000  Uiso   1.00
C966   C     0.48129   0.83064   0.94798   0.00000  Uiso   1.00
C967   C     0.49990   0.81818   0.51659   0.00000  Uiso   1.00
C968   C     0.50727   0.77716   0.99810   0.00000  Uiso   1.00
C969   C     0.49890   0.76265   0.95678   0.00000  Uiso   1.00
C970   C     0.48660   0.78906   0.93181   0.00000  Uiso   1.00
H971   H     0.53765   0.74244   0.58288   0.00000  Uiso   1.00
H972   H     0.34872   0.86075   0.71054   0.00000  Uiso   1.00
H973   H     0.45692   0.97791   0.86964   0.00000  Uiso   1.00
H974   H     0.43386   0.93217   0.61505   0.00000  Uiso   1.00
H975   H     0.65263   0.80603   0.79028   0.00000  Uiso   1.00
H976   H     0.53284   0.66814   0.70711   0.00000  Uiso   1.00
H977   H     0.50293   0.73096   0.94313   0.00000  Uiso   1.00
H978   H     0.52711   0.71912   0.50805   0.00000  Uiso   1.00
H979   H     0.51129   0.86434   0.57043   0.00000  Uiso   1.00
H980   H     0.45675   0.92063   0.91932   0.00000  Uiso   1.00
H981   H     0.44350   0.93726   0.99962   0.00000  Uiso   1.00
H982   H     0.48004   0.77582   0.90031   0.00000  Uiso   1.00
O983   O     0.50000   0.83333   0.75000   0.00000  Uiso   1.00
O984   O     0.48784   0.79304   0.65458   0.00000  Uiso   1.00
O985   O     0.46274   0.87058   0.84968   0.00000  Uiso   1.00
O986   O     0.54157   0.84425   0.64606   0.00000  Uiso   1.00
O987   O     0.50785   0.82546   0.84968   0.00000  Uiso   1.00
O988   O     0.42239   0.67671   0.82472   0.00000  Uiso   1.00
O989   O     0.47765   0.98328   0.83965   0.00000  Uiso   1.00
O990   O     0.42809   0.86100   0.58517   0.00000  Uiso   1.00
O991   O     0.44759   0.93029   0.58161   0.00000  Uiso   1.00
O992   O     0.51264   0.74686   0.78213   0.00000  Uiso   1.00
O993   O     0.47965   0.92751   0.77013   0.00000  Uiso   1.00
O994   O     0.40745   0.79958   0.73413   0.00000  Uiso   1.00
O995   O     0.60026   0.85939   0.71360   0.00000  Uiso   1.00
O996   O     0.40405   0.85544   0.78213   0.00000  Uiso   1.00
O997   O     0.58824   0.81892   0.77013   0.00000  Uiso   1.00
O998   O     0.47093   0.73610   0.73413   0.00000  Uiso   1.00
O999   O     0.53678   0.92286   0.71360   0.00000  Uiso   1.00
Zn1000 Zn    0.52672   0.80661   0.78734   0.00000  Uiso   1.00
Zn1001 Zn    0.46713   0.79124   0.71875   0.00000  Uiso   1.00
Zn1002 Zn    0.54389   0.86442   0.70657   0.00000  Uiso   1.00
Zn1003 Zn    0.46226   0.87106   0.78733   0.00000  Uiso   1.00
C1004  C     0.71938   0.82621   0.76022   0.00000  Uiso   1.00
C1005  C     0.84566   0.83249   0.55667   0.00000  Uiso   1.00
C1006  C     0.86275   0.76421   0.56349   0.00000  Uiso   1.00
C1007  C     0.94736   0.84041   0.74013   0.00000  Uiso   1.00
C1008  C     0.80745   0.85927   0.92039   0.00000  Uiso   1.00
C1009  C     0.99316   0.84306   0.73628   0.00000  Uiso   1.00
C1010  C     0.67412   0.82380   0.76421   0.00000  Uiso   1.00
C1011  C     0.84435   0.98856   0.73658   0.00000  Uiso   1.00
C1012  C     0.81855   0.67955   0.76666   0.00000  Uiso   1.00
C1013  C     0.82341   0.72271   0.75993   0.00000  Uiso   1.00
C1014  C     0.84297   0.94451   0.74058   0.00000  Uiso   1.00
C1015  C     0.78944   0.90831   0.98550   0.00000  Uiso   1.00
C1016  C     0.85173   0.81457   0.62938   0.00000  Uiso   1.00
C1017  C     0.81470   0.85083   0.87117   0.00000  Uiso   1.00
C1018  C     0.85571   0.75073   0.52148   0.00000  Uiso   1.00
C1019  C     0.85743   0.80499   0.58128   0.00000  Uiso   1.00
C1020  C     0.79569   0.89818   0.93966   0.00000  Uiso   1.00
C1021  C     0.79255   0.66805   0.81150   0.00000  Uiso   1.00
C1022  C     0.77918   0.88946   0.56215   0.00000  Uiso   1.00
C1023  C     0.79724   0.88093   0.51321   0.00000  Uiso   1.00
C1024  C     0.81521   0.84359   0.99342   0.00000  Uiso   1.00
C1025  C     0.81463   0.83064   0.94798   0.00000  Uiso   1.00
C1026  C     0.83324   0.81818   0.51659   0.00000  Uiso   1.00
C1027  C     0.84061   0.77716   0.99810   0.00000  Uiso   1.00
C1028  C     0.83223   0.76265   0.95678   0.00000  Uiso   1.00
C1029  C     0.81994   0.78906   0.93181   0.00000  Uiso   1.00
H1030  H     0.87098   0.74244   0.58288   0.00000  Uiso   1.00
H1031  H     0.68205   0.86075   0.71054   0.00000  Uiso   1.00
H1032  H     0.79025   0.97791   0.86964   0.00000  Uiso   1.00
H1033  H     0.76719   0.93217   0.61505   0.00000  Uiso   1.00
H1034  H     0.98596   0.80603   0.79028   0.00000  Uiso   1.00
H1035  H     0.86617   0.66814   0.70711   0.00000  Uiso   1.00
H1036  H     0.83626   0.73096   0.94313   0.00000  Uiso   1.00
H1037  H     0.86044   0.71912   0.50805   0.00000  Uiso   1.00
H1038  H     0.84463   0.86434   0.57043   0.00000  Uiso   1.00
H1039  H     0.79008   0.92063   0.91932   0.00000  Uiso   1.00
H1040  H     0.77683   0.93726   0.99962   0.00000  Uiso   1.00
H1041  H     0.81337   0.77582   0.90031   0.00000  Uiso   1.00
O1042  O     0.83333   0.83333   0.75000   0.00000  Uiso   1.00
O1043  O     0.82118   0.79304   0.65458   0.00000  Uiso   1.00
O1044  O     0.79607   0.87058   0.84968   0.00000  Uiso   1.00
O1045  O     0.87491   0.84425   0.64606   0.00000  Uiso   1.00
O1046  O     0.84118   0.82546   0.84968   0.00000  Uiso   1.00
O1047  O     0.75572   0.67671   0.82472   0.00000  Uiso   1.00
O1048  O     0.81098   0.98328   0.83965   0.00000  Uiso   1.00
O1049  O     0.76143   0.86100   0.58517   0.00000  Uiso   1.00
O1050  O     0.78092   0.93029   0.58161   0.00000  Uiso   1.00
O1051  O     0.84597   0.74686   0.78213   0.00000  Uiso   1.00
O1052  O     0.81298   0.92751   0.77013   0.00000  Uiso   1.00
O1053  O     0.74078   0.79958   0.73413   0.00000  Uiso   1.00
O1054  O     0.93360   0.85939   0.71360   0.00000  Uiso   1.00
O1055  O     0.73738   0.85544   0.78213   0.00000  Uiso   1.00
O1056  O     0.92158   0.81892   0.77013   0.00000  Uiso   1.00
O1057  O     0.80426   0.73610   0.73413   0.00000  Uiso   1.00
O1058  O     0.87012   0.92286   0.71360   0.00000  Uiso   1.00
Zn1059 Zn    0.86005   0.80661   0.78734   0.00000  Uiso   1.00
Zn1060 Zn    0.80046   0.79124   0.71875   0.00000  Uiso   1.00
Zn1061 Zn    0.87723   0.86442   0.70657   0.00000  Uiso   1.00
Zn1062 Zn    0.79560   0.87106   0.78733   0.00000  Uiso   1.00
loop_
_geom_bond_atom_site_label_1
_geom_bond_atom_site_label_2
_geom_bond_distance
_geom_bond_site_symmetry_2
_ccdc_geom_bond_type
C1     O50     1.269   .     A
C1     O52     1.269   .     A
C1     C7      1.435   .     S
C2     H35     1.079   .     S
C2     C16     1.394   .     A
C2     C23     1.410   .     A
C3     H27     1.084   .     S
C3     C15     1.388   .     A
C3     C16     1.398   .     A
C4     O53     1.281   .     A
C4     O51     1.283   .     A
C4     C6      1.452   .     S
C5     C14     1.478   .     S
C5     C17     1.401   .     A
C5     C22     1.418   .     A
C6     C66     1.333   .     S
C6     H87     1.088   .     S
C7     C124    1.333   1_455 S
C7     H149    1.086   1_455 S
C8     C11     1.453   .     S
C8     C186    1.347   .     S
C8     H209    1.088   .     S
C9     C10     1.431   .     S
C9     C18     1.486   .     S
C9     C362    1.347   1_545 S
C10    O48     1.265   .     A
C10    O54     1.277   .     A
C11    O49     1.265   .     A
C11    O55     1.278   .     A
C12    C17     1.387   .     A
C12    H37     1.084   .     S
C12    C551    1.399   .     S
C13    C16     1.453   .     S
C13    O42     1.285   .     A
C13    O40     1.273   .     A
C14    O41     1.282   .     A
C14    O43     1.283   .     A
C15    H34     1.084   .     S
C15    C555    1.400   1_554 S
C17    H36     1.083   .     S
C18    O44     1.223   .     D
C18    O399    1.399   1_545 S
C19    O46     1.223   .     D
C19    O47     1.399   .     S
C19    C20     1.484   .     S
C20    C543    1.399   1_554 S
C20    C552    1.431   1_554 S
C21    C22     1.424   .     A
C21    C551    1.431   .     S
C21    C554    1.428   .     S
C22    C26     1.411   .     A
C23    C552    1.428   1_554 S
C23    C555    1.422   1_554 S
C24    C25     1.391   .     A
C24    C554    1.422   .     S
C24    C546    1.400   .     S
C25    C26     1.384   .     A
C25    H33     1.084   .     S
C26    H38     1.079   .     S
H28    C124    1.088   1_455 S
H29    O45     1.014   .     S
H30    O47     1.014   .     S
H31    C66     1.086   .     S
H32    C362    1.088   1_545 S
O39    Zn56    1.954   .     S
O39    Zn59    1.929   .     S
O39    Zn58    1.948   .     S
O39    Zn57    1.943   .     S
O40    Zn57    1.930   .     S
O41    Zn59    1.935   .     S
O42    Zn58    1.928   .     S
O43    Zn56    1.922   .     S
O45    C195    1.399   .     S
O48    Zn56    1.940   .     S
O49    Zn59    1.946   .     S
O50    Zn57    1.924   .     S
O51    Zn58    1.930   .     S
O52    Zn59    1.931   .     S
O53    Zn56    1.927   .     S
O54    Zn57    1.945   .     S
O55    Zn58    1.937   .     S
C60    O109    1.269   .     A
C60    O111    1.269   .     A
C60    C66     1.435   .     S
C61    H94     1.079   .     S
C61    C75     1.394   .     A
C61    C82     1.410   .     A
C62    H86     1.084   .     S
C62    C74     1.388   .     A
C62    C75     1.398   .     A
C63    O112    1.281   .     A
C63    O110    1.283   .     A
C63    C65     1.452   .     S
C64    C73     1.478   .     S
C64    C76     1.401   .     A
C64    C81     1.418   .     A
C65    C125    1.333   .     S
C65    H146    1.088   .     S
C67    C70     1.453   .     S
C67    C245    1.347   .     S
C67    H268    1.088   .     S
C68    C69     1.431   .     S
C68    C77     1.486   .     S
C68    C421    1.347   1_545 S
C69    O107    1.265   .     A
C69    O113    1.277   .     A
C70    O108    1.265   .     A
C70    O114    1.278   .     A
C71    C76     1.387   .     A
C71    H96     1.084   .     S
C71    C610    1.399   .     S
C72    C75     1.453   .     S
C72    O101    1.285   .     A
C72    O99     1.273   .     A
C73    O100    1.282   .     A
C73    O102    1.283   .     A
C74    H93     1.084   .     S
C74    C614    1.400   1_554 S
C76    H95     1.083   .     S
C77    O103    1.223   .     D
C77    O458    1.399   1_545 S
C78    O105    1.223   .     D
C78    O106    1.399   .     S
C78    C79     1.484   .     S
C79    C602    1.399   1_554 S
C79    C611    1.431   1_554 S
C80    C81     1.424   .     A
C80    C610    1.431   .     S
C80    C613    1.428   .     S
C81    C85     1.411   .     A
C82    C611    1.428   1_554 S
C82    C614    1.422   1_554 S
C83    C84     1.391   .     A
C83    C613    1.422   .     S
C83    C605    1.400   .     S
C84    C85     1.384   .     A
C84    H92     1.084   .     S
C85    H97     1.079   .     S
H88    O104    1.014   .     S
H89    O106    1.014   .     S
H90    C125    1.086   .     S
H91    C421    1.088   1_545 S
O98    Zn115   1.954   .     S
O98    Zn118   1.929   .     S
O98    Zn117   1.948   .     S
O98    Zn116   1.943   .     S
O99    Zn116   1.930   .     S
O100   Zn118   1.935   .     S
O101   Zn117   1.928   .     S
O102   Zn115   1.922   .     S
O104   C254    1.399   .     S
O107   Zn115   1.940   .     S
O108   Zn118   1.946   .     S
O109   Zn116   1.924   .     S
O110   Zn117   1.930   .     S
O111   Zn118   1.931   .     S
O112   Zn115   1.927   .     S
O113   Zn116   1.945   .     S
O114   Zn117   1.937   .     S
C119   O168    1.269   .     A
C119   O170    1.269   .     A
C119   C125    1.435   .     S
C120   H153    1.079   .     S
C120   C134    1.394   .     A
C120   C141    1.410   .     A
C121   H145    1.084   .     S
C121   C133    1.388   .     A
C121   C134    1.398   .     A
C122   O171    1.281   .     A
C122   O169    1.283   .     A
C122   C124    1.452   .     S
C123   C132    1.478   .     S
C123   C135    1.401   .     A
C123   C140    1.418   .     A
C124   C7      1.333   1_655 S
C124   H28     1.088   1_655 S
C126   C129    1.453   .     S
C126   C304    1.347   .     S
C126   H327    1.088   .     S
C127   C128    1.431   .     S
C127   C136    1.486   .     S
C127   C480    1.347   1_545 S
C128   O166    1.265   .     A
C128   O172    1.277   .     A
C129   O167    1.265   .     A
C129   O173    1.278   .     A
C130   C135    1.387   .     A
C130   H155    1.084   .     S
C130   C669    1.399   .     S
C131   C134    1.453   .     S
C131   O160    1.285   .     A
C131   O158    1.273   .     A
C132   O159    1.282   .     A
C132   O161    1.283   .     A
C133   H152    1.084   .     S
C133   C673    1.400   1_554 S
C135   H154    1.083   .     S
C136   O162    1.223   .     D
C136   O517    1.399   1_545 S
C137   O164    1.223   .     D
C137   O165    1.399   .     S
C137   C138    1.484   .     S
C138   C661    1.399   1_554 S
C138   C670    1.431   1_554 S
C139   C140    1.424   .     A
C139   C669    1.431   .     S
C139   C672    1.428   .     S
C140   C144    1.411   .     A
C141   C670    1.428   1_554 S
C141   C673    1.422   1_554 S
C142   C143    1.391   .     A
C142   C672    1.422   .     S
C142   C664    1.400   .     S
C143   C144    1.384   .     A
C143   H151    1.084   .     S
C144   H156    1.079   .     S
H147   O163    1.014   .     S
H148   O165    1.014   .     S
H149   C7      1.086   1_655 S
H150   C480    1.088   1_545 S
O157   Zn174   1.954   .     S
O157   Zn177   1.929   .     S
O157   Zn176   1.948   .     S
O157   Zn175   1.943   .     S
O158   Zn175   1.930   .     S
O159   Zn177   1.935   .     S
O160   Zn176   1.928   .     S
O161   Zn174   1.922   .     S
O163   C313    1.399   .     S
O166   Zn174   1.940   .     S
O167   Zn177   1.946   .     S
O168   Zn175   1.924   .     S
O169   Zn176   1.930   .     S
O170   Zn177   1.931   .     S
O171   Zn174   1.927   .     S
O172   Zn175   1.945   .     S
O173   Zn176   1.937   .     S
C178   O227    1.269   .     A
C178   O229    1.269   .     A
C178   C184    1.435   .     S
C179   H212    1.079   .     S
C179   C193    1.394   .     A
C179   C200    1.410   .     A
C180   H204    1.084   .     S
C180   C192    1.388   .     A
C180   C193    1.398   .     A
C181   O230    1.281   .     A
C181   O228    1.283   .     A
C181   C183    1.452   .     S
C182   C191    1.478   .     S
C182   C194    1.401   .     A
C182   C199    1.418   .     A
C183   C243    1.333   .     S
C183   H264    1.088   .     S
C184   C301    1.333   1_455 S
C184   H326    1.086   1_455 S
C185   C188    1.453   .     S
C185   C363    1.347   .     S
C185   H386    1.088   .     S
C186   C187    1.431   .     S
C186   C195    1.486   .     S
C187   O225    1.265   .     A
C187   O231    1.277   .     A
C188   O226    1.265   .     A
C188   O232    1.278   .     A
C189   C194    1.387   .     A
C189   H214    1.084   .     S
C189   C728    1.399   .     S
C190   C193    1.453   .     S
C190   O219    1.285   .     A
C190   O217    1.273   .     A
C191   O218    1.282   .     A
C191   O220    1.283   .     A
C192   H211    1.084   .     S
C192   C732    1.400   1_554 S
C194   H213    1.083   .     S
C195   O221    1.223   .     D
C196   O223    1.223   .     D
C196   O224    1.399   .     S
C196   C197    1.484   .     S
C197   C720    1.399   1_554 S
C197   C729    1.431   1_554 S
C198   C199    1.424   .     A
C198   C728    1.431   .     S
C198   C731    1.428   .     S
C199   C203    1.411   .     A
C200   C729    1.428   1_554 S
C200   C732    1.422   1_554 S
C201   C202    1.391   .     A
C201   C731    1.422   .     S
C201   C723    1.400   .     S
C202   C203    1.384   .     A
C202   H210    1.084   .     S
C203   H215    1.079   .     S
H205   C301    1.088   1_455 S
H206   O222    1.014   .     S
H207   O224    1.014   .     S
H208   C243    1.086   .     S
O216   Zn233   1.954   .     S
O216   Zn236   1.929   .     S
O216   Zn235   1.948   .     S
O216   Zn234   1.943   .     S
O217   Zn234   1.930   .     S
O218   Zn236   1.935   .     S
O219   Zn235   1.928   .     S
O220   Zn233   1.922   .     S
O222   C372    1.399   .     S
O225   Zn233   1.940   .     S
O226   Zn236   1.946   .     S
O227   Zn234   1.924   .     S
O228   Zn235   1.930   .     S
O229   Zn236   1.931   .     S
O230   Zn233   1.927   .     S
O231   Zn234   1.945   .     S
O232   Zn235   1.937   .     S
C237   O286    1.269   .     A
C237   O288    1.269   .     A
C237   C243    1.435   .     S
C238   H271    1.079   .     S
C238   C252    1.394   .     A
C238   C259    1.410   .     A
C239   H263    1.084   .     S
C239   C251    1.388   .     A
C239   C252    1.398   .     A
C240   O289    1.281   .     A
C240   O287    1.283   .     A
C240   C242    1.452   .     S
C241   C250    1.478   .     S
C241   C253    1.401   .     A
C241   C258    1.418   .     A
C242   C302    1.333   .     S
C242   H323    1.088   .     S
C244   C247    1.453   .     S
C244   C422    1.347   .     S
C244   H445    1.088   .     S
C245   C246    1.431   .     S
C245   C254    1.486   .     S
C246   O284    1.265   .     A
C246   O290    1.277   .     A
C247   O285    1.265   .     A
C247   O291    1.278   .     A
C248   C253    1.387   .     A
C248   H273    1.084   .     S
C248   C787    1.399   .     S
C249   C252    1.453   .     S
C249   O278    1.285   .     A
C249   O276    1.273   .     A
C250   O277    1.282   .     A
C250   O279    1.283   .     A
C251   H270    1.084   .     S
C251   C791    1.400   1_554 S
C253   H272    1.083   .     S
C254   O280    1.223   .     D
C255   O282    1.223   .     D
C255   O283    1.399   .     S
C255   C256    1.484   .     S
C256   C779    1.399   1_554 S
C256   C788    1.431   1_554 S
C257   C258    1.424   .     A
C257   C787    1.431   .     S
C257   C790    1.428   .     S
C258   C262    1.411   .     A
C259   C788    1.428   1_554 S
C259   C791    1.422   1_554 S
C260   C261    1.391   .     A
C260   C790    1.422   .     S
C260   C782    1.400   .     S
C261   C262    1.384   .     A
C261   H269    1.084   .     S
C262   H274    1.079   .     S
H265   O281    1.014   .     S
H266   O283    1.014   .     S
H267   C302    1.086   .     S
O275   Zn292   1.954   .     S
O275   Zn295   1.929   .     S
O275   Zn294   1.948   .     S
O275   Zn293   1.943   .     S
O276   Zn293   1.930   .     S
O277   Zn295   1.935   .     S
O278   Zn294   1.928   .     S
O279   Zn292   1.922   .     S
O281   C431    1.399   .     S
O284   Zn292   1.940   .     S
O285   Zn295   1.946   .     S
O286   Zn293   1.924   .     S
O287   Zn294   1.930   .     S
O288   Zn295   1.931   .     S
O289   Zn292   1.927   .     S
O290   Zn293   1.945   .     S
O291   Zn294   1.937   .     S
C296   O345    1.269   .     A
C296   O347    1.269   .     A
C296   C302    1.435   .     S
C297   H330    1.079   .     S
C297   C311    1.394   .     A
C297   C318    1.410   .     A
C298   H322    1.084   .     S
C298   C310    1.388   .     A
C298   C311    1.398   .     A
C299   O348    1.281   .     A
C299   O346    1.283   .     A
C299   C301    1.452   .     S
C300   C309    1.478   .     S
C300   C312    1.401   .     A
C300   C317    1.418   .     A
C301   C184    1.333   1_655 S
C301   H205    1.088   1_655 S
C303   C306    1.453   .     S
C303   C481    1.347   .     S
C303   H504    1.088   .     S
C304   C305    1.431   .     S
C304   C313    1.486   .     S
C305   O343    1.265   .     A
C305   O349    1.277   .     A
C306   O344    1.265   .     A
C306   O350    1.278   .     A
C307   C312    1.387   .     A
C307   H332    1.084   .     S
C307   C846    1.399   .     S
C308   C311    1.453   .     S
C308   O337    1.285   .     A
C308   O335    1.273   .     A
C309   O336    1.282   .     A
C309   O338    1.283   .     A
C310   H329    1.084   .     S
C310   C850    1.400   1_554 S
C312   H331    1.083   .     S
C313   O339    1.223   .     D
C314   O341    1.223   .     D
C314   O342    1.399   .     S
C314   C315    1.484   .     S
C315   C838    1.399   1_554 S
C315   C847    1.431   1_554 S
C316   C317    1.424   .     A
C316   C846    1.431   .     S
C316   C849    1.428   .     S
C317   C321    1.411   .     A
C318   C847    1.428   1_554 S
C318   C850    1.422   1_554 S
C319   C320    1.391   .     A
C319   C849    1.422   .     S
C319   C841    1.400   .     S
C320   C321    1.384   .     A
C320   H328    1.084   .     S
C321   H333    1.079   .     S
H324   O340    1.014   .     S
H325   O342    1.014   .     S
H326   C184    1.086   1_655 S
O334   Zn351   1.954   .     S
O334   Zn354   1.929   .     S
O334   Zn353   1.948   .     S
O334   Zn352   1.943   .     S
O335   Zn352   1.930   .     S
O336   Zn354   1.935   .     S
O337   Zn353   1.928   .     S
O338   Zn351   1.922   .     S
O340   C490    1.399   .     S
O343   Zn351   1.940   .     S
O344   Zn354   1.946   .     S
O345   Zn352   1.924   .     S
O346   Zn353   1.930   .     S
O347   Zn354   1.931   .     S
O348   Zn351   1.927   .     S
O349   Zn352   1.945   .     S
O350   Zn353   1.937   .     S
C355   O404    1.269   .     A
C355   O406    1.269   .     A
C355   C361    1.435   .     S
C356   H389    1.079   .     S
C356   C370    1.394   .     A
C356   C377    1.410   .     A
C357   H381    1.084   .     S
C357   C369    1.388   .     A
C357   C370    1.398   .     A
C358   O407    1.281   .     A
C358   O405    1.283   .     A
C358   C360    1.452   .     S
C359   C368    1.478   .     S
C359   C371    1.401   .     A
C359   C376    1.418   .     A
C360   C420    1.333   .     S
C360   H441    1.088   .     S
C361   C478    1.333   1_455 S
C361   H503    1.086   1_455 S
C362   C365    1.453   .     S
C362   C9      1.347   1_565 S
C362   H32     1.088   1_565 S
C363   C364    1.431   .     S
C363   C372    1.486   .     S
C364   O402    1.265   .     A
C364   O408    1.277   .     A
C365   O403    1.265   .     A
C365   O409    1.278   .     A
C366   C371    1.387   .     A
C366   H391    1.084   .     S
C366   C905    1.399   .     S
C367   C370    1.453   .     S
C367   O396    1.285   .     A
C367   O394    1.273   .     A
C368   O395    1.282   .     A
C368   O397    1.283   .     A
C369   H388    1.084   .     S
C369   C909    1.400   1_554 S
C371   H390    1.083   .     S
C372   O398    1.223   .     D
C373   O400    1.223   .     D
C373   O401    1.399   .     S
C373   C374    1.484   .     S
C374   C897    1.399   1_554 S
C374   C906    1.431   1_554 S
C375   C376    1.424   .     A
C375   C905    1.431   .     S
C375   C908    1.428   .     S
C376   C380    1.411   .     A
C377   C906    1.428   1_554 S
C377   C909    1.422   1_554 S
C378   C379    1.391   .     A
C378   C908    1.422   .     S
C378   C900    1.400   .     S
C379   C380    1.384   .     A
C379   H387    1.084   .     S
C380   H392    1.079   .     S
H382   C478    1.088   1_455 S
H383   O399    1.014   .     S
H384   O401    1.014   .     S
H385   C420    1.086   .     S
O393   Zn410   1.954   .     S
O393   Zn413   1.929   .     S
O393   Zn412   1.948   .     S
O393   Zn411   1.943   .     S
O394   Zn411   1.930   .     S
O395   Zn413   1.935   .     S
O396   Zn412   1.928   .     S
O397   Zn410   1.922   .     S
O399   C18     1.399   1_565 S
O402   Zn410   1.940   .     S
O403   Zn413   1.946   .     S
O404   Zn411   1.924   .     S
O405   Zn412   1.930   .     S
O406   Zn413   1.931   .     S
O407   Zn410   1.927   .     S
O408   Zn411   1.945   .     S
O409   Zn412   1.937   .     S
C414   O463    1.269   .     A
C414   O465    1.269   .     A
C414   C420    1.435   .     S
C415   H448    1.079   .     S
C415   C429    1.394   .     A
C415   C436    1.410   .     A
C416   H440    1.084   .     S
C416   C428    1.388   .     A
C416   C429    1.398   .     A
C417   O466    1.281   .     A
C417   O464    1.283   .     A
C417   C419    1.452   .     S
C418   C427    1.478   .     S
C418   C430    1.401   .     A
C418   C435    1.418   .     A
C419   C479    1.333   .     S
C419   H500    1.088   .     S
C421   C424    1.453   .     S
C421   C68     1.347   1_565 S
C421   H91     1.088   1_565 S
C422   C423    1.431   .     S
C422   C431    1.486   .     S
C423   O461    1.265   .     A
C423   O467    1.277   .     A
C424   O462    1.265   .     A
C424   O468    1.278   .     A
C425   C430    1.387   .     A
C425   H450    1.084   .     S
C425   C964    1.399   .     S
C426   C429    1.453   .     S
C426   O455    1.285   .     A
C426   O453    1.273   .     A
C427   O454    1.282   .     A
C427   O456    1.283   .     A
C428   H447    1.084   .     S
C428   C968    1.400   1_554 S
C430   H449    1.083   .     S
C431   O457    1.223   .     D
C432   O459    1.223   .     D
C432   O460    1.399   .     S
C432   C433    1.484   .     S
C433   C956    1.399   1_554 S
C433   C965    1.431   1_554 S
C434   C435    1.424   .     A
C434   C964    1.431   .     S
C434   C967    1.428   .     S
C435   C439    1.411   .     A
C436   C965    1.428   1_554 S
C436   C968    1.422   1_554 S
C437   C438    1.391   .     A
C437   C967    1.422   .     S
C437   C959    1.400   .     S
C438   C439    1.384   .     A
C438   H446    1.084   .     S
C439   H451    1.079   .     S
H442   O458    1.014   .     S
H443   O460    1.014   .     S
H444   C479    1.086   .     S
O452   Zn469   1.954   .     S
O452   Zn472   1.929   .     S
O452   Zn471   1.948   .     S
O452   Zn470   1.943   .     S
O453   Zn470   1.930   .     S
O454   Zn472   1.935   .     S
O455   Zn471   1.928   .     S
O456   Zn469   1.922   .     S
O458   C77     1.399   1_565 S
O461   Zn469   1.940   .     S
O462   Zn472   1.946   .     S
O463   Zn470   1.924   .     S
O464   Zn471   1.930   .     S
O465   Zn472   1.931   .     S
O466   Zn469   1.927   .     S
O467   Zn470   1.945   .     S
O468   Zn471   1.937   .     S
C473   O522    1.269   .     A
C473   O524    1.269   .     A
C473   C479    1.435   .     S
C474   H507    1.079   .     S
C474   C488    1.394   .     A
C474   C495    1.410   .     A
C475   H499    1.084   .     S
C475   C487    1.388   .     A
C475   C488    1.398   .     A
C476   O525    1.281   .     A
C476   O523    1.283   .     A
C476   C478    1.452   .     S
C477   C486    1.478   .     S
C477   C489    1.401   .     A
C477   C494    1.418   .     A
C478   C361    1.333   1_655 S
C478   H382    1.088   1_655 S
C480   C483    1.453   .     S
C480   C127    1.347   1_565 S
C480   H150    1.088   1_565 S
C481   C482    1.431   .     S
C481   C490    1.486   .     S
C482   O520    1.265   .     A
C482   O526    1.277   .     A
C483   O521    1.265   .     A
C483   O527    1.278   .     A
C484   C489    1.387   .     A
C484   H509    1.084   .     S
C484   C1023   1.399   .     S
C485   C488    1.453   .     S
C485   O514    1.285   .     A
C485   O512    1.273   .     A
C486   O513    1.282   .     A
C486   O515    1.283   .     A
C487   H506    1.084   .     S
C487   C1027   1.400   1_554 S
C489   H508    1.083   .     S
C490   O516    1.223   .     D
C491   O518    1.223   .     D
C491   O519    1.399   .     S
C491   C492    1.484   .     S
C492   C1015   1.399   1_554 S
C492   C1024   1.431   1_554 S
C493   C494    1.424   .     A
C493   C1023   1.431   .     S
C493   C1026   1.428   .     S
C494   C498    1.411   .     A
C495   C1024   1.428   1_554 S
C495   C1027   1.422   1_554 S
C496   C497    1.391   .     A
C496   C1026   1.422   .     S
C496   C1018   1.400   .     S
C497   C498    1.384   .     A
C497   H505    1.084   .     S
C498   H510    1.079   .     S
H501   O517    1.014   .     S
H502   O519    1.014   .     S
H503   C361    1.086   1_655 S
O511   Zn528   1.954   .     S
O511   Zn531   1.929   .     S
O511   Zn530   1.948   .     S
O511   Zn529   1.943   .     S
O512   Zn529   1.930   .     S
O513   Zn531   1.935   .     S
O514   Zn530   1.928   .     S
O515   Zn528   1.922   .     S
O517   C136    1.399   1_565 S
O520   Zn528   1.940   .     S
O521   Zn531   1.946   .     S
O522   Zn529   1.924   .     S
O523   Zn530   1.930   .     S
O524   Zn531   1.931   .     S
O525   Zn528   1.927   .     S
O526   Zn529   1.945   .     S
O527   Zn530   1.937   .     S
C532   O581    1.269   .     A
C532   O583    1.269   .     A
C532   C538    1.435   .     S
C533   H566    1.079   .     S
C533   C547    1.394   .     A
C533   C554    1.410   .     A
C534   H558    1.084   .     S
C534   C546    1.388   .     A
C534   C547    1.398   .     A
C535   O584    1.281   .     A
C535   O582    1.283   .     A
C535   C537    1.452   .     S
C536   C545    1.478   .     S
C536   C548    1.401   .     A
C536   C553    1.418   .     A
C537   C597    1.333   .     S
C537   H618    1.088   .     S
C538   C655    1.333   1_455 S
C538   H680    1.086   1_455 S
C539   C542    1.453   .     S
C539   C717    1.347   .     S
C539   H740    1.088   .     S
C540   C541    1.431   .     S
C540   C549    1.486   .     S
C540   C893    1.347   1_545 S
C541   O579    1.265   .     A
C541   O585    1.277   .     A
C542   O580    1.265   .     A
C542   O586    1.278   .     A
C543   C548    1.387   .     A
C543   H568    1.084   .     S
C543   C20     1.399   1_556 S
C544   C547    1.453   .     S
C544   O573    1.285   .     A
C544   O571    1.273   .     A
C545   O572    1.282   .     A
C545   O574    1.283   .     A
C546   H565    1.084   .     S
C548   H567    1.083   .     S
C549   O575    1.223   .     D
C549   O930    1.399   1_545 S
C550   O577    1.223   .     D
C550   O578    1.399   .     S
C550   C551    1.484   .     S
C552   C553    1.424   .     A
C552   C20     1.431   1_556 S
C552   C23     1.428   1_556 S
C553   C557    1.411   .     A
C555   C556    1.391   .     A
C555   C23     1.422   1_556 S
C555   C15     1.400   1_556 S
C556   C557    1.384   .     A
C556   H564    1.084   .     S
C557   H569    1.079   .     S
H559   C655    1.088   1_455 S
H560   O576    1.014   .     S
H561   O578    1.014   .     S
H562   C597    1.086   .     S
H563   C893    1.088   1_545 S
O570   Zn587   1.954   .     S
O570   Zn590   1.929   .     S
O570   Zn589   1.948   .     S
O570   Zn588   1.943   .     S
O571   Zn588   1.930   .     S
O572   Zn590   1.935   .     S
O573   Zn589   1.928   .     S
O574   Zn587   1.922   .     S
O576   C726    1.399   .     S
O579   Zn587   1.940   .     S
O580   Zn590   1.946   .     S
O581   Zn588   1.924   .     S
O582   Zn589   1.930   .     S
O583   Zn590   1.931   .     S
O584   Zn587   1.927   .     S
O585   Zn588   1.945   .     S
O586   Zn589   1.937   .     S
C591   O640    1.269   .     A
C591   O642    1.269   .     A
C591   C597    1.435   .     S
C592   H625    1.079   .     S
C592   C606    1.394   .     A
C592   C613    1.410   .     A
C593   H617    1.084   .     S
C593   C605    1.388   .     A
C593   C606    1.398   .     A
C594   O643    1.281   .     A
C594   O641    1.283   .     A
C594   C596    1.452   .     S
C595   C604    1.478   .     S
C595   C607    1.401   .     A
C595   C612    1.418   .     A
C596   C656    1.333   .     S
C596   H677    1.088   .     S
C598   C601    1.453   .     S
C598   C776    1.347   .     S
C598   H799    1.088   .     S
C599   C600    1.431   .     S
C599   C608    1.486   .     S
C599   C952    1.347   1_545 S
C600   O638    1.265   .     A
C600   O644    1.277   .     A
C601   O639    1.265   .     A
C601   O645    1.278   .     A
C602   C607    1.387   .     A
C602   H627    1.084   .     S
C602   C79     1.399   1_556 S
C603   C606    1.453   .     S
C603   O632    1.285   .     A
C603   O630    1.273   .     A
C604   O631    1.282   .     A
C604   O633    1.283   .     A
C605   H624    1.084   .     S
C607   H626    1.083   .     S
C608   O634    1.223   .     D
C608   O989    1.399   1_545 S
C609   O636    1.223   .     D
C609   O637    1.399   .     S
C609   C610    1.484   .     S
C611   C612    1.424   .     A
C611   C79     1.431   1_556 S
C611   C82     1.428   1_556 S
C612   C616    1.411   .     A
C614   C615    1.391   .     A
C614   C82     1.422   1_556 S
C614   C74     1.400   1_556 S
C615   C616    1.384   .     A
C615   H623    1.084   .     S
C616   H628    1.079   .     S
H619   O635    1.014   .     S
H620   O637    1.014   .     S
H621   C656    1.086   .     S
H622   C952    1.088   1_545 S
O629   Zn646   1.954   .     S
O629   Zn649   1.929   .     S
O629   Zn648   1.948   .     S
O629   Zn647   1.943   .     S
O630   Zn647   1.930   .     S
O631   Zn649   1.935   .     S
O632   Zn648   1.928   .     S
O633   Zn646   1.922   .     S
O635   C785    1.399   .     S
O638   Zn646   1.940   .     S
O639   Zn649   1.946   .     S
O640   Zn647   1.924   .     S
O641   Zn648   1.930   .     S
O642   Zn649   1.931   .     S
O643   Zn646   1.927   .     S
O644   Zn647   1.945   .     S
O645   Zn648   1.937   .     S
C650   O699    1.269   .     A
C650   O701    1.269   .     A
C650   C656    1.435   .     S
C651   H684    1.079   .     S
C651   C665    1.394   .     A
C651   C672    1.410   .     A
C652   H676    1.084   .     S
C652   C664    1.388   .     A
C652   C665    1.398   .     A
C653   O702    1.281   .     A
C653   O700    1.283   .     A
C653   C655    1.452   .     S
C654   C663    1.478   .     S
C654   C666    1.401   .     A
C654   C671    1.418   .     A
C655   C538    1.333   1_655 S
C655   H559    1.088   1_655 S
C657   C660    1.453   .     S
C657   C835    1.347   .     S
C657   H858    1.088   .     S
C658   C659    1.431   .     S
C658   C667    1.486   .     S
C658   C1011   1.347   1_545 S
C659   O697    1.265   .     A
C659   O703    1.277   .     A
C660   O698    1.265   .     A
C660   O704    1.278   .     A
C661   C666    1.387   .     A
C661   H686    1.084   .     S
C661   C138    1.399   1_556 S
C662   C665    1.453   .     S
C662   O691    1.285   .     A
C662   O689    1.273   .     A
C663   O690    1.282   .     A
C663   O692    1.283   .     A
C664   H683    1.084   .     S
C666   H685    1.083   .     S
C667   O693    1.223   .     D
C667   O1048   1.399   1_545 S
C668   O695    1.223   .     D
C668   O696    1.399   .     S
C668   C669    1.484   .     S
C670   C671    1.424   .     A
C670   C138    1.431   1_556 S
C670   C141    1.428   1_556 S
C671   C675    1.411   .     A
C673   C674    1.391   .     A
C673   C141    1.422   1_556 S
C673   C133    1.400   1_556 S
C674   C675    1.384   .     A
C674   H682    1.084   .     S
C675   H687    1.079   .     S
H678   O694    1.014   .     S
H679   O696    1.014   .     S
H680   C538    1.086   1_655 S
H681   C1011   1.088   1_545 S
O688   Zn705   1.954   .     S
O688   Zn708   1.929   .     S
O688   Zn707   1.948   .     S
O688   Zn706   1.943   .     S
O689   Zn706   1.930   .     S
O690   Zn708   1.935   .     S
O691   Zn707   1.928   .     S
O692   Zn705   1.922   .     S
O694   C844    1.399   .     S
O697   Zn705   1.940   .     S
O698   Zn708   1.946   .     S
O699   Zn706   1.924   .     S
O700   Zn707   1.930   .     S
O701   Zn708   1.931   .     S
O702   Zn705   1.927   .     S
O703   Zn706   1.945   .     S
O704   Zn707   1.937   .     S
C709   O758    1.269   .     A
C709   O760    1.269   .     A
C709   C715    1.435   .     S
C710   H743    1.079   .     S
C710   C724    1.394   .     A
C710   C731    1.410   .     A
C711   H735    1.084   .     S
C711   C723    1.388   .     A
C711   C724    1.398   .     A
C712   O761    1.281   .     A
C712   O759    1.283   .     A
C712   C714    1.452   .     S
C713   C722    1.478   .     S
C713   C725    1.401   .     A
C713   C730    1.418   .     A
C714   C774    1.333   .     S
C714   H795    1.088   .     S
C715   C832    1.333   1_455 S
C715   H857    1.086   1_455 S
C716   C719    1.453   .     S
C716   C894    1.347   .     S
C716   H917    1.088   .     S
C717   C718    1.431   .     S
C717   C726    1.486   .     S
C718   O756    1.265   .     A
C718   O762    1.277   .     A
C719   O757    1.265   .     A
C719   O763    1.278   .     A
C720   C725    1.387   .     A
C720   H745    1.084   .     S
C720   C197    1.399   1_556 S
C721   C724    1.453   .     S
C721   O750    1.285   .     A
C721   O748    1.273   .     A
C722   O749    1.282   .     A
C722   O751    1.283   .     A
C723   H742    1.084   .     S
C725   H744    1.083   .     S
C726   O752    1.223   .     D
C727   O754    1.223   .     D
C727   O755    1.399   .     S
C727   C728    1.484   .     S
C729   C730    1.424   .     A
C729   C197    1.431   1_556 S
C729   C200    1.428   1_556 S
C730   C734    1.411   .     A
C732   C733    1.391   .     A
C732   C200    1.422   1_556 S
C732   C192    1.400   1_556 S
C733   C734    1.384   .     A
C733   H741    1.084   .     S
C734   H746    1.079   .     S
H736   C832    1.088   1_455 S
H737   O753    1.014   .     S
H738   O755    1.014   .     S
H739   C774    1.086   .     S
O747   Zn764   1.954   .     S
O747   Zn767   1.929   .     S
O747   Zn766   1.948   .     S
O747   Zn765   1.943   .     S
O748   Zn765   1.930   .     S
O749   Zn767   1.935   .     S
O750   Zn766   1.928   .     S
O751   Zn764   1.922   .     S
O753   C903    1.399   .     S
O756   Zn764   1.940   .     S
O757   Zn767   1.946   .     S
O758   Zn765   1.924   .     S
O759   Zn766   1.930   .     S
O760   Zn767   1.931   .     S
O761   Zn764   1.927   .     S
O762   Zn765   1.945   .     S
O763   Zn766   1.937   .     S
C768   O817    1.269   .     A
C768   O819    1.269   .     A
C768   C774    1.435   .     S
C769   H802    1.079   .     S
C769   C783    1.394   .     A
C769   C790    1.410   .     A
C770   H794    1.084   .     S
C770   C782    1.388   .     A
C770   C783    1.398   .     A
C771   O820    1.281   .     A
C771   O818    1.283   .     A
C771   C773    1.452   .     S
C772   C781    1.478   .     S
C772   C784    1.401   .     A
C772   C789    1.418   .     A
C773   C833    1.333   .     S
C773   H854    1.088   .     S
C775   C778    1.453   .     S
C775   C953    1.347   .     S
C775   H976    1.088   .     S
C776   C777    1.431   .     S
C776   C785    1.486   .     S
C777   O815    1.265   .     A
C777   O821    1.277   .     A
C778   O816    1.265   .     A
C778   O822    1.278   .     A
C779   C784    1.387   .     A
C779   H804    1.084   .     S
C779   C256    1.399   1_556 S
C780   C783    1.453   .     S
C780   O809    1.285   .     A
C780   O807    1.273   .     A
C781   O808    1.282   .     A
C781   O810    1.283   .     A
C782   H801    1.084   .     S
C784   H803    1.083   .     S
C785   O811    1.223   .     D
C786   O813    1.223   .     D
C786   O814    1.399   .     S
C786   C787    1.484   .     S
C788   C789    1.424   .     A
C788   C256    1.431   1_556 S
C788   C259    1.428   1_556 S
C789   C793    1.411   .     A
C791   C792    1.391   .     A
C791   C259    1.422   1_556 S
C791   C251    1.400   1_556 S
C792   C793    1.384   .     A
C792   H800    1.084   .     S
C793   H805    1.079   .     S
H796   O812    1.014   .     S
H797   O814    1.014   .     S
H798   C833    1.086   .     S
O806   Zn823   1.954   .     S
O806   Zn826   1.929   .     S
O806   Zn825   1.948   .     S
O806   Zn824   1.943   .     S
O807   Zn824   1.930   .     S
O808   Zn826   1.935   .     S
O809   Zn825   1.928   .     S
O810   Zn823   1.922   .     S
O812   C962    1.399   .     S
O815   Zn823   1.940   .     S
O816   Zn826   1.946   .     S
O817   Zn824   1.924   .     S
O818   Zn825   1.930   .     S
O819   Zn826   1.931   .     S
O820   Zn823   1.927   .     S
O821   Zn824   1.945   .     S
O822   Zn825   1.937   .     S
C827   O876    1.269   .     A
C827   O878    1.269   .     A
C827   C833    1.435   .     S
C828   H861    1.079   .     S
C828   C842    1.394   .     A
C828   C849    1.410   .     A
C829   H853    1.084   .     S
C829   C841    1.388   .     A
C829   C842    1.398   .     A
C830   O879    1.281   .     A
C830   O877    1.283   .     A
C830   C832    1.452   .     S
C831   C840    1.478   .     S
C831   C843    1.401   .     A
C831   C848    1.418   .     A
C832   C715    1.333   1_655 S
C832   H736    1.088   1_655 S
C834   C837    1.453   .     S
C834   C1012   1.347   .     S
C834   H1035   1.088   .     S
C835   C836    1.431   .     S
C835   C844    1.486   .     S
C836   O874    1.265   .     A
C836   O880    1.277   .     A
C837   O875    1.265   .     A
C837   O881    1.278   .     A
C838   C843    1.387   .     A
C838   H863    1.084   .     S
C838   C315    1.399   1_556 S
C839   C842    1.453   .     S
C839   O868    1.285   .     A
C839   O866    1.273   .     A
C840   O867    1.282   .     A
C840   O869    1.283   .     A
C841   H860    1.084   .     S
C843   H862    1.083   .     S
C844   O870    1.223   .     D
C845   O872    1.223   .     D
C845   O873    1.399   .     S
C845   C846    1.484   .     S
C847   C848    1.424   .     A
C847   C315    1.431   1_556 S
C847   C318    1.428   1_556 S
C848   C852    1.411   .     A
C850   C851    1.391   .     A
C850   C318    1.422   1_556 S
C850   C310    1.400   1_556 S
C851   C852    1.384   .     A
C851   H859    1.084   .     S
C852   H864    1.079   .     S
H855   O871    1.014   .     S
H856   O873    1.014   .     S
H857   C715    1.086   1_655 S
O865   Zn882   1.954   .     S
O865   Zn885   1.929   .     S
O865   Zn884   1.948   .     S
O865   Zn883   1.943   .     S
O866   Zn883   1.930   .     S
O867   Zn885   1.935   .     S
O868   Zn884   1.928   .     S
O869   Zn882   1.922   .     S
O871   C1021   1.399   .     S
O874   Zn882   1.940   .     S
O875   Zn885   1.946   .     S
O876   Zn883   1.924   .     S
O877   Zn884   1.930   .     S
O878   Zn885   1.931   .     S
O879   Zn882   1.927   .     S
O880   Zn883   1.945   .     S
O881   Zn884   1.937   .     S
C886   O935    1.269   .     A
C886   O937    1.269   .     A
C886   C892    1.435   .     S
C887   H920    1.079   .     S
C887   C901    1.394   .     A
C887   C908    1.410   .     A
C888   H912    1.084   .     S
C888   C900    1.388   .     A
C888   C901    1.398   .     A
C889   O938    1.281   .     A
C889   O936    1.283   .     A
C889   C891    1.452   .     S
C890   C899    1.478   .     S
C890   C902    1.401   .     A
C890   C907    1.418   .     A
C891   C951    1.333   .     S
C891   H972    1.088   .     S
C892   C1009   1.333   1_455 S
C892   H1034   1.086   1_455 S
C893   C896    1.453   .     S
C893   C540    1.347   1_565 S
C893   H563    1.088   1_565 S
C894   C895    1.431   .     S
C894   C903    1.486   .     S
C895   O933    1.265   .     A
C895   O939    1.277   .     A
C896   O934    1.265   .     A
C896   O940    1.278   .     A
C897   C902    1.387   .     A
C897   H922    1.084   .     S
C897   C374    1.399   1_556 S
C898   C901    1.453   .     S
C898   O927    1.285   .     A
C898   O925    1.273   .     A
C899   O926    1.282   .     A
C899   O928    1.283   .     A
C900   H919    1.084   .     S
C902   H921    1.083   .     S
C903   O929    1.223   .     D
C904   O931    1.223   .     D
C904   O932    1.399   .     S
C904   C905    1.484   .     S
C906   C907    1.424   .     A
C906   C374    1.431   1_556 S
C906   C377    1.428   1_556 S
C907   C911    1.411   .     A
C909   C910    1.391   .     A
C909   C377    1.422   1_556 S
C909   C369    1.400   1_556 S
C910   C911    1.384   .     A
C910   H918    1.084   .     S
C911   H923    1.079   .     S
H913   C1009   1.088   1_455 S
H914   O930    1.014   .     S
H915   O932    1.014   .     S
H916   C951    1.086   .     S
O924   Zn941   1.954   .     S
O924   Zn944   1.929   .     S
O924   Zn943   1.948   .     S
O924   Zn942   1.943   .     S
O925   Zn942   1.930   .     S
O926   Zn944   1.935   .     S
O927   Zn943   1.928   .     S
O928   Zn941   1.922   .     S
O930   C549    1.399   1_565 S
O933   Zn941   1.940   .     S
O934   Zn944   1.946   .     S
O935   Zn942   1.924   .     S
O936   Zn943   1.930   .     S
O937   Zn944   1.931   .     S
O938   Zn941   1.927   .     S
O939   Zn942   1.945   .     S
O940   Zn943   1.937   .     S
C945   O994    1.269   .     A
C945   O996    1.269   .     A
C945   C951    1.435   .     S
C946   H979    1.079   .     S
C946   C960    1.394   .     A
C946   C967    1.410   .     A
C947   H971    1.084   .     S
C947   C959    1.388   .     A
C947   C960    1.398   .     A
C948   O997    1.281   .     A
C948   O995    1.283   .     A
C948   C950    1.452   .     S
C949   C958    1.478   .     S
C949   C961    1.401   .     A
C949   C966    1.418   .     A
C950   C1010   1.333   .     S
C950   H1031   1.088   .     S
C952   C955    1.453   .     S
C952   C599    1.347   1_565 S
C952   H622    1.088   1_565 S
C953   C954    1.431   .     S
C953   C962    1.486   .     S
C954   O992    1.265   .     A
C954   O998    1.277   .     A
C955   O993    1.265   .     A
C955   O999    1.278   .     A
C956   C961    1.387   .     A
C956   H981    1.084   .     S
C956   C433    1.399   1_556 S
C957   C960    1.453   .     S
C957   O986    1.285   .     A
C957   O984    1.273   .     A
C958   O985    1.282   .     A
C958   O987    1.283   .     A
C959   H978    1.084   .     S
C961   H980    1.083   .     S
C962   O988    1.223   .     D
C963   O990    1.223   .     D
C963   O991    1.399   .     S
C963   C964    1.484   .     S
C965   C966    1.424   .     A
C965   C433    1.431   1_556 S
C965   C436    1.428   1_556 S
C966   C970    1.411   .     A
C968   C969    1.391   .     A
C968   C436    1.422   1_556 S
C968   C428    1.400   1_556 S
C969   C970    1.384   .     A
C969   H977    1.084   .     S
C970   H982    1.079   .     S
H973   O989    1.014   .     S
H974   O991    1.014   .     S
H975   C1010   1.086   .     S
O983   Zn1000  1.954   .     S
O983   Zn1003  1.929   .     S
O983   Zn1002  1.948   .     S
O983   Zn1001  1.943   .     S
O984   Zn1001  1.930   .     S
O985   Zn1003  1.935   .     S
O986   Zn1002  1.928   .     S
O987   Zn1000  1.922   .     S
O989   C608    1.399   1_565 S
O992   Zn1000  1.940   .     S
O993   Zn1003  1.946   .     S
O994   Zn1001  1.924   .     S
O995   Zn1002  1.930   .     S
O996   Zn1003  1.931   .     S
O997   Zn1000  1.927   .     S
O998   Zn1001  1.945   .     S
O999   Zn1002  1.937   .     S
C1004  O1053   1.269   .     A
C1004  O1055   1.269   .     A
C1004  C1010   1.435   .     S
C1005  H1038   1.079   .     S
C1005  C1019   1.394   .     A
C1005  C1026   1.410   .     A
C1006  H1030   1.084   .     S
C1006  C1018   1.388   .     A
C1006  C1019   1.398   .     A
C1007  O1056   1.281   .     A
C1007  O1054   1.283   .     A
C1007  C1009   1.452   .     S
C1008  C1017   1.478   .     S
C1008  C1020   1.401   .     A
C1008  C1025   1.418   .     A
C1009  C892    1.333   1_655 S
C1009  H913    1.088   1_655 S
C1011  C1014   1.453   .     S
C1011  C658    1.347   1_565 S
C1011  H681    1.088   1_565 S
C1012  C1013   1.431   .     S
C1012  C1021   1.486   .     S
C1013  O1051   1.265   .     A
C1013  O1057   1.277   .     A
C1014  O1052   1.265   .     A
C1014  O1058   1.278   .     A
C1015  C1020   1.387   .     A
C1015  H1040   1.084   .     S
C1015  C492    1.399   1_556 S
C1016  C1019   1.453   .     S
C1016  O1045   1.285   .     A
C1016  O1043   1.273   .     A
C1017  O1044   1.282   .     A
C1017  O1046   1.283   .     A
C1018  H1037   1.084   .     S
C1020  H1039   1.083   .     S
C1021  O1047   1.223   .     D
C1022  O1049   1.223   .     D
C1022  O1050   1.399   .     S
C1022  C1023   1.484   .     S
C1024  C1025   1.424   .     A
C1024  C492    1.431   1_556 S
C1024  C495    1.428   1_556 S
C1025  C1029   1.411   .     A
C1027  C1028   1.391   .     A
C1027  C495    1.422   1_556 S
C1027  C487    1.400   1_556 S
C1028  C1029   1.384   .     A
C1028  H1036   1.084   .     S
C1029  H1041   1.079   .     S
H1032  O1048   1.014   .     S
H1033  O1050   1.014   .     S
H1034  C892    1.086   1_655 S
O1042  Zn1059  1.954   .     S
O1042  Zn1062  1.929   .     S
O1042  Zn1061  1.948   .     S
O1042  Zn1060  1.943   .     S
O1043  Zn1060  1.930   .     S
O1044  Zn1062  1.935   .     S
O1045  Zn1061  1.928   .     S
O1046  Zn1059  1.922   .     S
O1048  C667    1.399   1_565 S
O1051  Zn1059  1.940   .     S
O1052  Zn1062  1.946   .     S
O1053  Zn1060  1.924   .     S
O1054  Zn1061  1.930   .     S
O1055  Zn1062  1.931   .     S
O1056  Zn1059  1.927   .     S
O1057  Zn1060  1.945   .     S
O1058  Zn1061  1.937   .     S
