data_str_m2_o1_o10_pcu_sym.144
_audit_creation_date              2020-01-03
_audit_creation_method            'Materials Studio'
_symmetry_space_group_name_H-M    'P1'
_symmetry_Int_Tables_number       1
_symmetry_cell_setting            triclinic
loop_
_symmetry_equiv_pos_as_xyz
  x,y,z
_cell_length_a                    26.1828
_cell_length_b                    32.6647
_cell_length_c                    28.7470
_cell_angle_alpha                 88.6602
_cell_angle_beta                  96.8574
_cell_angle_gamma                 91.9976
loop_
_atom_site_label
_atom_site_type_symbol
_atom_site_fract_x
_atom_site_fract_y
_atom_site_fract_z
_atom_site_U_iso_or_equiv
_atom_site_adp_type
_atom_site_occupancy
C1     C     0.16925   0.08752   0.16739   0.00000  Uiso   1.00
C2     C     0.16696   0.24594   0.16661   0.00000  Uiso   1.00
C3     C     0.06810   0.16636   0.15486   0.00000  Uiso   1.00
C4     C     0.26525   0.16689   0.17850   0.00000  Uiso   1.00
C5     C     0.01301   0.16534   0.14834   0.00000  Uiso   1.00
C6     C     0.32036   0.16770   0.18509   0.00000  Uiso   1.00
C7     C     0.19170   0.02230   0.13189   0.00000  Uiso   1.00
C8     C     0.15134   0.31149   0.20486   0.00000  Uiso   1.00
C9     C     0.19506   0.31318   0.13483   0.00000  Uiso   1.00
C10    C     0.16116   0.02009   0.20861   0.00000  Uiso   1.00
C11    C     0.16924   0.29067   0.16772   0.00000  Uiso   1.00
C12    C     0.17364   0.04296   0.16895   0.00000  Uiso   1.00
C13    C     0.13151   0.14336   0.02200   0.00000  Uiso   1.00
C14    C     0.20174   0.18979   0.31115   0.00000  Uiso   1.00
C15    C     0.13162   0.14290   0.30606   0.00000  Uiso   1.00
C16    C     0.20238   0.18942   0.02695   0.00000  Uiso   1.00
Cu17   Cu    0.16667   0.16667   0.21355   0.00000  Uiso   1.00
Cu18   Cu    0.16667   0.16666   0.11978   0.00000  Uiso   1.00
H19    H     0.32709   0.16233   0.11291   0.00000  Uiso   1.00
H20    H     0.00633   0.17047   0.22057   0.00000  Uiso   1.00
H21    H     0.10362   0.12452   0.03837   0.00000  Uiso   1.00
H22    H     0.22996   0.20824   0.29470   0.00000  Uiso   1.00
N23    N     0.16668   0.16668   0.28403   0.00000  Uiso   1.00
N24    N     0.16665   0.16666   0.04931   0.00000  Uiso   1.00
O25    O     0.16666   0.10655   0.20625   0.00000  Uiso   1.00
O26    O     0.16667   0.22678   0.12709   0.00000  Uiso   1.00
O27    O     0.16666   0.10654   0.12706   0.00000  Uiso   1.00
O28    O     0.16667   0.22679   0.20628   0.00000  Uiso   1.00
O29    O     0.09161   0.16667   0.19712   0.00000  Uiso   1.00
O30    O     0.24172   0.16666   0.13621   0.00000  Uiso   1.00
O31    O     0.09161   0.16666   0.11793   0.00000  Uiso   1.00
O32    O     0.24172   0.16667   0.21540   0.00000  Uiso   1.00
Br33   Br    0.21928   0.04987   0.07975   0.00000  Uiso   1.00
Br34   Br    0.11491   0.28529   0.25287   0.00000  Uiso   1.00
O35    O     0.22980   0.29477   0.11020   0.00000  Uiso   1.00
C36    C     0.27840   0.29408   0.13833   0.00000  Uiso   1.00
H37    H     0.28588   0.26192   0.14991   0.00000  Uiso   1.00
H38    H     0.28114   0.31268   0.17083   0.00000  Uiso   1.00
C39    C     0.32077   0.30993   0.10949   0.00000  Uiso   1.00
H40    H     0.31934   0.29255   0.07671   0.00000  Uiso   1.00
H41    H     0.31506   0.00934   0.09992   0.00000  Uiso   1.00
C42    C     0.04055   0.30600   0.13681   0.00000  Uiso   1.00
H43    H     0.04351   0.32440   0.16908   0.00000  Uiso   1.00
H44    H     0.07024   0.31766   0.11486   0.00000  Uiso   1.00
H45    H     0.04790   0.27339   0.14640   0.00000  Uiso   1.00
O46    O     0.15946   0.03778   0.25172   0.00000  Uiso   1.00
C47    C     0.21056   0.04561   0.27324   0.00000  Uiso   1.00
H48    H     0.20872   0.06806   0.30138   0.00000  Uiso   1.00
H49    H     0.23578   0.06029   0.24854   0.00000  Uiso   1.00
C50    C     0.23544   0.00671   0.29542   0.00000  Uiso   1.00
H51    H     0.21342   0.32809   0.32385   0.00000  Uiso   1.00
H52    H     0.23510   0.31594   0.26882   0.00000  Uiso   1.00
C53    C     0.29141   0.01540   0.31515   0.00000  Uiso   1.00
H54    H     0.31413   0.02627   0.28674   0.00000  Uiso   1.00
H55    H     0.30836   0.32017   0.33077   0.00000  Uiso   1.00
H56    H     0.29404   0.03902   0.00920   0.00000  Uiso   1.00
Br57   Br    0.08173   0.10673   0.27283   0.00000  Uiso   1.00
Br58   Br    0.25722   0.22059   0.05888   0.00000  Uiso   1.00
C59    C     0.50258   0.08752   0.16739   0.00000  Uiso   1.00
C60    C     0.50029   0.24594   0.16661   0.00000  Uiso   1.00
C61    C     0.40143   0.16636   0.15486   0.00000  Uiso   1.00
C62    C     0.59858   0.16689   0.17850   0.00000  Uiso   1.00
C63    C     0.34635   0.16534   0.14834   0.00000  Uiso   1.00
C64    C     0.65369   0.16770   0.18509   0.00000  Uiso   1.00
C65    C     0.52503   0.02230   0.13189   0.00000  Uiso   1.00
C66    C     0.48467   0.31149   0.20486   0.00000  Uiso   1.00
C67    C     0.52839   0.31318   0.13483   0.00000  Uiso   1.00
C68    C     0.49450   0.02009   0.20861   0.00000  Uiso   1.00
C69    C     0.50257   0.29067   0.16772   0.00000  Uiso   1.00
C70    C     0.50698   0.04296   0.16895   0.00000  Uiso   1.00
C71    C     0.46484   0.14336   0.02200   0.00000  Uiso   1.00
C72    C     0.53508   0.18979   0.31115   0.00000  Uiso   1.00
C73    C     0.46495   0.14290   0.30606   0.00000  Uiso   1.00
C74    C     0.53572   0.18942   0.02695   0.00000  Uiso   1.00
Cu75   Cu    0.50000   0.16667   0.21355   0.00000  Uiso   1.00
Cu76   Cu    0.50000   0.16666   0.11978   0.00000  Uiso   1.00
H77    H     0.66042   0.16233   0.11291   0.00000  Uiso   1.00
H78    H     0.33966   0.17047   0.22057   0.00000  Uiso   1.00
H79    H     0.43696   0.12452   0.03837   0.00000  Uiso   1.00
H80    H     0.56329   0.20824   0.29470   0.00000  Uiso   1.00
N81    N     0.50001   0.16668   0.28403   0.00000  Uiso   1.00
N82    N     0.49999   0.16666   0.04931   0.00000  Uiso   1.00
O83    O     0.50000   0.10655   0.20625   0.00000  Uiso   1.00
O84    O     0.50000   0.22678   0.12709   0.00000  Uiso   1.00
O85    O     0.50000   0.10654   0.12706   0.00000  Uiso   1.00
O86    O     0.50000   0.22679   0.20628   0.00000  Uiso   1.00
O87    O     0.42495   0.16667   0.19712   0.00000  Uiso   1.00
O88    O     0.57505   0.16666   0.13621   0.00000  Uiso   1.00
O89    O     0.42494   0.16666   0.11793   0.00000  Uiso   1.00
O90    O     0.57506   0.16667   0.21540   0.00000  Uiso   1.00
Br91   Br    0.55261   0.04987   0.07975   0.00000  Uiso   1.00
Br92   Br    0.44825   0.28529   0.25287   0.00000  Uiso   1.00
O93    O     0.56313   0.29477   0.11020   0.00000  Uiso   1.00
C94    C     0.61173   0.29408   0.13833   0.00000  Uiso   1.00
H95    H     0.61922   0.26192   0.14991   0.00000  Uiso   1.00
H96    H     0.61447   0.31268   0.17083   0.00000  Uiso   1.00
C97    C     0.65410   0.30993   0.10949   0.00000  Uiso   1.00
H98    H     0.65267   0.29255   0.07671   0.00000  Uiso   1.00
H99    H     0.64840   0.00934   0.09992   0.00000  Uiso   1.00
C100   C     0.37388   0.30600   0.13681   0.00000  Uiso   1.00
H101   H     0.37684   0.32440   0.16908   0.00000  Uiso   1.00
H102   H     0.40357   0.31766   0.11486   0.00000  Uiso   1.00
H103   H     0.38124   0.27339   0.14640   0.00000  Uiso   1.00
O104   O     0.49279   0.03778   0.25172   0.00000  Uiso   1.00
C105   C     0.54389   0.04561   0.27324   0.00000  Uiso   1.00
H106   H     0.54205   0.06806   0.30138   0.00000  Uiso   1.00
H107   H     0.56911   0.06029   0.24854   0.00000  Uiso   1.00
C108   C     0.56877   0.00671   0.29542   0.00000  Uiso   1.00
H109   H     0.54675   0.32809   0.32385   0.00000  Uiso   1.00
H110   H     0.56844   0.31594   0.26882   0.00000  Uiso   1.00
C111   C     0.62475   0.01540   0.31515   0.00000  Uiso   1.00
H112   H     0.64747   0.02627   0.28674   0.00000  Uiso   1.00
H113   H     0.64170   0.32017   0.33077   0.00000  Uiso   1.00
H114   H     0.62737   0.03902   0.00920   0.00000  Uiso   1.00
Br115  Br    0.41506   0.10673   0.27283   0.00000  Uiso   1.00
Br116  Br    0.59055   0.22059   0.05888   0.00000  Uiso   1.00
C117   C     0.83592   0.08752   0.16739   0.00000  Uiso   1.00
C118   C     0.83362   0.24594   0.16661   0.00000  Uiso   1.00
C119   C     0.73477   0.16636   0.15486   0.00000  Uiso   1.00
C120   C     0.93191   0.16689   0.17850   0.00000  Uiso   1.00
C121   C     0.67968   0.16534   0.14834   0.00000  Uiso   1.00
C122   C     0.98702   0.16770   0.18509   0.00000  Uiso   1.00
C123   C     0.85837   0.02230   0.13189   0.00000  Uiso   1.00
C124   C     0.81800   0.31149   0.20486   0.00000  Uiso   1.00
C125   C     0.86173   0.31318   0.13483   0.00000  Uiso   1.00
C126   C     0.82783   0.02009   0.20861   0.00000  Uiso   1.00
C127   C     0.83590   0.29067   0.16772   0.00000  Uiso   1.00
C128   C     0.84031   0.04296   0.16895   0.00000  Uiso   1.00
C129   C     0.79818   0.14336   0.02200   0.00000  Uiso   1.00
C130   C     0.86841   0.18979   0.31115   0.00000  Uiso   1.00
C131   C     0.79828   0.14290   0.30606   0.00000  Uiso   1.00
C132   C     0.86905   0.18942   0.02695   0.00000  Uiso   1.00
Cu133  Cu    0.83333   0.16667   0.21355   0.00000  Uiso   1.00
Cu134  Cu    0.83333   0.16666   0.11978   0.00000  Uiso   1.00
H135   H     0.99376   0.16233   0.11291   0.00000  Uiso   1.00
H136   H     0.67299   0.17047   0.22057   0.00000  Uiso   1.00
H137   H     0.77029   0.12452   0.03837   0.00000  Uiso   1.00
H138   H     0.89662   0.20824   0.29470   0.00000  Uiso   1.00
N139   N     0.83335   0.16668   0.28403   0.00000  Uiso   1.00
N140   N     0.83332   0.16666   0.04931   0.00000  Uiso   1.00
O141   O     0.83333   0.10655   0.20625   0.00000  Uiso   1.00
O142   O     0.83334   0.22678   0.12709   0.00000  Uiso   1.00
O143   O     0.83333   0.10654   0.12706   0.00000  Uiso   1.00
O144   O     0.83334   0.22679   0.20628   0.00000  Uiso   1.00
O145   O     0.75828   0.16667   0.19712   0.00000  Uiso   1.00
O146   O     0.90839   0.16666   0.13621   0.00000  Uiso   1.00
O147   O     0.75828   0.16666   0.11793   0.00000  Uiso   1.00
O148   O     0.90839   0.16667   0.21540   0.00000  Uiso   1.00
Br149  Br    0.88595   0.04987   0.07975   0.00000  Uiso   1.00
Br150  Br    0.78158   0.28529   0.25287   0.00000  Uiso   1.00
O151   O     0.89646   0.29477   0.11020   0.00000  Uiso   1.00
C152   C     0.94507   0.29408   0.13833   0.00000  Uiso   1.00
H153   H     0.95255   0.26192   0.14991   0.00000  Uiso   1.00
H154   H     0.94780   0.31268   0.17083   0.00000  Uiso   1.00
C155   C     0.98744   0.30993   0.10949   0.00000  Uiso   1.00
H156   H     0.98601   0.29255   0.07671   0.00000  Uiso   1.00
H157   H     0.98173   0.00934   0.09992   0.00000  Uiso   1.00
C158   C     0.70722   0.30600   0.13681   0.00000  Uiso   1.00
H159   H     0.71018   0.32440   0.16908   0.00000  Uiso   1.00
H160   H     0.73691   0.31766   0.11486   0.00000  Uiso   1.00
H161   H     0.71457   0.27339   0.14640   0.00000  Uiso   1.00
O162   O     0.82612   0.03778   0.25172   0.00000  Uiso   1.00
C163   C     0.87723   0.04561   0.27324   0.00000  Uiso   1.00
H164   H     0.87539   0.06806   0.30138   0.00000  Uiso   1.00
H165   H     0.90244   0.06029   0.24854   0.00000  Uiso   1.00
C166   C     0.90210   0.00671   0.29542   0.00000  Uiso   1.00
H167   H     0.88009   0.32809   0.32385   0.00000  Uiso   1.00
H168   H     0.90177   0.31594   0.26882   0.00000  Uiso   1.00
C169   C     0.95808   0.01540   0.31515   0.00000  Uiso   1.00
H170   H     0.98080   0.02627   0.28674   0.00000  Uiso   1.00
H171   H     0.97503   0.32017   0.33077   0.00000  Uiso   1.00
H172   H     0.96071   0.03902   0.00920   0.00000  Uiso   1.00
Br173  Br    0.74840   0.10673   0.27283   0.00000  Uiso   1.00
Br174  Br    0.92389   0.22059   0.05888   0.00000  Uiso   1.00
C175   C     0.16925   0.42086   0.16739   0.00000  Uiso   1.00
C176   C     0.16696   0.57927   0.16661   0.00000  Uiso   1.00
C177   C     0.06810   0.49969   0.15486   0.00000  Uiso   1.00
C178   C     0.26525   0.50022   0.17850   0.00000  Uiso   1.00
C179   C     0.01301   0.49868   0.14834   0.00000  Uiso   1.00
C180   C     0.32036   0.50103   0.18509   0.00000  Uiso   1.00
C181   C     0.19170   0.35563   0.13189   0.00000  Uiso   1.00
C182   C     0.15134   0.64483   0.20486   0.00000  Uiso   1.00
C183   C     0.19506   0.64652   0.13483   0.00000  Uiso   1.00
C184   C     0.16116   0.35343   0.20861   0.00000  Uiso   1.00
C185   C     0.16924   0.62400   0.16772   0.00000  Uiso   1.00
C186   C     0.17364   0.37629   0.16895   0.00000  Uiso   1.00
C187   C     0.13151   0.47669   0.02200   0.00000  Uiso   1.00
C188   C     0.20174   0.52312   0.31115   0.00000  Uiso   1.00
C189   C     0.13162   0.47623   0.30606   0.00000  Uiso   1.00
C190   C     0.20238   0.52275   0.02695   0.00000  Uiso   1.00
Cu191  Cu    0.16667   0.50001   0.21355   0.00000  Uiso   1.00
Cu192  Cu    0.16667   0.49999   0.11978   0.00000  Uiso   1.00
H193   H     0.32709   0.49566   0.11291   0.00000  Uiso   1.00
H194   H     0.00633   0.50380   0.22057   0.00000  Uiso   1.00
H195   H     0.10362   0.45785   0.03837   0.00000  Uiso   1.00
H196   H     0.22996   0.54157   0.29470   0.00000  Uiso   1.00
N197   N     0.16668   0.50001   0.28403   0.00000  Uiso   1.00
N198   N     0.16665   0.49999   0.04931   0.00000  Uiso   1.00
O199   O     0.16666   0.43989   0.20625   0.00000  Uiso   1.00
O200   O     0.16667   0.56011   0.12709   0.00000  Uiso   1.00
O201   O     0.16666   0.43988   0.12706   0.00000  Uiso   1.00
O202   O     0.16667   0.56012   0.20628   0.00000  Uiso   1.00
O203   O     0.09161   0.50000   0.19712   0.00000  Uiso   1.00
O204   O     0.24172   0.50000   0.13621   0.00000  Uiso   1.00
O205   O     0.09161   0.49999   0.11793   0.00000  Uiso   1.00
O206   O     0.24172   0.50001   0.21540   0.00000  Uiso   1.00
Br207  Br    0.21928   0.38320   0.07975   0.00000  Uiso   1.00
Br208  Br    0.11491   0.61862   0.25287   0.00000  Uiso   1.00
O209   O     0.22980   0.62810   0.11020   0.00000  Uiso   1.00
C210   C     0.27840   0.62742   0.13833   0.00000  Uiso   1.00
H211   H     0.28588   0.59525   0.14991   0.00000  Uiso   1.00
H212   H     0.28114   0.64601   0.17083   0.00000  Uiso   1.00
C213   C     0.32077   0.64326   0.10949   0.00000  Uiso   1.00
H214   H     0.31934   0.62588   0.07671   0.00000  Uiso   1.00
H215   H     0.31506   0.34267   0.09992   0.00000  Uiso   1.00
C216   C     0.04055   0.63933   0.13681   0.00000  Uiso   1.00
H217   H     0.04351   0.65774   0.16908   0.00000  Uiso   1.00
H218   H     0.07024   0.65100   0.11486   0.00000  Uiso   1.00
H219   H     0.04790   0.60673   0.14640   0.00000  Uiso   1.00
O220   O     0.15946   0.37111   0.25172   0.00000  Uiso   1.00
C221   C     0.21056   0.37894   0.27324   0.00000  Uiso   1.00
H222   H     0.20872   0.40139   0.30138   0.00000  Uiso   1.00
H223   H     0.23578   0.39362   0.24854   0.00000  Uiso   1.00
C224   C     0.23544   0.34005   0.29542   0.00000  Uiso   1.00
H225   H     0.21342   0.66142   0.32385   0.00000  Uiso   1.00
H226   H     0.23510   0.64927   0.26882   0.00000  Uiso   1.00
C227   C     0.29141   0.34874   0.31515   0.00000  Uiso   1.00
H228   H     0.31413   0.35960   0.28674   0.00000  Uiso   1.00
H229   H     0.30836   0.65351   0.33077   0.00000  Uiso   1.00
H230   H     0.29404   0.37236   0.00920   0.00000  Uiso   1.00
Br231  Br    0.08173   0.44007   0.27283   0.00000  Uiso   1.00
Br232  Br    0.25722   0.55392   0.05888   0.00000  Uiso   1.00
C233   C     0.50258   0.42086   0.16739   0.00000  Uiso   1.00
C234   C     0.50029   0.57927   0.16661   0.00000  Uiso   1.00
C235   C     0.40143   0.49969   0.15486   0.00000  Uiso   1.00
C236   C     0.59858   0.50022   0.17850   0.00000  Uiso   1.00
C237   C     0.34635   0.49868   0.14834   0.00000  Uiso   1.00
C238   C     0.65369   0.50103   0.18509   0.00000  Uiso   1.00
C239   C     0.52503   0.35563   0.13189   0.00000  Uiso   1.00
C240   C     0.48467   0.64483   0.20486   0.00000  Uiso   1.00
C241   C     0.52839   0.64652   0.13483   0.00000  Uiso   1.00
C242   C     0.49450   0.35343   0.20861   0.00000  Uiso   1.00
C243   C     0.50257   0.62400   0.16772   0.00000  Uiso   1.00
C244   C     0.50698   0.37629   0.16895   0.00000  Uiso   1.00
C245   C     0.46484   0.47669   0.02200   0.00000  Uiso   1.00
C246   C     0.53508   0.52312   0.31115   0.00000  Uiso   1.00
C247   C     0.46495   0.47623   0.30606   0.00000  Uiso   1.00
C248   C     0.53572   0.52275   0.02695   0.00000  Uiso   1.00
Cu249  Cu    0.50000   0.50001   0.21355   0.00000  Uiso   1.00
Cu250  Cu    0.50000   0.49999   0.11978   0.00000  Uiso   1.00
H251   H     0.66042   0.49566   0.11291   0.00000  Uiso   1.00
H252   H     0.33966   0.50380   0.22057   0.00000  Uiso   1.00
H253   H     0.43696   0.45785   0.03837   0.00000  Uiso   1.00
H254   H     0.56329   0.54157   0.29470   0.00000  Uiso   1.00
N255   N     0.50001   0.50001   0.28403   0.00000  Uiso   1.00
N256   N     0.49999   0.49999   0.04931   0.00000  Uiso   1.00
O257   O     0.50000   0.43989   0.20625   0.00000  Uiso   1.00
O258   O     0.50000   0.56011   0.12709   0.00000  Uiso   1.00
O259   O     0.50000   0.43988   0.12706   0.00000  Uiso   1.00
O260   O     0.50000   0.56012   0.20628   0.00000  Uiso   1.00
O261   O     0.42495   0.50000   0.19712   0.00000  Uiso   1.00
O262   O     0.57505   0.50000   0.13621   0.00000  Uiso   1.00
O263   O     0.42494   0.49999   0.11793   0.00000  Uiso   1.00
O264   O     0.57506   0.50001   0.21540   0.00000  Uiso   1.00
Br265  Br    0.55261   0.38320   0.07975   0.00000  Uiso   1.00
Br266  Br    0.44825   0.61862   0.25287   0.00000  Uiso   1.00
O267   O     0.56313   0.62810   0.11020   0.00000  Uiso   1.00
C268   C     0.61173   0.62742   0.13833   0.00000  Uiso   1.00
H269   H     0.61922   0.59525   0.14991   0.00000  Uiso   1.00
H270   H     0.61447   0.64601   0.17083   0.00000  Uiso   1.00
C271   C     0.65410   0.64326   0.10949   0.00000  Uiso   1.00
H272   H     0.65267   0.62588   0.07671   0.00000  Uiso   1.00
H273   H     0.64840   0.34267   0.09992   0.00000  Uiso   1.00
C274   C     0.37388   0.63933   0.13681   0.00000  Uiso   1.00
H275   H     0.37684   0.65774   0.16908   0.00000  Uiso   1.00
H276   H     0.40357   0.65100   0.11486   0.00000  Uiso   1.00
H277   H     0.38124   0.60673   0.14640   0.00000  Uiso   1.00
O278   O     0.49279   0.37111   0.25172   0.00000  Uiso   1.00
C279   C     0.54389   0.37894   0.27324   0.00000  Uiso   1.00
H280   H     0.54205   0.40139   0.30138   0.00000  Uiso   1.00
H281   H     0.56911   0.39362   0.24854   0.00000  Uiso   1.00
C282   C     0.56877   0.34005   0.29542   0.00000  Uiso   1.00
H283   H     0.54675   0.66142   0.32385   0.00000  Uiso   1.00
H284   H     0.56844   0.64927   0.26882   0.00000  Uiso   1.00
C285   C     0.62475   0.34874   0.31515   0.00000  Uiso   1.00
H286   H     0.64747   0.35960   0.28674   0.00000  Uiso   1.00
H287   H     0.64170   0.65351   0.33077   0.00000  Uiso   1.00
H288   H     0.62737   0.37236   0.00920   0.00000  Uiso   1.00
Br289  Br    0.41506   0.44007   0.27283   0.00000  Uiso   1.00
Br290  Br    0.59055   0.55392   0.05888   0.00000  Uiso   1.00
C291   C     0.83592   0.42086   0.16739   0.00000  Uiso   1.00
C292   C     0.83362   0.57927   0.16661   0.00000  Uiso   1.00
C293   C     0.73477   0.49969   0.15486   0.00000  Uiso   1.00
C294   C     0.93191   0.50022   0.17850   0.00000  Uiso   1.00
C295   C     0.67968   0.49868   0.14834   0.00000  Uiso   1.00
C296   C     0.98702   0.50103   0.18509   0.00000  Uiso   1.00
C297   C     0.85837   0.35563   0.13189   0.00000  Uiso   1.00
C298   C     0.81800   0.64483   0.20486   0.00000  Uiso   1.00
C299   C     0.86173   0.64652   0.13483   0.00000  Uiso   1.00
C300   C     0.82783   0.35343   0.20861   0.00000  Uiso   1.00
C301   C     0.83590   0.62400   0.16772   0.00000  Uiso   1.00
C302   C     0.84031   0.37629   0.16895   0.00000  Uiso   1.00
C303   C     0.79818   0.47669   0.02200   0.00000  Uiso   1.00
C304   C     0.86841   0.52312   0.31115   0.00000  Uiso   1.00
C305   C     0.79828   0.47623   0.30606   0.00000  Uiso   1.00
C306   C     0.86905   0.52275   0.02695   0.00000  Uiso   1.00
Cu307  Cu    0.83333   0.50001   0.21355   0.00000  Uiso   1.00
Cu308  Cu    0.83333   0.49999   0.11978   0.00000  Uiso   1.00
H309   H     0.99376   0.49566   0.11291   0.00000  Uiso   1.00
H310   H     0.67299   0.50380   0.22057   0.00000  Uiso   1.00
H311   H     0.77029   0.45785   0.03837   0.00000  Uiso   1.00
H312   H     0.89662   0.54157   0.29470   0.00000  Uiso   1.00
N313   N     0.83335   0.50001   0.28403   0.00000  Uiso   1.00
N314   N     0.83332   0.49999   0.04931   0.00000  Uiso   1.00
O315   O     0.83333   0.43989   0.20625   0.00000  Uiso   1.00
O316   O     0.83334   0.56011   0.12709   0.00000  Uiso   1.00
O317   O     0.83333   0.43988   0.12706   0.00000  Uiso   1.00
O318   O     0.83334   0.56012   0.20628   0.00000  Uiso   1.00
O319   O     0.75828   0.50000   0.19712   0.00000  Uiso   1.00
O320   O     0.90839   0.50000   0.13621   0.00000  Uiso   1.00
O321   O     0.75828   0.49999   0.11793   0.00000  Uiso   1.00
O322   O     0.90839   0.50001   0.21540   0.00000  Uiso   1.00
Br323  Br    0.88595   0.38320   0.07975   0.00000  Uiso   1.00
Br324  Br    0.78158   0.61862   0.25287   0.00000  Uiso   1.00
O325   O     0.89646   0.62810   0.11020   0.00000  Uiso   1.00
C326   C     0.94507   0.62742   0.13833   0.00000  Uiso   1.00
H327   H     0.95255   0.59525   0.14991   0.00000  Uiso   1.00
H328   H     0.94780   0.64601   0.17083   0.00000  Uiso   1.00
C329   C     0.98744   0.64326   0.10949   0.00000  Uiso   1.00
H330   H     0.98601   0.62588   0.07671   0.00000  Uiso   1.00
H331   H     0.98173   0.34267   0.09992   0.00000  Uiso   1.00
C332   C     0.70722   0.63933   0.13681   0.00000  Uiso   1.00
H333   H     0.71018   0.65774   0.16908   0.00000  Uiso   1.00
H334   H     0.73691   0.65100   0.11486   0.00000  Uiso   1.00
H335   H     0.71457   0.60673   0.14640   0.00000  Uiso   1.00
O336   O     0.82612   0.37111   0.25172   0.00000  Uiso   1.00
C337   C     0.87723   0.37894   0.27324   0.00000  Uiso   1.00
H338   H     0.87539   0.40139   0.30138   0.00000  Uiso   1.00
H339   H     0.90244   0.39362   0.24854   0.00000  Uiso   1.00
C340   C     0.90210   0.34005   0.29542   0.00000  Uiso   1.00
H341   H     0.88009   0.66142   0.32385   0.00000  Uiso   1.00
H342   H     0.90177   0.64927   0.26882   0.00000  Uiso   1.00
C343   C     0.95808   0.34874   0.31515   0.00000  Uiso   1.00
H344   H     0.98080   0.35960   0.28674   0.00000  Uiso   1.00
H345   H     0.97503   0.65351   0.33077   0.00000  Uiso   1.00
H346   H     0.96071   0.37236   0.00920   0.00000  Uiso   1.00
Br347  Br    0.74840   0.44007   0.27283   0.00000  Uiso   1.00
Br348  Br    0.92389   0.55392   0.05888   0.00000  Uiso   1.00
C349   C     0.16925   0.75419   0.16739   0.00000  Uiso   1.00
C350   C     0.16696   0.91261   0.16661   0.00000  Uiso   1.00
C351   C     0.06810   0.83303   0.15486   0.00000  Uiso   1.00
C352   C     0.26525   0.83356   0.17850   0.00000  Uiso   1.00
C353   C     0.01301   0.83201   0.14834   0.00000  Uiso   1.00
C354   C     0.32036   0.83436   0.18509   0.00000  Uiso   1.00
C355   C     0.19170   0.68897   0.13189   0.00000  Uiso   1.00
C356   C     0.15134   0.97816   0.20486   0.00000  Uiso   1.00
C357   C     0.19506   0.97985   0.13483   0.00000  Uiso   1.00
C358   C     0.16116   0.68676   0.20861   0.00000  Uiso   1.00
C359   C     0.16924   0.95734   0.16772   0.00000  Uiso   1.00
C360   C     0.17364   0.70962   0.16895   0.00000  Uiso   1.00
C361   C     0.13151   0.81003   0.02200   0.00000  Uiso   1.00
C362   C     0.20174   0.85646   0.31115   0.00000  Uiso   1.00
C363   C     0.13162   0.80956   0.30606   0.00000  Uiso   1.00
C364   C     0.20238   0.85609   0.02695   0.00000  Uiso   1.00
Cu365  Cu    0.16667   0.83334   0.21355   0.00000  Uiso   1.00
Cu366  Cu    0.16667   0.83333   0.11978   0.00000  Uiso   1.00
H367   H     0.32709   0.82899   0.11291   0.00000  Uiso   1.00
H368   H     0.00633   0.83713   0.22057   0.00000  Uiso   1.00
H369   H     0.10362   0.79119   0.03837   0.00000  Uiso   1.00
H370   H     0.22996   0.87491   0.29470   0.00000  Uiso   1.00
N371   N     0.16668   0.83334   0.28403   0.00000  Uiso   1.00
N372   N     0.16665   0.83332   0.04931   0.00000  Uiso   1.00
O373   O     0.16666   0.77322   0.20625   0.00000  Uiso   1.00
O374   O     0.16667   0.89345   0.12709   0.00000  Uiso   1.00
O375   O     0.16666   0.77321   0.12706   0.00000  Uiso   1.00
O376   O     0.16667   0.89346   0.20628   0.00000  Uiso   1.00
O377   O     0.09161   0.83334   0.19712   0.00000  Uiso   1.00
O378   O     0.24172   0.83333   0.13621   0.00000  Uiso   1.00
O379   O     0.09161   0.83333   0.11793   0.00000  Uiso   1.00
O380   O     0.24172   0.83334   0.21540   0.00000  Uiso   1.00
Br381  Br    0.21928   0.71653   0.07975   0.00000  Uiso   1.00
Br382  Br    0.11491   0.95196   0.25287   0.00000  Uiso   1.00
O383   O     0.22980   0.96143   0.11020   0.00000  Uiso   1.00
C384   C     0.27840   0.96075   0.13833   0.00000  Uiso   1.00
H385   H     0.28588   0.92859   0.14991   0.00000  Uiso   1.00
H386   H     0.28114   0.97935   0.17083   0.00000  Uiso   1.00
C387   C     0.32077   0.97659   0.10949   0.00000  Uiso   1.00
H388   H     0.31934   0.95922   0.07671   0.00000  Uiso   1.00
H389   H     0.31506   0.67600   0.09992   0.00000  Uiso   1.00
C390   C     0.04055   0.97266   0.13681   0.00000  Uiso   1.00
H391   H     0.04351   0.99107   0.16908   0.00000  Uiso   1.00
H392   H     0.07024   0.98433   0.11486   0.00000  Uiso   1.00
H393   H     0.04790   0.94006   0.14640   0.00000  Uiso   1.00
O394   O     0.15946   0.70444   0.25172   0.00000  Uiso   1.00
C395   C     0.21056   0.71228   0.27324   0.00000  Uiso   1.00
H396   H     0.20872   0.73473   0.30138   0.00000  Uiso   1.00
H397   H     0.23578   0.72695   0.24854   0.00000  Uiso   1.00
C398   C     0.23544   0.67338   0.29542   0.00000  Uiso   1.00
H399   H     0.21342   0.99475   0.32385   0.00000  Uiso   1.00
H400   H     0.23510   0.98260   0.26882   0.00000  Uiso   1.00
C401   C     0.29141   0.68207   0.31515   0.00000  Uiso   1.00
H402   H     0.31413   0.69294   0.28674   0.00000  Uiso   1.00
H403   H     0.30836   0.98684   0.33077   0.00000  Uiso   1.00
H404   H     0.29404   0.70569   0.00920   0.00000  Uiso   1.00
Br405  Br    0.08173   0.77340   0.27283   0.00000  Uiso   1.00
Br406  Br    0.25722   0.88726   0.05888   0.00000  Uiso   1.00
C407   C     0.50258   0.75419   0.16739   0.00000  Uiso   1.00
C408   C     0.50029   0.91261   0.16661   0.00000  Uiso   1.00
C409   C     0.40143   0.83303   0.15486   0.00000  Uiso   1.00
C410   C     0.59858   0.83356   0.17850   0.00000  Uiso   1.00
C411   C     0.34635   0.83201   0.14834   0.00000  Uiso   1.00
C412   C     0.65369   0.83436   0.18509   0.00000  Uiso   1.00
C413   C     0.52503   0.68897   0.13189   0.00000  Uiso   1.00
C414   C     0.48467   0.97816   0.20486   0.00000  Uiso   1.00
C415   C     0.52839   0.97985   0.13483   0.00000  Uiso   1.00
C416   C     0.49450   0.68676   0.20861   0.00000  Uiso   1.00
C417   C     0.50257   0.95734   0.16772   0.00000  Uiso   1.00
C418   C     0.50698   0.70962   0.16895   0.00000  Uiso   1.00
C419   C     0.46484   0.81003   0.02200   0.00000  Uiso   1.00
C420   C     0.53508   0.85646   0.31115   0.00000  Uiso   1.00
C421   C     0.46495   0.80956   0.30606   0.00000  Uiso   1.00
C422   C     0.53572   0.85609   0.02695   0.00000  Uiso   1.00
Cu423  Cu    0.50000   0.83334   0.21355   0.00000  Uiso   1.00
Cu424  Cu    0.50000   0.83333   0.11978   0.00000  Uiso   1.00
H425   H     0.66042   0.82899   0.11291   0.00000  Uiso   1.00
H426   H     0.33966   0.83713   0.22057   0.00000  Uiso   1.00
H427   H     0.43696   0.79119   0.03837   0.00000  Uiso   1.00
H428   H     0.56329   0.87491   0.29470   0.00000  Uiso   1.00
N429   N     0.50001   0.83334   0.28403   0.00000  Uiso   1.00
N430   N     0.49999   0.83332   0.04931   0.00000  Uiso   1.00
O431   O     0.50000   0.77322   0.20625   0.00000  Uiso   1.00
O432   O     0.50000   0.89345   0.12709   0.00000  Uiso   1.00
O433   O     0.50000   0.77321   0.12706   0.00000  Uiso   1.00
O434   O     0.50000   0.89346   0.20628   0.00000  Uiso   1.00
O435   O     0.42495   0.83334   0.19712   0.00000  Uiso   1.00
O436   O     0.57505   0.83333   0.13621   0.00000  Uiso   1.00
O437   O     0.42494   0.83333   0.11793   0.00000  Uiso   1.00
O438   O     0.57506   0.83334   0.21540   0.00000  Uiso   1.00
Br439  Br    0.55261   0.71653   0.07975   0.00000  Uiso   1.00
Br440  Br    0.44825   0.95196   0.25287   0.00000  Uiso   1.00
O441   O     0.56313   0.96143   0.11020   0.00000  Uiso   1.00
C442   C     0.61173   0.96075   0.13833   0.00000  Uiso   1.00
H443   H     0.61922   0.92859   0.14991   0.00000  Uiso   1.00
H444   H     0.61447   0.97935   0.17083   0.00000  Uiso   1.00
C445   C     0.65410   0.97659   0.10949   0.00000  Uiso   1.00
H446   H     0.65267   0.95922   0.07671   0.00000  Uiso   1.00
H447   H     0.64840   0.67600   0.09992   0.00000  Uiso   1.00
C448   C     0.37388   0.97266   0.13681   0.00000  Uiso   1.00
H449   H     0.37684   0.99107   0.16908   0.00000  Uiso   1.00
H450   H     0.40357   0.98433   0.11486   0.00000  Uiso   1.00
H451   H     0.38124   0.94006   0.14640   0.00000  Uiso   1.00
O452   O     0.49279   0.70444   0.25172   0.00000  Uiso   1.00
C453   C     0.54389   0.71228   0.27324   0.00000  Uiso   1.00
H454   H     0.54205   0.73473   0.30138   0.00000  Uiso   1.00
H455   H     0.56911   0.72695   0.24854   0.00000  Uiso   1.00
C456   C     0.56877   0.67338   0.29542   0.00000  Uiso   1.00
H457   H     0.54675   0.99475   0.32385   0.00000  Uiso   1.00
H458   H     0.56844   0.98260   0.26882   0.00000  Uiso   1.00
C459   C     0.62475   0.68207   0.31515   0.00000  Uiso   1.00
H460   H     0.64747   0.69294   0.28674   0.00000  Uiso   1.00
H461   H     0.64170   0.98684   0.33077   0.00000  Uiso   1.00
H462   H     0.62737   0.70569   0.00920   0.00000  Uiso   1.00
Br463  Br    0.41506   0.77340   0.27283   0.00000  Uiso   1.00
Br464  Br    0.59055   0.88726   0.05888   0.00000  Uiso   1.00
C465   C     0.83592   0.75419   0.16739   0.00000  Uiso   1.00
C466   C     0.83362   0.91261   0.16661   0.00000  Uiso   1.00
C467   C     0.73477   0.83303   0.15486   0.00000  Uiso   1.00
C468   C     0.93191   0.83356   0.17850   0.00000  Uiso   1.00
C469   C     0.67968   0.83201   0.14834   0.00000  Uiso   1.00
C470   C     0.98702   0.83436   0.18509   0.00000  Uiso   1.00
C471   C     0.85837   0.68897   0.13189   0.00000  Uiso   1.00
C472   C     0.81800   0.97816   0.20486   0.00000  Uiso   1.00
C473   C     0.86173   0.97985   0.13483   0.00000  Uiso   1.00
C474   C     0.82783   0.68676   0.20861   0.00000  Uiso   1.00
C475   C     0.83590   0.95734   0.16772   0.00000  Uiso   1.00
C476   C     0.84031   0.70962   0.16895   0.00000  Uiso   1.00
C477   C     0.79818   0.81003   0.02200   0.00000  Uiso   1.00
C478   C     0.86841   0.85646   0.31115   0.00000  Uiso   1.00
C479   C     0.79828   0.80956   0.30606   0.00000  Uiso   1.00
C480   C     0.86905   0.85609   0.02695   0.00000  Uiso   1.00
Cu481  Cu    0.83333   0.83334   0.21355   0.00000  Uiso   1.00
Cu482  Cu    0.83333   0.83333   0.11978   0.00000  Uiso   1.00
H483   H     0.99376   0.82899   0.11291   0.00000  Uiso   1.00
H484   H     0.67299   0.83713   0.22057   0.00000  Uiso   1.00
H485   H     0.77029   0.79119   0.03837   0.00000  Uiso   1.00
H486   H     0.89662   0.87491   0.29470   0.00000  Uiso   1.00
N487   N     0.83335   0.83334   0.28403   0.00000  Uiso   1.00
N488   N     0.83332   0.83332   0.04931   0.00000  Uiso   1.00
O489   O     0.83333   0.77322   0.20625   0.00000  Uiso   1.00
O490   O     0.83334   0.89345   0.12709   0.00000  Uiso   1.00
O491   O     0.83333   0.77321   0.12706   0.00000  Uiso   1.00
O492   O     0.83334   0.89346   0.20628   0.00000  Uiso   1.00
O493   O     0.75828   0.83334   0.19712   0.00000  Uiso   1.00
O494   O     0.90839   0.83333   0.13621   0.00000  Uiso   1.00
O495   O     0.75828   0.83333   0.11793   0.00000  Uiso   1.00
O496   O     0.90839   0.83334   0.21540   0.00000  Uiso   1.00
Br497  Br    0.88595   0.71653   0.07975   0.00000  Uiso   1.00
Br498  Br    0.78158   0.95196   0.25287   0.00000  Uiso   1.00
O499   O     0.89646   0.96143   0.11020   0.00000  Uiso   1.00
C500   C     0.94507   0.96075   0.13833   0.00000  Uiso   1.00
H501   H     0.95255   0.92859   0.14991   0.00000  Uiso   1.00
H502   H     0.94780   0.97935   0.17083   0.00000  Uiso   1.00
C503   C     0.98744   0.97659   0.10949   0.00000  Uiso   1.00
H504   H     0.98601   0.95922   0.07671   0.00000  Uiso   1.00
H505   H     0.98173   0.67600   0.09992   0.00000  Uiso   1.00
C506   C     0.70722   0.97266   0.13681   0.00000  Uiso   1.00
H507   H     0.71018   0.99107   0.16908   0.00000  Uiso   1.00
H508   H     0.73691   0.98433   0.11486   0.00000  Uiso   1.00
H509   H     0.71457   0.94006   0.14640   0.00000  Uiso   1.00
O510   O     0.82612   0.70444   0.25172   0.00000  Uiso   1.00
C511   C     0.87723   0.71228   0.27324   0.00000  Uiso   1.00
H512   H     0.87539   0.73473   0.30138   0.00000  Uiso   1.00
H513   H     0.90244   0.72695   0.24854   0.00000  Uiso   1.00
C514   C     0.90210   0.67338   0.29542   0.00000  Uiso   1.00
H515   H     0.88009   0.99475   0.32385   0.00000  Uiso   1.00
H516   H     0.90177   0.98260   0.26882   0.00000  Uiso   1.00
C517   C     0.95808   0.68207   0.31515   0.00000  Uiso   1.00
H518   H     0.98080   0.69294   0.28674   0.00000  Uiso   1.00
H519   H     0.97503   0.98684   0.33077   0.00000  Uiso   1.00
H520   H     0.96071   0.70569   0.00920   0.00000  Uiso   1.00
Br521  Br    0.74840   0.77340   0.27283   0.00000  Uiso   1.00
Br522  Br    0.92389   0.88726   0.05888   0.00000  Uiso   1.00
C523   C     0.16925   0.08752   0.50073   0.00000  Uiso   1.00
C524   C     0.16696   0.24594   0.49994   0.00000  Uiso   1.00
C525   C     0.06810   0.16636   0.48819   0.00000  Uiso   1.00
C526   C     0.26525   0.16689   0.51183   0.00000  Uiso   1.00
C527   C     0.01301   0.16534   0.48167   0.00000  Uiso   1.00
C528   C     0.32036   0.16770   0.51843   0.00000  Uiso   1.00
C529   C     0.19170   0.02230   0.46522   0.00000  Uiso   1.00
C530   C     0.15134   0.31149   0.53819   0.00000  Uiso   1.00
C531   C     0.19506   0.31318   0.46816   0.00000  Uiso   1.00
C532   C     0.16116   0.02009   0.54194   0.00000  Uiso   1.00
C533   C     0.16924   0.29067   0.50105   0.00000  Uiso   1.00
C534   C     0.17364   0.04296   0.50228   0.00000  Uiso   1.00
C535   C     0.13151   0.14336   0.35533   0.00000  Uiso   1.00
C536   C     0.20174   0.18979   0.64448   0.00000  Uiso   1.00
C537   C     0.13162   0.14290   0.63940   0.00000  Uiso   1.00
C538   C     0.20238   0.18942   0.36029   0.00000  Uiso   1.00
Cu539  Cu    0.16667   0.16667   0.54689   0.00000  Uiso   1.00
Cu540  Cu    0.16667   0.16666   0.45311   0.00000  Uiso   1.00
H541   H     0.32709   0.16233   0.44625   0.00000  Uiso   1.00
H542   H     0.00633   0.17047   0.55390   0.00000  Uiso   1.00
H543   H     0.10362   0.12452   0.37171   0.00000  Uiso   1.00
H544   H     0.22996   0.20824   0.62803   0.00000  Uiso   1.00
N545   N     0.16668   0.16668   0.61736   0.00000  Uiso   1.00
N546   N     0.16665   0.16666   0.38264   0.00000  Uiso   1.00
O547   O     0.16666   0.10655   0.53958   0.00000  Uiso   1.00
O548   O     0.16667   0.22678   0.46042   0.00000  Uiso   1.00
O549   O     0.16666   0.10654   0.46039   0.00000  Uiso   1.00
O550   O     0.16667   0.22679   0.53961   0.00000  Uiso   1.00
O551   O     0.09161   0.16667   0.53046   0.00000  Uiso   1.00
O552   O     0.24172   0.16666   0.46954   0.00000  Uiso   1.00
O553   O     0.09161   0.16666   0.45127   0.00000  Uiso   1.00
O554   O     0.24172   0.16667   0.54873   0.00000  Uiso   1.00
Br555  Br    0.21928   0.04987   0.41308   0.00000  Uiso   1.00
Br556  Br    0.11491   0.28529   0.58621   0.00000  Uiso   1.00
O557   O     0.22980   0.29477   0.44354   0.00000  Uiso   1.00
C558   C     0.27840   0.29408   0.47166   0.00000  Uiso   1.00
H559   H     0.28588   0.26192   0.48324   0.00000  Uiso   1.00
H560   H     0.28114   0.31268   0.50416   0.00000  Uiso   1.00
C561   C     0.32077   0.30993   0.44282   0.00000  Uiso   1.00
H562   H     0.31934   0.29255   0.41004   0.00000  Uiso   1.00
H563   H     0.31506   0.00934   0.43326   0.00000  Uiso   1.00
C564   C     0.04055   0.30600   0.47015   0.00000  Uiso   1.00
H565   H     0.04351   0.32440   0.50241   0.00000  Uiso   1.00
H566   H     0.07024   0.31766   0.44819   0.00000  Uiso   1.00
H567   H     0.04790   0.27339   0.47974   0.00000  Uiso   1.00
O568   O     0.15946   0.03778   0.58505   0.00000  Uiso   1.00
C569   C     0.21056   0.04561   0.60657   0.00000  Uiso   1.00
H570   H     0.20872   0.06806   0.63471   0.00000  Uiso   1.00
H571   H     0.23578   0.06029   0.58188   0.00000  Uiso   1.00
C572   C     0.23544   0.00671   0.62875   0.00000  Uiso   1.00
H573   H     0.21342   0.32809   0.65718   0.00000  Uiso   1.00
H574   H     0.23510   0.31594   0.60215   0.00000  Uiso   1.00
C575   C     0.29141   0.01540   0.64849   0.00000  Uiso   1.00
H576   H     0.31413   0.02627   0.62008   0.00000  Uiso   1.00
H577   H     0.30836   0.32017   0.66410   0.00000  Uiso   1.00
H578   H     0.29404   0.03902   0.34253   0.00000  Uiso   1.00
Br579  Br    0.08173   0.10673   0.60617   0.00000  Uiso   1.00
Br580  Br    0.25722   0.22059   0.39221   0.00000  Uiso   1.00
C581   C     0.50258   0.08752   0.50073   0.00000  Uiso   1.00
C582   C     0.50029   0.24594   0.49994   0.00000  Uiso   1.00
C583   C     0.40143   0.16636   0.48819   0.00000  Uiso   1.00
C584   C     0.59858   0.16689   0.51183   0.00000  Uiso   1.00
C585   C     0.34635   0.16534   0.48167   0.00000  Uiso   1.00
C586   C     0.65369   0.16770   0.51843   0.00000  Uiso   1.00
C587   C     0.52503   0.02230   0.46522   0.00000  Uiso   1.00
C588   C     0.48467   0.31149   0.53819   0.00000  Uiso   1.00
C589   C     0.52839   0.31318   0.46816   0.00000  Uiso   1.00
C590   C     0.49450   0.02009   0.54194   0.00000  Uiso   1.00
C591   C     0.50257   0.29067   0.50105   0.00000  Uiso   1.00
C592   C     0.50698   0.04296   0.50228   0.00000  Uiso   1.00
C593   C     0.46484   0.14336   0.35533   0.00000  Uiso   1.00
C594   C     0.53508   0.18979   0.64448   0.00000  Uiso   1.00
C595   C     0.46495   0.14290   0.63940   0.00000  Uiso   1.00
C596   C     0.53572   0.18942   0.36029   0.00000  Uiso   1.00
Cu597  Cu    0.50000   0.16667   0.54689   0.00000  Uiso   1.00
Cu598  Cu    0.50000   0.16666   0.45311   0.00000  Uiso   1.00
H599   H     0.66042   0.16233   0.44625   0.00000  Uiso   1.00
H600   H     0.33966   0.17047   0.55390   0.00000  Uiso   1.00
H601   H     0.43696   0.12452   0.37171   0.00000  Uiso   1.00
H602   H     0.56329   0.20824   0.62803   0.00000  Uiso   1.00
N603   N     0.50001   0.16668   0.61736   0.00000  Uiso   1.00
N604   N     0.49999   0.16666   0.38264   0.00000  Uiso   1.00
O605   O     0.50000   0.10655   0.53958   0.00000  Uiso   1.00
O606   O     0.50000   0.22678   0.46042   0.00000  Uiso   1.00
O607   O     0.50000   0.10654   0.46039   0.00000  Uiso   1.00
O608   O     0.50000   0.22679   0.53961   0.00000  Uiso   1.00
O609   O     0.42495   0.16667   0.53046   0.00000  Uiso   1.00
O610   O     0.57505   0.16666   0.46954   0.00000  Uiso   1.00
O611   O     0.42494   0.16666   0.45127   0.00000  Uiso   1.00
O612   O     0.57506   0.16667   0.54873   0.00000  Uiso   1.00
Br613  Br    0.55261   0.04987   0.41308   0.00000  Uiso   1.00
Br614  Br    0.44825   0.28529   0.58621   0.00000  Uiso   1.00
O615   O     0.56313   0.29477   0.44354   0.00000  Uiso   1.00
C616   C     0.61173   0.29408   0.47166   0.00000  Uiso   1.00
H617   H     0.61922   0.26192   0.48324   0.00000  Uiso   1.00
H618   H     0.61447   0.31268   0.50416   0.00000  Uiso   1.00
C619   C     0.65410   0.30993   0.44282   0.00000  Uiso   1.00
H620   H     0.65267   0.29255   0.41004   0.00000  Uiso   1.00
H621   H     0.64840   0.00934   0.43326   0.00000  Uiso   1.00
C622   C     0.37388   0.30600   0.47015   0.00000  Uiso   1.00
H623   H     0.37684   0.32440   0.50241   0.00000  Uiso   1.00
H624   H     0.40357   0.31766   0.44819   0.00000  Uiso   1.00
H625   H     0.38124   0.27339   0.47974   0.00000  Uiso   1.00
O626   O     0.49279   0.03778   0.58505   0.00000  Uiso   1.00
C627   C     0.54389   0.04561   0.60657   0.00000  Uiso   1.00
H628   H     0.54205   0.06806   0.63471   0.00000  Uiso   1.00
H629   H     0.56911   0.06029   0.58188   0.00000  Uiso   1.00
C630   C     0.56877   0.00671   0.62875   0.00000  Uiso   1.00
H631   H     0.54675   0.32809   0.65718   0.00000  Uiso   1.00
H632   H     0.56844   0.31594   0.60215   0.00000  Uiso   1.00
C633   C     0.62475   0.01540   0.64849   0.00000  Uiso   1.00
H634   H     0.64747   0.02627   0.62008   0.00000  Uiso   1.00
H635   H     0.64170   0.32017   0.66410   0.00000  Uiso   1.00
H636   H     0.62737   0.03902   0.34253   0.00000  Uiso   1.00
Br637  Br    0.41506   0.10673   0.60617   0.00000  Uiso   1.00
Br638  Br    0.59055   0.22059   0.39221   0.00000  Uiso   1.00
C639   C     0.83592   0.08752   0.50073   0.00000  Uiso   1.00
C640   C     0.83362   0.24594   0.49994   0.00000  Uiso   1.00
C641   C     0.73477   0.16636   0.48819   0.00000  Uiso   1.00
C642   C     0.93191   0.16689   0.51183   0.00000  Uiso   1.00
C643   C     0.67968   0.16534   0.48167   0.00000  Uiso   1.00
C644   C     0.98702   0.16770   0.51843   0.00000  Uiso   1.00
C645   C     0.85837   0.02230   0.46522   0.00000  Uiso   1.00
C646   C     0.81800   0.31149   0.53819   0.00000  Uiso   1.00
C647   C     0.86173   0.31318   0.46816   0.00000  Uiso   1.00
C648   C     0.82783   0.02009   0.54194   0.00000  Uiso   1.00
C649   C     0.83590   0.29067   0.50105   0.00000  Uiso   1.00
C650   C     0.84031   0.04296   0.50228   0.00000  Uiso   1.00
C651   C     0.79818   0.14336   0.35533   0.00000  Uiso   1.00
C652   C     0.86841   0.18979   0.64448   0.00000  Uiso   1.00
C653   C     0.79828   0.14290   0.63940   0.00000  Uiso   1.00
C654   C     0.86905   0.18942   0.36029   0.00000  Uiso   1.00
Cu655  Cu    0.83333   0.16667   0.54689   0.00000  Uiso   1.00
Cu656  Cu    0.83333   0.16666   0.45311   0.00000  Uiso   1.00
H657   H     0.99376   0.16233   0.44625   0.00000  Uiso   1.00
H658   H     0.67299   0.17047   0.55390   0.00000  Uiso   1.00
H659   H     0.77029   0.12452   0.37171   0.00000  Uiso   1.00
H660   H     0.89662   0.20824   0.62803   0.00000  Uiso   1.00
N661   N     0.83335   0.16668   0.61736   0.00000  Uiso   1.00
N662   N     0.83332   0.16666   0.38264   0.00000  Uiso   1.00
O663   O     0.83333   0.10655   0.53958   0.00000  Uiso   1.00
O664   O     0.83334   0.22678   0.46042   0.00000  Uiso   1.00
O665   O     0.83333   0.10654   0.46039   0.00000  Uiso   1.00
O666   O     0.83334   0.22679   0.53961   0.00000  Uiso   1.00
O667   O     0.75828   0.16667   0.53046   0.00000  Uiso   1.00
O668   O     0.90839   0.16666   0.46954   0.00000  Uiso   1.00
O669   O     0.75828   0.16666   0.45127   0.00000  Uiso   1.00
O670   O     0.90839   0.16667   0.54873   0.00000  Uiso   1.00
Br671  Br    0.88595   0.04987   0.41308   0.00000  Uiso   1.00
Br672  Br    0.78158   0.28529   0.58621   0.00000  Uiso   1.00
O673   O     0.89646   0.29477   0.44354   0.00000  Uiso   1.00
C674   C     0.94507   0.29408   0.47166   0.00000  Uiso   1.00
H675   H     0.95255   0.26192   0.48324   0.00000  Uiso   1.00
H676   H     0.94780   0.31268   0.50416   0.00000  Uiso   1.00
C677   C     0.98744   0.30993   0.44282   0.00000  Uiso   1.00
H678   H     0.98601   0.29255   0.41004   0.00000  Uiso   1.00
H679   H     0.98173   0.00934   0.43326   0.00000  Uiso   1.00
C680   C     0.70722   0.30600   0.47015   0.00000  Uiso   1.00
H681   H     0.71018   0.32440   0.50241   0.00000  Uiso   1.00
H682   H     0.73691   0.31766   0.44819   0.00000  Uiso   1.00
H683   H     0.71457   0.27339   0.47974   0.00000  Uiso   1.00
O684   O     0.82612   0.03778   0.58505   0.00000  Uiso   1.00
C685   C     0.87723   0.04561   0.60657   0.00000  Uiso   1.00
H686   H     0.87539   0.06806   0.63471   0.00000  Uiso   1.00
H687   H     0.90244   0.06029   0.58188   0.00000  Uiso   1.00
C688   C     0.90210   0.00671   0.62875   0.00000  Uiso   1.00
H689   H     0.88009   0.32809   0.65718   0.00000  Uiso   1.00
H690   H     0.90177   0.31594   0.60215   0.00000  Uiso   1.00
C691   C     0.95808   0.01540   0.64849   0.00000  Uiso   1.00
H692   H     0.98080   0.02627   0.62008   0.00000  Uiso   1.00
H693   H     0.97503   0.32017   0.66410   0.00000  Uiso   1.00
H694   H     0.96071   0.03902   0.34253   0.00000  Uiso   1.00
Br695  Br    0.74840   0.10673   0.60617   0.00000  Uiso   1.00
Br696  Br    0.92389   0.22059   0.39221   0.00000  Uiso   1.00
C697   C     0.16925   0.42086   0.50073   0.00000  Uiso   1.00
C698   C     0.16696   0.57927   0.49994   0.00000  Uiso   1.00
C699   C     0.06810   0.49969   0.48819   0.00000  Uiso   1.00
C700   C     0.26525   0.50022   0.51183   0.00000  Uiso   1.00
C701   C     0.01301   0.49868   0.48167   0.00000  Uiso   1.00
C702   C     0.32036   0.50103   0.51843   0.00000  Uiso   1.00
C703   C     0.19170   0.35563   0.46522   0.00000  Uiso   1.00
C704   C     0.15134   0.64483   0.53819   0.00000  Uiso   1.00
C705   C     0.19506   0.64652   0.46816   0.00000  Uiso   1.00
C706   C     0.16116   0.35343   0.54194   0.00000  Uiso   1.00
C707   C     0.16924   0.62400   0.50105   0.00000  Uiso   1.00
C708   C     0.17364   0.37629   0.50228   0.00000  Uiso   1.00
C709   C     0.13151   0.47669   0.35533   0.00000  Uiso   1.00
C710   C     0.20174   0.52312   0.64448   0.00000  Uiso   1.00
C711   C     0.13162   0.47623   0.63940   0.00000  Uiso   1.00
C712   C     0.20238   0.52275   0.36029   0.00000  Uiso   1.00
Cu713  Cu    0.16667   0.50001   0.54689   0.00000  Uiso   1.00
Cu714  Cu    0.16667   0.49999   0.45311   0.00000  Uiso   1.00
H715   H     0.32709   0.49566   0.44625   0.00000  Uiso   1.00
H716   H     0.00633   0.50380   0.55390   0.00000  Uiso   1.00
H717   H     0.10362   0.45785   0.37171   0.00000  Uiso   1.00
H718   H     0.22996   0.54157   0.62803   0.00000  Uiso   1.00
N719   N     0.16668   0.50001   0.61736   0.00000  Uiso   1.00
N720   N     0.16665   0.49999   0.38264   0.00000  Uiso   1.00
O721   O     0.16666   0.43989   0.53958   0.00000  Uiso   1.00
O722   O     0.16667   0.56011   0.46042   0.00000  Uiso   1.00
O723   O     0.16666   0.43988   0.46039   0.00000  Uiso   1.00
O724   O     0.16667   0.56012   0.53961   0.00000  Uiso   1.00
O725   O     0.09161   0.50000   0.53046   0.00000  Uiso   1.00
O726   O     0.24172   0.50000   0.46954   0.00000  Uiso   1.00
O727   O     0.09161   0.49999   0.45127   0.00000  Uiso   1.00
O728   O     0.24172   0.50001   0.54873   0.00000  Uiso   1.00
Br729  Br    0.21928   0.38320   0.41308   0.00000  Uiso   1.00
Br730  Br    0.11491   0.61862   0.58621   0.00000  Uiso   1.00
O731   O     0.22980   0.62810   0.44354   0.00000  Uiso   1.00
C732   C     0.27840   0.62742   0.47166   0.00000  Uiso   1.00
H733   H     0.28588   0.59525   0.48324   0.00000  Uiso   1.00
H734   H     0.28114   0.64601   0.50416   0.00000  Uiso   1.00
C735   C     0.32077   0.64326   0.44282   0.00000  Uiso   1.00
H736   H     0.31934   0.62588   0.41004   0.00000  Uiso   1.00
H737   H     0.31506   0.34267   0.43326   0.00000  Uiso   1.00
C738   C     0.04055   0.63933   0.47015   0.00000  Uiso   1.00
H739   H     0.04351   0.65774   0.50241   0.00000  Uiso   1.00
H740   H     0.07024   0.65100   0.44819   0.00000  Uiso   1.00
H741   H     0.04790   0.60673   0.47974   0.00000  Uiso   1.00
O742   O     0.15946   0.37111   0.58505   0.00000  Uiso   1.00
C743   C     0.21056   0.37894   0.60657   0.00000  Uiso   1.00
H744   H     0.20872   0.40139   0.63471   0.00000  Uiso   1.00
H745   H     0.23578   0.39362   0.58188   0.00000  Uiso   1.00
C746   C     0.23544   0.34005   0.62875   0.00000  Uiso   1.00
H747   H     0.21342   0.66142   0.65718   0.00000  Uiso   1.00
H748   H     0.23510   0.64927   0.60215   0.00000  Uiso   1.00
C749   C     0.29141   0.34874   0.64849   0.00000  Uiso   1.00
H750   H     0.31413   0.35960   0.62008   0.00000  Uiso   1.00
H751   H     0.30836   0.65351   0.66410   0.00000  Uiso   1.00
H752   H     0.29404   0.37236   0.34253   0.00000  Uiso   1.00
Br753  Br    0.08173   0.44007   0.60617   0.00000  Uiso   1.00
Br754  Br    0.25722   0.55392   0.39221   0.00000  Uiso   1.00
C755   C     0.50258   0.42086   0.50073   0.00000  Uiso   1.00
C756   C     0.50029   0.57927   0.49994   0.00000  Uiso   1.00
C757   C     0.40143   0.49969   0.48819   0.00000  Uiso   1.00
C758   C     0.59858   0.50022   0.51183   0.00000  Uiso   1.00
C759   C     0.34635   0.49868   0.48167   0.00000  Uiso   1.00
C760   C     0.65369   0.50103   0.51843   0.00000  Uiso   1.00
C761   C     0.52503   0.35563   0.46522   0.00000  Uiso   1.00
C762   C     0.48467   0.64483   0.53819   0.00000  Uiso   1.00
C763   C     0.52839   0.64652   0.46816   0.00000  Uiso   1.00
C764   C     0.49450   0.35343   0.54194   0.00000  Uiso   1.00
C765   C     0.50257   0.62400   0.50105   0.00000  Uiso   1.00
C766   C     0.50698   0.37629   0.50228   0.00000  Uiso   1.00
C767   C     0.46484   0.47669   0.35533   0.00000  Uiso   1.00
C768   C     0.53508   0.52312   0.64448   0.00000  Uiso   1.00
C769   C     0.46495   0.47623   0.63940   0.00000  Uiso   1.00
C770   C     0.53572   0.52275   0.36029   0.00000  Uiso   1.00
Cu771  Cu    0.50000   0.50001   0.54689   0.00000  Uiso   1.00
Cu772  Cu    0.50000   0.49999   0.45311   0.00000  Uiso   1.00
H773   H     0.66042   0.49566   0.44625   0.00000  Uiso   1.00
H774   H     0.33966   0.50380   0.55390   0.00000  Uiso   1.00
H775   H     0.43696   0.45785   0.37171   0.00000  Uiso   1.00
H776   H     0.56329   0.54157   0.62803   0.00000  Uiso   1.00
N777   N     0.50001   0.50001   0.61736   0.00000  Uiso   1.00
N778   N     0.49999   0.49999   0.38264   0.00000  Uiso   1.00
O779   O     0.50000   0.43989   0.53958   0.00000  Uiso   1.00
O780   O     0.50000   0.56011   0.46042   0.00000  Uiso   1.00
O781   O     0.50000   0.43988   0.46039   0.00000  Uiso   1.00
O782   O     0.50000   0.56012   0.53961   0.00000  Uiso   1.00
O783   O     0.42495   0.50000   0.53046   0.00000  Uiso   1.00
O784   O     0.57505   0.50000   0.46954   0.00000  Uiso   1.00
O785   O     0.42494   0.49999   0.45127   0.00000  Uiso   1.00
O786   O     0.57506   0.50001   0.54873   0.00000  Uiso   1.00
Br787  Br    0.55261   0.38320   0.41308   0.00000  Uiso   1.00
Br788  Br    0.44825   0.61862   0.58621   0.00000  Uiso   1.00
O789   O     0.56313   0.62810   0.44354   0.00000  Uiso   1.00
C790   C     0.61173   0.62742   0.47166   0.00000  Uiso   1.00
H791   H     0.61922   0.59525   0.48324   0.00000  Uiso   1.00
H792   H     0.61447   0.64601   0.50416   0.00000  Uiso   1.00
C793   C     0.65410   0.64326   0.44282   0.00000  Uiso   1.00
H794   H     0.65267   0.62588   0.41004   0.00000  Uiso   1.00
H795   H     0.64840   0.34267   0.43326   0.00000  Uiso   1.00
C796   C     0.37388   0.63933   0.47015   0.00000  Uiso   1.00
H797   H     0.37684   0.65774   0.50241   0.00000  Uiso   1.00
H798   H     0.40357   0.65100   0.44819   0.00000  Uiso   1.00
H799   H     0.38124   0.60673   0.47974   0.00000  Uiso   1.00
O800   O     0.49279   0.37111   0.58505   0.00000  Uiso   1.00
C801   C     0.54389   0.37894   0.60657   0.00000  Uiso   1.00
H802   H     0.54205   0.40139   0.63471   0.00000  Uiso   1.00
H803   H     0.56911   0.39362   0.58188   0.00000  Uiso   1.00
C804   C     0.56877   0.34005   0.62875   0.00000  Uiso   1.00
H805   H     0.54675   0.66142   0.65718   0.00000  Uiso   1.00
H806   H     0.56844   0.64927   0.60215   0.00000  Uiso   1.00
C807   C     0.62475   0.34874   0.64849   0.00000  Uiso   1.00
H808   H     0.64747   0.35960   0.62008   0.00000  Uiso   1.00
H809   H     0.64170   0.65351   0.66410   0.00000  Uiso   1.00
H810   H     0.62737   0.37236   0.34253   0.00000  Uiso   1.00
Br811  Br    0.41506   0.44007   0.60617   0.00000  Uiso   1.00
Br812  Br    0.59055   0.55392   0.39221   0.00000  Uiso   1.00
C813   C     0.83592   0.42086   0.50073   0.00000  Uiso   1.00
C814   C     0.83362   0.57927   0.49994   0.00000  Uiso   1.00
C815   C     0.73477   0.49969   0.48819   0.00000  Uiso   1.00
C816   C     0.93191   0.50022   0.51183   0.00000  Uiso   1.00
C817   C     0.67968   0.49868   0.48167   0.00000  Uiso   1.00
C818   C     0.98702   0.50103   0.51843   0.00000  Uiso   1.00
C819   C     0.85837   0.35563   0.46522   0.00000  Uiso   1.00
C820   C     0.81800   0.64483   0.53819   0.00000  Uiso   1.00
C821   C     0.86173   0.64652   0.46816   0.00000  Uiso   1.00
C822   C     0.82783   0.35343   0.54194   0.00000  Uiso   1.00
C823   C     0.83590   0.62400   0.50105   0.00000  Uiso   1.00
C824   C     0.84031   0.37629   0.50228   0.00000  Uiso   1.00
C825   C     0.79818   0.47669   0.35533   0.00000  Uiso   1.00
C826   C     0.86841   0.52312   0.64448   0.00000  Uiso   1.00
C827   C     0.79828   0.47623   0.63940   0.00000  Uiso   1.00
C828   C     0.86905   0.52275   0.36029   0.00000  Uiso   1.00
Cu829  Cu    0.83333   0.50001   0.54689   0.00000  Uiso   1.00
Cu830  Cu    0.83333   0.49999   0.45311   0.00000  Uiso   1.00
H831   H     0.99376   0.49566   0.44625   0.00000  Uiso   1.00
H832   H     0.67299   0.50380   0.55390   0.00000  Uiso   1.00
H833   H     0.77029   0.45785   0.37171   0.00000  Uiso   1.00
H834   H     0.89662   0.54157   0.62803   0.00000  Uiso   1.00
N835   N     0.83335   0.50001   0.61736   0.00000  Uiso   1.00
N836   N     0.83332   0.49999   0.38264   0.00000  Uiso   1.00
O837   O     0.83333   0.43989   0.53958   0.00000  Uiso   1.00
O838   O     0.83334   0.56011   0.46042   0.00000  Uiso   1.00
O839   O     0.83333   0.43988   0.46039   0.00000  Uiso   1.00
O840   O     0.83334   0.56012   0.53961   0.00000  Uiso   1.00
O841   O     0.75828   0.50000   0.53046   0.00000  Uiso   1.00
O842   O     0.90839   0.50000   0.46954   0.00000  Uiso   1.00
O843   O     0.75828   0.49999   0.45127   0.00000  Uiso   1.00
O844   O     0.90839   0.50001   0.54873   0.00000  Uiso   1.00
Br845  Br    0.88595   0.38320   0.41308   0.00000  Uiso   1.00
Br846  Br    0.78158   0.61862   0.58621   0.00000  Uiso   1.00
O847   O     0.89646   0.62810   0.44354   0.00000  Uiso   1.00
C848   C     0.94507   0.62742   0.47166   0.00000  Uiso   1.00
H849   H     0.95255   0.59525   0.48324   0.00000  Uiso   1.00
H850   H     0.94780   0.64601   0.50416   0.00000  Uiso   1.00
C851   C     0.98744   0.64326   0.44282   0.00000  Uiso   1.00
H852   H     0.98601   0.62588   0.41004   0.00000  Uiso   1.00
H853   H     0.98173   0.34267   0.43326   0.00000  Uiso   1.00
C854   C     0.70722   0.63933   0.47015   0.00000  Uiso   1.00
H855   H     0.71018   0.65774   0.50241   0.00000  Uiso   1.00
H856   H     0.73691   0.65100   0.44819   0.00000  Uiso   1.00
H857   H     0.71457   0.60673   0.47974   0.00000  Uiso   1.00
O858   O     0.82612   0.37111   0.58505   0.00000  Uiso   1.00
C859   C     0.87723   0.37894   0.60657   0.00000  Uiso   1.00
H860   H     0.87539   0.40139   0.63471   0.00000  Uiso   1.00
H861   H     0.90244   0.39362   0.58188   0.00000  Uiso   1.00
C862   C     0.90210   0.34005   0.62875   0.00000  Uiso   1.00
H863   H     0.88009   0.66142   0.65718   0.00000  Uiso   1.00
H864   H     0.90177   0.64927   0.60215   0.00000  Uiso   1.00
C865   C     0.95808   0.34874   0.64849   0.00000  Uiso   1.00
H866   H     0.98080   0.35960   0.62008   0.00000  Uiso   1.00
H867   H     0.97503   0.65351   0.66410   0.00000  Uiso   1.00
H868   H     0.96071   0.37236   0.34253   0.00000  Uiso   1.00
Br869  Br    0.74840   0.44007   0.60617   0.00000  Uiso   1.00
Br870  Br    0.92389   0.55392   0.39221   0.00000  Uiso   1.00
C871   C     0.16925   0.75419   0.50073   0.00000  Uiso   1.00
C872   C     0.16696   0.91261   0.49994   0.00000  Uiso   1.00
C873   C     0.06810   0.83303   0.48819   0.00000  Uiso   1.00
C874   C     0.26525   0.83356   0.51183   0.00000  Uiso   1.00
C875   C     0.01301   0.83201   0.48167   0.00000  Uiso   1.00
C876   C     0.32036   0.83436   0.51843   0.00000  Uiso   1.00
C877   C     0.19170   0.68897   0.46522   0.00000  Uiso   1.00
C878   C     0.15134   0.97816   0.53819   0.00000  Uiso   1.00
C879   C     0.19506   0.97985   0.46816   0.00000  Uiso   1.00
C880   C     0.16116   0.68676   0.54194   0.00000  Uiso   1.00
C881   C     0.16924   0.95734   0.50105   0.00000  Uiso   1.00
C882   C     0.17364   0.70962   0.50228   0.00000  Uiso   1.00
C883   C     0.13151   0.81003   0.35533   0.00000  Uiso   1.00
C884   C     0.20174   0.85646   0.64448   0.00000  Uiso   1.00
C885   C     0.13162   0.80956   0.63940   0.00000  Uiso   1.00
C886   C     0.20238   0.85609   0.36029   0.00000  Uiso   1.00
Cu887  Cu    0.16667   0.83334   0.54689   0.00000  Uiso   1.00
Cu888  Cu    0.16667   0.83333   0.45311   0.00000  Uiso   1.00
H889   H     0.32709   0.82899   0.44625   0.00000  Uiso   1.00
H890   H     0.00633   0.83713   0.55390   0.00000  Uiso   1.00
H891   H     0.10362   0.79119   0.37171   0.00000  Uiso   1.00
H892   H     0.22996   0.87491   0.62803   0.00000  Uiso   1.00
N893   N     0.16668   0.83334   0.61736   0.00000  Uiso   1.00
N894   N     0.16665   0.83332   0.38264   0.00000  Uiso   1.00
O895   O     0.16666   0.77322   0.53958   0.00000  Uiso   1.00
O896   O     0.16667   0.89345   0.46042   0.00000  Uiso   1.00
O897   O     0.16666   0.77321   0.46039   0.00000  Uiso   1.00
O898   O     0.16667   0.89346   0.53961   0.00000  Uiso   1.00
O899   O     0.09161   0.83334   0.53046   0.00000  Uiso   1.00
O900   O     0.24172   0.83333   0.46954   0.00000  Uiso   1.00
O901   O     0.09161   0.83333   0.45127   0.00000  Uiso   1.00
O902   O     0.24172   0.83334   0.54873   0.00000  Uiso   1.00
Br903  Br    0.21928   0.71653   0.41308   0.00000  Uiso   1.00
Br904  Br    0.11491   0.95196   0.58621   0.00000  Uiso   1.00
O905   O     0.22980   0.96143   0.44354   0.00000  Uiso   1.00
C906   C     0.27840   0.96075   0.47166   0.00000  Uiso   1.00
H907   H     0.28588   0.92859   0.48324   0.00000  Uiso   1.00
H908   H     0.28114   0.97935   0.50416   0.00000  Uiso   1.00
C909   C     0.32077   0.97659   0.44282   0.00000  Uiso   1.00
H910   H     0.31934   0.95922   0.41004   0.00000  Uiso   1.00
H911   H     0.31506   0.67600   0.43326   0.00000  Uiso   1.00
C912   C     0.04055   0.97266   0.47015   0.00000  Uiso   1.00
H913   H     0.04351   0.99107   0.50241   0.00000  Uiso   1.00
H914   H     0.07024   0.98433   0.44819   0.00000  Uiso   1.00
H915   H     0.04790   0.94006   0.47974   0.00000  Uiso   1.00
O916   O     0.15946   0.70444   0.58505   0.00000  Uiso   1.00
C917   C     0.21056   0.71228   0.60657   0.00000  Uiso   1.00
H918   H     0.20872   0.73473   0.63471   0.00000  Uiso   1.00
H919   H     0.23578   0.72695   0.58188   0.00000  Uiso   1.00
C920   C     0.23544   0.67338   0.62875   0.00000  Uiso   1.00
H921   H     0.21342   0.99475   0.65718   0.00000  Uiso   1.00
H922   H     0.23510   0.98260   0.60215   0.00000  Uiso   1.00
C923   C     0.29141   0.68207   0.64849   0.00000  Uiso   1.00
H924   H     0.31413   0.69294   0.62008   0.00000  Uiso   1.00
H925   H     0.30836   0.98684   0.66410   0.00000  Uiso   1.00
H926   H     0.29404   0.70569   0.34253   0.00000  Uiso   1.00
Br927  Br    0.08173   0.77340   0.60617   0.00000  Uiso   1.00
Br928  Br    0.25722   0.88726   0.39221   0.00000  Uiso   1.00
C929   C     0.50258   0.75419   0.50073   0.00000  Uiso   1.00
C930   C     0.50029   0.91261   0.49994   0.00000  Uiso   1.00
C931   C     0.40143   0.83303   0.48819   0.00000  Uiso   1.00
C932   C     0.59858   0.83356   0.51183   0.00000  Uiso   1.00
C933   C     0.34635   0.83201   0.48167   0.00000  Uiso   1.00
C934   C     0.65369   0.83436   0.51843   0.00000  Uiso   1.00
C935   C     0.52503   0.68897   0.46522   0.00000  Uiso   1.00
C936   C     0.48467   0.97816   0.53819   0.00000  Uiso   1.00
C937   C     0.52839   0.97985   0.46816   0.00000  Uiso   1.00
C938   C     0.49450   0.68676   0.54194   0.00000  Uiso   1.00
C939   C     0.50257   0.95734   0.50105   0.00000  Uiso   1.00
C940   C     0.50698   0.70962   0.50228   0.00000  Uiso   1.00
C941   C     0.46484   0.81003   0.35533   0.00000  Uiso   1.00
C942   C     0.53508   0.85646   0.64448   0.00000  Uiso   1.00
C943   C     0.46495   0.80956   0.63940   0.00000  Uiso   1.00
C944   C     0.53572   0.85609   0.36029   0.00000  Uiso   1.00
Cu945  Cu    0.50000   0.83334   0.54689   0.00000  Uiso   1.00
Cu946  Cu    0.50000   0.83333   0.45311   0.00000  Uiso   1.00
H947   H     0.66042   0.82899   0.44625   0.00000  Uiso   1.00
H948   H     0.33966   0.83713   0.55390   0.00000  Uiso   1.00
H949   H     0.43696   0.79119   0.37171   0.00000  Uiso   1.00
H950   H     0.56329   0.87491   0.62803   0.00000  Uiso   1.00
N951   N     0.50001   0.83334   0.61736   0.00000  Uiso   1.00
N952   N     0.49999   0.83332   0.38264   0.00000  Uiso   1.00
O953   O     0.50000   0.77322   0.53958   0.00000  Uiso   1.00
O954   O     0.50000   0.89345   0.46042   0.00000  Uiso   1.00
O955   O     0.50000   0.77321   0.46039   0.00000  Uiso   1.00
O956   O     0.50000   0.89346   0.53961   0.00000  Uiso   1.00
O957   O     0.42495   0.83334   0.53046   0.00000  Uiso   1.00
O958   O     0.57505   0.83333   0.46954   0.00000  Uiso   1.00
O959   O     0.42494   0.83333   0.45127   0.00000  Uiso   1.00
O960   O     0.57506   0.83334   0.54873   0.00000  Uiso   1.00
Br961  Br    0.55261   0.71653   0.41308   0.00000  Uiso   1.00
Br962  Br    0.44825   0.95196   0.58621   0.00000  Uiso   1.00
O963   O     0.56313   0.96143   0.44354   0.00000  Uiso   1.00
C964   C     0.61173   0.96075   0.47166   0.00000  Uiso   1.00
H965   H     0.61922   0.92859   0.48324   0.00000  Uiso   1.00
H966   H     0.61447   0.97935   0.50416   0.00000  Uiso   1.00
C967   C     0.65410   0.97659   0.44282   0.00000  Uiso   1.00
H968   H     0.65267   0.95922   0.41004   0.00000  Uiso   1.00
H969   H     0.64840   0.67600   0.43326   0.00000  Uiso   1.00
C970   C     0.37388   0.97266   0.47015   0.00000  Uiso   1.00
H971   H     0.37684   0.99107   0.50241   0.00000  Uiso   1.00
H972   H     0.40357   0.98433   0.44819   0.00000  Uiso   1.00
H973   H     0.38124   0.94006   0.47974   0.00000  Uiso   1.00
O974   O     0.49279   0.70444   0.58505   0.00000  Uiso   1.00
C975   C     0.54389   0.71228   0.60657   0.00000  Uiso   1.00
H976   H     0.54205   0.73473   0.63471   0.00000  Uiso   1.00
H977   H     0.56911   0.72695   0.58188   0.00000  Uiso   1.00
C978   C     0.56877   0.67338   0.62875   0.00000  Uiso   1.00
H979   H     0.54675   0.99475   0.65718   0.00000  Uiso   1.00
H980   H     0.56844   0.98260   0.60215   0.00000  Uiso   1.00
C981   C     0.62475   0.68207   0.64849   0.00000  Uiso   1.00
H982   H     0.64747   0.69294   0.62008   0.00000  Uiso   1.00
H983   H     0.64170   0.98684   0.66410   0.00000  Uiso   1.00
H984   H     0.62737   0.70569   0.34253   0.00000  Uiso   1.00
Br985  Br    0.41506   0.77340   0.60617   0.00000  Uiso   1.00
Br986  Br    0.59055   0.88726   0.39221   0.00000  Uiso   1.00
C987   C     0.83592   0.75419   0.50073   0.00000  Uiso   1.00
C988   C     0.83362   0.91261   0.49994   0.00000  Uiso   1.00
C989   C     0.73477   0.83303   0.48819   0.00000  Uiso   1.00
C990   C     0.93191   0.83356   0.51183   0.00000  Uiso   1.00
C991   C     0.67968   0.83201   0.48167   0.00000  Uiso   1.00
C992   C     0.98702   0.83436   0.51843   0.00000  Uiso   1.00
C993   C     0.85837   0.68897   0.46522   0.00000  Uiso   1.00
C994   C     0.81800   0.97816   0.53819   0.00000  Uiso   1.00
C995   C     0.86173   0.97985   0.46816   0.00000  Uiso   1.00
C996   C     0.82783   0.68676   0.54194   0.00000  Uiso   1.00
C997   C     0.83590   0.95734   0.50105   0.00000  Uiso   1.00
C998   C     0.84031   0.70962   0.50228   0.00000  Uiso   1.00
C999   C     0.79818   0.81003   0.35533   0.00000  Uiso   1.00
C1000  C     0.86841   0.85646   0.64448   0.00000  Uiso   1.00
C1001  C     0.79828   0.80956   0.63940   0.00000  Uiso   1.00
C1002  C     0.86905   0.85609   0.36029   0.00000  Uiso   1.00
Cu1003 Cu    0.83333   0.83334   0.54689   0.00000  Uiso   1.00
Cu1004 Cu    0.83333   0.83333   0.45311   0.00000  Uiso   1.00
H1005  H     0.99376   0.82899   0.44625   0.00000  Uiso   1.00
H1006  H     0.67299   0.83713   0.55390   0.00000  Uiso   1.00
H1007  H     0.77029   0.79119   0.37171   0.00000  Uiso   1.00
H1008  H     0.89662   0.87491   0.62803   0.00000  Uiso   1.00
N1009  N     0.83335   0.83334   0.61736   0.00000  Uiso   1.00
N1010  N     0.83332   0.83332   0.38264   0.00000  Uiso   1.00
O1011  O     0.83333   0.77322   0.53958   0.00000  Uiso   1.00
O1012  O     0.83334   0.89345   0.46042   0.00000  Uiso   1.00
O1013  O     0.83333   0.77321   0.46039   0.00000  Uiso   1.00
O1014  O     0.83334   0.89346   0.53961   0.00000  Uiso   1.00
O1015  O     0.75828   0.83334   0.53046   0.00000  Uiso   1.00
O1016  O     0.90839   0.83333   0.46954   0.00000  Uiso   1.00
O1017  O     0.75828   0.83333   0.45127   0.00000  Uiso   1.00
O1018  O     0.90839   0.83334   0.54873   0.00000  Uiso   1.00
Br1019 Br    0.88595   0.71653   0.41308   0.00000  Uiso   1.00
Br1020 Br    0.78158   0.95196   0.58621   0.00000  Uiso   1.00
O1021  O     0.89646   0.96143   0.44354   0.00000  Uiso   1.00
C1022  C     0.94507   0.96075   0.47166   0.00000  Uiso   1.00
H1023  H     0.95255   0.92859   0.48324   0.00000  Uiso   1.00
H1024  H     0.94780   0.97935   0.50416   0.00000  Uiso   1.00
C1025  C     0.98744   0.97659   0.44282   0.00000  Uiso   1.00
H1026  H     0.98601   0.95922   0.41004   0.00000  Uiso   1.00
H1027  H     0.98173   0.67600   0.43326   0.00000  Uiso   1.00
C1028  C     0.70722   0.97266   0.47015   0.00000  Uiso   1.00
H1029  H     0.71018   0.99107   0.50241   0.00000  Uiso   1.00
H1030  H     0.73691   0.98433   0.44819   0.00000  Uiso   1.00
H1031  H     0.71457   0.94006   0.47974   0.00000  Uiso   1.00
O1032  O     0.82612   0.70444   0.58505   0.00000  Uiso   1.00
C1033  C     0.87723   0.71228   0.60657   0.00000  Uiso   1.00
H1034  H     0.87539   0.73473   0.63471   0.00000  Uiso   1.00
H1035  H     0.90244   0.72695   0.58188   0.00000  Uiso   1.00
C1036  C     0.90210   0.67338   0.62875   0.00000  Uiso   1.00
H1037  H     0.88009   0.99475   0.65718   0.00000  Uiso   1.00
H1038  H     0.90177   0.98260   0.60215   0.00000  Uiso   1.00
C1039  C     0.95808   0.68207   0.64849   0.00000  Uiso   1.00
H1040  H     0.98080   0.69294   0.62008   0.00000  Uiso   1.00
H1041  H     0.97503   0.98684   0.66410   0.00000  Uiso   1.00
H1042  H     0.96071   0.70569   0.34253   0.00000  Uiso   1.00
Br1043 Br    0.74840   0.77340   0.60617   0.00000  Uiso   1.00
Br1044 Br    0.92389   0.88726   0.39221   0.00000  Uiso   1.00
C1045  C     0.16925   0.08752   0.83406   0.00000  Uiso   1.00
C1046  C     0.16696   0.24594   0.83327   0.00000  Uiso   1.00
C1047  C     0.06810   0.16636   0.82152   0.00000  Uiso   1.00
C1048  C     0.26525   0.16689   0.84516   0.00000  Uiso   1.00
C1049  C     0.01301   0.16534   0.81501   0.00000  Uiso   1.00
C1050  C     0.32036   0.16770   0.85176   0.00000  Uiso   1.00
C1051  C     0.19170   0.02230   0.79856   0.00000  Uiso   1.00
C1052  C     0.15134   0.31149   0.87153   0.00000  Uiso   1.00
C1053  C     0.19506   0.31318   0.80150   0.00000  Uiso   1.00
C1054  C     0.16116   0.02009   0.87528   0.00000  Uiso   1.00
C1055  C     0.16924   0.29067   0.83439   0.00000  Uiso   1.00
C1056  C     0.17364   0.04296   0.83562   0.00000  Uiso   1.00
C1057  C     0.13151   0.14336   0.68866   0.00000  Uiso   1.00
C1058  C     0.20174   0.18979   0.97781   0.00000  Uiso   1.00
C1059  C     0.13162   0.14290   0.97273   0.00000  Uiso   1.00
C1060  C     0.20238   0.18942   0.69362   0.00000  Uiso   1.00
Cu1061 Cu    0.16667   0.16667   0.88022   0.00000  Uiso   1.00
Cu1062 Cu    0.16667   0.16666   0.78645   0.00000  Uiso   1.00
H1063  H     0.32709   0.16233   0.77958   0.00000  Uiso   1.00
H1064  H     0.00633   0.17047   0.88724   0.00000  Uiso   1.00
H1065  H     0.10362   0.12452   0.70504   0.00000  Uiso   1.00
H1066  H     0.22996   0.20824   0.96137   0.00000  Uiso   1.00
N1067  N     0.16668   0.16668   0.95069   0.00000  Uiso   1.00
N1068  N     0.16665   0.16666   0.71597   0.00000  Uiso   1.00
O1069  O     0.16666   0.10655   0.87291   0.00000  Uiso   1.00
O1070  O     0.16667   0.22678   0.79375   0.00000  Uiso   1.00
O1071  O     0.16666   0.10654   0.79372   0.00000  Uiso   1.00
O1072  O     0.16667   0.22679   0.87294   0.00000  Uiso   1.00
O1073  O     0.09161   0.16667   0.86379   0.00000  Uiso   1.00
O1074  O     0.24172   0.16666   0.80288   0.00000  Uiso   1.00
O1075  O     0.09161   0.16666   0.78460   0.00000  Uiso   1.00
O1076  O     0.24172   0.16667   0.88207   0.00000  Uiso   1.00
Br1077 Br    0.21928   0.04987   0.74642   0.00000  Uiso   1.00
Br1078 Br    0.11491   0.28529   0.91954   0.00000  Uiso   1.00
O1079  O     0.22980   0.29477   0.77687   0.00000  Uiso   1.00
C1080  C     0.27840   0.29408   0.80499   0.00000  Uiso   1.00
H1081  H     0.28588   0.26192   0.81657   0.00000  Uiso   1.00
H1082  H     0.28114   0.31268   0.83750   0.00000  Uiso   1.00
C1083  C     0.32077   0.30993   0.77615   0.00000  Uiso   1.00
H1084  H     0.31934   0.29255   0.74337   0.00000  Uiso   1.00
H1085  H     0.31506   0.00934   0.76659   0.00000  Uiso   1.00
C1086  C     0.04055   0.30600   0.80348   0.00000  Uiso   1.00
H1087  H     0.04351   0.32440   0.83574   0.00000  Uiso   1.00
H1088  H     0.07024   0.31766   0.78153   0.00000  Uiso   1.00
H1089  H     0.04790   0.27339   0.81307   0.00000  Uiso   1.00
O1090  O     0.15946   0.03778   0.91838   0.00000  Uiso   1.00
C1091  C     0.21056   0.04561   0.93991   0.00000  Uiso   1.00
H1092  H     0.20872   0.06806   0.96805   0.00000  Uiso   1.00
H1093  H     0.23578   0.06029   0.91521   0.00000  Uiso   1.00
C1094  C     0.23544   0.00671   0.96209   0.00000  Uiso   1.00
H1095  H     0.21342   0.32809   0.99052   0.00000  Uiso   1.00
H1096  H     0.23510   0.31594   0.93549   0.00000  Uiso   1.00
C1097  C     0.29141   0.01540   0.98182   0.00000  Uiso   1.00
H1098  H     0.31413   0.02627   0.95341   0.00000  Uiso   1.00
H1099  H     0.30836   0.32017   0.99743   0.00000  Uiso   1.00
H1100  H     0.29404   0.03902   0.67587   0.00000  Uiso   1.00
Br1101 Br    0.08173   0.10673   0.93950   0.00000  Uiso   1.00
Br1102 Br    0.25722   0.22059   0.72555   0.00000  Uiso   1.00
C1103  C     0.50258   0.08752   0.83406   0.00000  Uiso   1.00
C1104  C     0.50029   0.24594   0.83327   0.00000  Uiso   1.00
C1105  C     0.40143   0.16636   0.82152   0.00000  Uiso   1.00
C1106  C     0.59858   0.16689   0.84516   0.00000  Uiso   1.00
C1107  C     0.34635   0.16534   0.81501   0.00000  Uiso   1.00
C1108  C     0.65369   0.16770   0.85176   0.00000  Uiso   1.00
C1109  C     0.52503   0.02230   0.79856   0.00000  Uiso   1.00
C1110  C     0.48467   0.31149   0.87153   0.00000  Uiso   1.00
C1111  C     0.52839   0.31318   0.80150   0.00000  Uiso   1.00
C1112  C     0.49450   0.02009   0.87528   0.00000  Uiso   1.00
C1113  C     0.50257   0.29067   0.83439   0.00000  Uiso   1.00
C1114  C     0.50698   0.04296   0.83562   0.00000  Uiso   1.00
C1115  C     0.46484   0.14336   0.68866   0.00000  Uiso   1.00
C1116  C     0.53508   0.18979   0.97781   0.00000  Uiso   1.00
C1117  C     0.46495   0.14290   0.97273   0.00000  Uiso   1.00
C1118  C     0.53572   0.18942   0.69362   0.00000  Uiso   1.00
Cu1119 Cu    0.50000   0.16667   0.88022   0.00000  Uiso   1.00
Cu1120 Cu    0.50000   0.16666   0.78645   0.00000  Uiso   1.00
H1121  H     0.66042   0.16233   0.77958   0.00000  Uiso   1.00
H1122  H     0.33966   0.17047   0.88724   0.00000  Uiso   1.00
H1123  H     0.43696   0.12452   0.70504   0.00000  Uiso   1.00
H1124  H     0.56329   0.20824   0.96137   0.00000  Uiso   1.00
N1125  N     0.50001   0.16668   0.95069   0.00000  Uiso   1.00
N1126  N     0.49999   0.16666   0.71597   0.00000  Uiso   1.00
O1127  O     0.50000   0.10655   0.87291   0.00000  Uiso   1.00
O1128  O     0.50000   0.22678   0.79375   0.00000  Uiso   1.00
O1129  O     0.50000   0.10654   0.79372   0.00000  Uiso   1.00
O1130  O     0.50000   0.22679   0.87294   0.00000  Uiso   1.00
O1131  O     0.42495   0.16667   0.86379   0.00000  Uiso   1.00
O1132  O     0.57505   0.16666   0.80288   0.00000  Uiso   1.00
O1133  O     0.42494   0.16666   0.78460   0.00000  Uiso   1.00
O1134  O     0.57506   0.16667   0.88207   0.00000  Uiso   1.00
Br1135 Br    0.55261   0.04987   0.74642   0.00000  Uiso   1.00
Br1136 Br    0.44825   0.28529   0.91954   0.00000  Uiso   1.00
O1137  O     0.56313   0.29477   0.77687   0.00000  Uiso   1.00
C1138  C     0.61173   0.29408   0.80499   0.00000  Uiso   1.00
H1139  H     0.61922   0.26192   0.81657   0.00000  Uiso   1.00
H1140  H     0.61447   0.31268   0.83750   0.00000  Uiso   1.00
C1141  C     0.65410   0.30993   0.77615   0.00000  Uiso   1.00
H1142  H     0.65267   0.29255   0.74337   0.00000  Uiso   1.00
H1143  H     0.64840   0.00934   0.76659   0.00000  Uiso   1.00
C1144  C     0.37388   0.30600   0.80348   0.00000  Uiso   1.00
H1145  H     0.37684   0.32440   0.83574   0.00000  Uiso   1.00
H1146  H     0.40357   0.31766   0.78153   0.00000  Uiso   1.00
H1147  H     0.38124   0.27339   0.81307   0.00000  Uiso   1.00
O1148  O     0.49279   0.03778   0.91838   0.00000  Uiso   1.00
C1149  C     0.54389   0.04561   0.93991   0.00000  Uiso   1.00
H1150  H     0.54205   0.06806   0.96805   0.00000  Uiso   1.00
H1151  H     0.56911   0.06029   0.91521   0.00000  Uiso   1.00
C1152  C     0.56877   0.00671   0.96209   0.00000  Uiso   1.00
H1153  H     0.54675   0.32809   0.99052   0.00000  Uiso   1.00
H1154  H     0.56844   0.31594   0.93549   0.00000  Uiso   1.00
C1155  C     0.62475   0.01540   0.98182   0.00000  Uiso   1.00
H1156  H     0.64747   0.02627   0.95341   0.00000  Uiso   1.00
H1157  H     0.64170   0.32017   0.99743   0.00000  Uiso   1.00
H1158  H     0.62737   0.03902   0.67587   0.00000  Uiso   1.00
Br1159 Br    0.41506   0.10673   0.93950   0.00000  Uiso   1.00
Br1160 Br    0.59055   0.22059   0.72555   0.00000  Uiso   1.00
C1161  C     0.83592   0.08752   0.83406   0.00000  Uiso   1.00
C1162  C     0.83362   0.24594   0.83327   0.00000  Uiso   1.00
C1163  C     0.73477   0.16636   0.82152   0.00000  Uiso   1.00
C1164  C     0.93191   0.16689   0.84516   0.00000  Uiso   1.00
C1165  C     0.67968   0.16534   0.81501   0.00000  Uiso   1.00
C1166  C     0.98702   0.16770   0.85176   0.00000  Uiso   1.00
C1167  C     0.85837   0.02230   0.79856   0.00000  Uiso   1.00
C1168  C     0.81800   0.31149   0.87153   0.00000  Uiso   1.00
C1169  C     0.86173   0.31318   0.80150   0.00000  Uiso   1.00
C1170  C     0.82783   0.02009   0.87528   0.00000  Uiso   1.00
C1171  C     0.83590   0.29067   0.83439   0.00000  Uiso   1.00
C1172  C     0.84031   0.04296   0.83562   0.00000  Uiso   1.00
C1173  C     0.79818   0.14336   0.68866   0.00000  Uiso   1.00
C1174  C     0.86841   0.18979   0.97781   0.00000  Uiso   1.00
C1175  C     0.79828   0.14290   0.97273   0.00000  Uiso   1.00
C1176  C     0.86905   0.18942   0.69362   0.00000  Uiso   1.00
Cu1177 Cu    0.83333   0.16667   0.88022   0.00000  Uiso   1.00
Cu1178 Cu    0.83333   0.16666   0.78645   0.00000  Uiso   1.00
H1179  H     0.99376   0.16233   0.77958   0.00000  Uiso   1.00
H1180  H     0.67299   0.17047   0.88724   0.00000  Uiso   1.00
H1181  H     0.77029   0.12452   0.70504   0.00000  Uiso   1.00
H1182  H     0.89662   0.20824   0.96137   0.00000  Uiso   1.00
N1183  N     0.83335   0.16668   0.95069   0.00000  Uiso   1.00
N1184  N     0.83332   0.16666   0.71597   0.00000  Uiso   1.00
O1185  O     0.83333   0.10655   0.87291   0.00000  Uiso   1.00
O1186  O     0.83334   0.22678   0.79375   0.00000  Uiso   1.00
O1187  O     0.83333   0.10654   0.79372   0.00000  Uiso   1.00
O1188  O     0.83334   0.22679   0.87294   0.00000  Uiso   1.00
O1189  O     0.75828   0.16667   0.86379   0.00000  Uiso   1.00
O1190  O     0.90839   0.16666   0.80288   0.00000  Uiso   1.00
O1191  O     0.75828   0.16666   0.78460   0.00000  Uiso   1.00
O1192  O     0.90839   0.16667   0.88207   0.00000  Uiso   1.00
Br1193 Br    0.88595   0.04987   0.74642   0.00000  Uiso   1.00
Br1194 Br    0.78158   0.28529   0.91954   0.00000  Uiso   1.00
O1195  O     0.89646   0.29477   0.77687   0.00000  Uiso   1.00
C1196  C     0.94507   0.29408   0.80499   0.00000  Uiso   1.00
H1197  H     0.95255   0.26192   0.81657   0.00000  Uiso   1.00
H1198  H     0.94780   0.31268   0.83750   0.00000  Uiso   1.00
C1199  C     0.98744   0.30993   0.77615   0.00000  Uiso   1.00
H1200  H     0.98601   0.29255   0.74337   0.00000  Uiso   1.00
H1201  H     0.98173   0.00934   0.76659   0.00000  Uiso   1.00
C1202  C     0.70722   0.30600   0.80348   0.00000  Uiso   1.00
H1203  H     0.71018   0.32440   0.83574   0.00000  Uiso   1.00
H1204  H     0.73691   0.31766   0.78153   0.00000  Uiso   1.00
H1205  H     0.71457   0.27339   0.81307   0.00000  Uiso   1.00
O1206  O     0.82612   0.03778   0.91838   0.00000  Uiso   1.00
C1207  C     0.87723   0.04561   0.93991   0.00000  Uiso   1.00
H1208  H     0.87539   0.06806   0.96805   0.00000  Uiso   1.00
H1209  H     0.90244   0.06029   0.91521   0.00000  Uiso   1.00
C1210  C     0.90210   0.00671   0.96209   0.00000  Uiso   1.00
H1211  H     0.88009   0.32809   0.99052   0.00000  Uiso   1.00
H1212  H     0.90177   0.31594   0.93549   0.00000  Uiso   1.00
C1213  C     0.95808   0.01540   0.98182   0.00000  Uiso   1.00
H1214  H     0.98080   0.02627   0.95341   0.00000  Uiso   1.00
H1215  H     0.97503   0.32017   0.99743   0.00000  Uiso   1.00
H1216  H     0.96071   0.03902   0.67587   0.00000  Uiso   1.00
Br1217 Br    0.74840   0.10673   0.93950   0.00000  Uiso   1.00
Br1218 Br    0.92389   0.22059   0.72555   0.00000  Uiso   1.00
C1219  C     0.16925   0.42086   0.83406   0.00000  Uiso   1.00
C1220  C     0.16696   0.57927   0.83327   0.00000  Uiso   1.00
C1221  C     0.06810   0.49969   0.82152   0.00000  Uiso   1.00
C1222  C     0.26525   0.50022   0.84516   0.00000  Uiso   1.00
C1223  C     0.01301   0.49868   0.81501   0.00000  Uiso   1.00
C1224  C     0.32036   0.50103   0.85176   0.00000  Uiso   1.00
C1225  C     0.19170   0.35563   0.79856   0.00000  Uiso   1.00
C1226  C     0.15134   0.64483   0.87153   0.00000  Uiso   1.00
C1227  C     0.19506   0.64652   0.80150   0.00000  Uiso   1.00
C1228  C     0.16116   0.35343   0.87528   0.00000  Uiso   1.00
C1229  C     0.16924   0.62400   0.83439   0.00000  Uiso   1.00
C1230  C     0.17364   0.37629   0.83562   0.00000  Uiso   1.00
C1231  C     0.13151   0.47669   0.68866   0.00000  Uiso   1.00
C1232  C     0.20174   0.52312   0.97781   0.00000  Uiso   1.00
C1233  C     0.13162   0.47623   0.97273   0.00000  Uiso   1.00
C1234  C     0.20238   0.52275   0.69362   0.00000  Uiso   1.00
Cu1235 Cu    0.16667   0.50001   0.88022   0.00000  Uiso   1.00
Cu1236 Cu    0.16667   0.49999   0.78645   0.00000  Uiso   1.00
H1237  H     0.32709   0.49566   0.77958   0.00000  Uiso   1.00
H1238  H     0.00633   0.50380   0.88724   0.00000  Uiso   1.00
H1239  H     0.10362   0.45785   0.70504   0.00000  Uiso   1.00
H1240  H     0.22996   0.54157   0.96137   0.00000  Uiso   1.00
N1241  N     0.16668   0.50001   0.95069   0.00000  Uiso   1.00
N1242  N     0.16665   0.49999   0.71597   0.00000  Uiso   1.00
O1243  O     0.16666   0.43989   0.87291   0.00000  Uiso   1.00
O1244  O     0.16667   0.56011   0.79375   0.00000  Uiso   1.00
O1245  O     0.16666   0.43988   0.79372   0.00000  Uiso   1.00
O1246  O     0.16667   0.56012   0.87294   0.00000  Uiso   1.00
O1247  O     0.09161   0.50000   0.86379   0.00000  Uiso   1.00
O1248  O     0.24172   0.50000   0.80288   0.00000  Uiso   1.00
O1249  O     0.09161   0.49999   0.78460   0.00000  Uiso   1.00
O1250  O     0.24172   0.50001   0.88207   0.00000  Uiso   1.00
Br1251 Br    0.21928   0.38320   0.74642   0.00000  Uiso   1.00
Br1252 Br    0.11491   0.61862   0.91954   0.00000  Uiso   1.00
O1253  O     0.22980   0.62810   0.77687   0.00000  Uiso   1.00
C1254  C     0.27840   0.62742   0.80499   0.00000  Uiso   1.00
H1255  H     0.28588   0.59525   0.81657   0.00000  Uiso   1.00
H1256  H     0.28114   0.64601   0.83750   0.00000  Uiso   1.00
C1257  C     0.32077   0.64326   0.77615   0.00000  Uiso   1.00
H1258  H     0.31934   0.62588   0.74337   0.00000  Uiso   1.00
H1259  H     0.31506   0.34267   0.76659   0.00000  Uiso   1.00
C1260  C     0.04055   0.63933   0.80348   0.00000  Uiso   1.00
H1261  H     0.04351   0.65774   0.83574   0.00000  Uiso   1.00
H1262  H     0.07024   0.65100   0.78153   0.00000  Uiso   1.00
H1263  H     0.04790   0.60673   0.81307   0.00000  Uiso   1.00
O1264  O     0.15946   0.37111   0.91838   0.00000  Uiso   1.00
C1265  C     0.21056   0.37894   0.93991   0.00000  Uiso   1.00
H1266  H     0.20872   0.40139   0.96805   0.00000  Uiso   1.00
H1267  H     0.23578   0.39362   0.91521   0.00000  Uiso   1.00
C1268  C     0.23544   0.34005   0.96209   0.00000  Uiso   1.00
H1269  H     0.21342   0.66142   0.99052   0.00000  Uiso   1.00
H1270  H     0.23510   0.64927   0.93549   0.00000  Uiso   1.00
C1271  C     0.29141   0.34874   0.98182   0.00000  Uiso   1.00
H1272  H     0.31413   0.35960   0.95341   0.00000  Uiso   1.00
H1273  H     0.30836   0.65351   0.99743   0.00000  Uiso   1.00
H1274  H     0.29404   0.37236   0.67587   0.00000  Uiso   1.00
Br1275 Br    0.08173   0.44007   0.93950   0.00000  Uiso   1.00
Br1276 Br    0.25722   0.55392   0.72555   0.00000  Uiso   1.00
C1277  C     0.50258   0.42086   0.83406   0.00000  Uiso   1.00
C1278  C     0.50029   0.57927   0.83327   0.00000  Uiso   1.00
C1279  C     0.40143   0.49969   0.82152   0.00000  Uiso   1.00
C1280  C     0.59858   0.50022   0.84516   0.00000  Uiso   1.00
C1281  C     0.34635   0.49868   0.81501   0.00000  Uiso   1.00
C1282  C     0.65369   0.50103   0.85176   0.00000  Uiso   1.00
C1283  C     0.52503   0.35563   0.79856   0.00000  Uiso   1.00
C1284  C     0.48467   0.64483   0.87153   0.00000  Uiso   1.00
C1285  C     0.52839   0.64652   0.80150   0.00000  Uiso   1.00
C1286  C     0.49450   0.35343   0.87528   0.00000  Uiso   1.00
C1287  C     0.50257   0.62400   0.83439   0.00000  Uiso   1.00
C1288  C     0.50698   0.37629   0.83562   0.00000  Uiso   1.00
C1289  C     0.46484   0.47669   0.68866   0.00000  Uiso   1.00
C1290  C     0.53508   0.52312   0.97781   0.00000  Uiso   1.00
C1291  C     0.46495   0.47623   0.97273   0.00000  Uiso   1.00
C1292  C     0.53572   0.52275   0.69362   0.00000  Uiso   1.00
Cu1293 Cu    0.50000   0.50001   0.88022   0.00000  Uiso   1.00
Cu1294 Cu    0.50000   0.49999   0.78645   0.00000  Uiso   1.00
H1295  H     0.66042   0.49566   0.77958   0.00000  Uiso   1.00
H1296  H     0.33966   0.50380   0.88724   0.00000  Uiso   1.00
H1297  H     0.43696   0.45785   0.70504   0.00000  Uiso   1.00
H1298  H     0.56329   0.54157   0.96137   0.00000  Uiso   1.00
N1299  N     0.50001   0.50001   0.95069   0.00000  Uiso   1.00
N1300  N     0.49999   0.49999   0.71597   0.00000  Uiso   1.00
O1301  O     0.50000   0.43989   0.87291   0.00000  Uiso   1.00
O1302  O     0.50000   0.56011   0.79375   0.00000  Uiso   1.00
O1303  O     0.50000   0.43988   0.79372   0.00000  Uiso   1.00
O1304  O     0.50000   0.56012   0.87294   0.00000  Uiso   1.00
O1305  O     0.42495   0.50000   0.86379   0.00000  Uiso   1.00
O1306  O     0.57505   0.50000   0.80288   0.00000  Uiso   1.00
O1307  O     0.42494   0.49999   0.78460   0.00000  Uiso   1.00
O1308  O     0.57506   0.50001   0.88207   0.00000  Uiso   1.00
Br1309 Br    0.55261   0.38320   0.74642   0.00000  Uiso   1.00
Br1310 Br    0.44825   0.61862   0.91954   0.00000  Uiso   1.00
O1311  O     0.56313   0.62810   0.77687   0.00000  Uiso   1.00
C1312  C     0.61173   0.62742   0.80499   0.00000  Uiso   1.00
H1313  H     0.61922   0.59525   0.81657   0.00000  Uiso   1.00
H1314  H     0.61447   0.64601   0.83750   0.00000  Uiso   1.00
C1315  C     0.65410   0.64326   0.77615   0.00000  Uiso   1.00
H1316  H     0.65267   0.62588   0.74337   0.00000  Uiso   1.00
H1317  H     0.64840   0.34267   0.76659   0.00000  Uiso   1.00
C1318  C     0.37388   0.63933   0.80348   0.00000  Uiso   1.00
H1319  H     0.37684   0.65774   0.83574   0.00000  Uiso   1.00
H1320  H     0.40357   0.65100   0.78153   0.00000  Uiso   1.00
H1321  H     0.38124   0.60673   0.81307   0.00000  Uiso   1.00
O1322  O     0.49279   0.37111   0.91838   0.00000  Uiso   1.00
C1323  C     0.54389   0.37894   0.93991   0.00000  Uiso   1.00
H1324  H     0.54205   0.40139   0.96805   0.00000  Uiso   1.00
H1325  H     0.56911   0.39362   0.91521   0.00000  Uiso   1.00
C1326  C     0.56877   0.34005   0.96209   0.00000  Uiso   1.00
H1327  H     0.54675   0.66142   0.99052   0.00000  Uiso   1.00
H1328  H     0.56844   0.64927   0.93549   0.00000  Uiso   1.00
C1329  C     0.62475   0.34874   0.98182   0.00000  Uiso   1.00
H1330  H     0.64747   0.35960   0.95341   0.00000  Uiso   1.00
H1331  H     0.64170   0.65351   0.99743   0.00000  Uiso   1.00
H1332  H     0.62737   0.37236   0.67587   0.00000  Uiso   1.00
Br1333 Br    0.41506   0.44007   0.93950   0.00000  Uiso   1.00
Br1334 Br    0.59055   0.55392   0.72555   0.00000  Uiso   1.00
C1335  C     0.83592   0.42086   0.83406   0.00000  Uiso   1.00
C1336  C     0.83362   0.57927   0.83327   0.00000  Uiso   1.00
C1337  C     0.73477   0.49969   0.82152   0.00000  Uiso   1.00
C1338  C     0.93191   0.50022   0.84516   0.00000  Uiso   1.00
C1339  C     0.67968   0.49868   0.81501   0.00000  Uiso   1.00
C1340  C     0.98702   0.50103   0.85176   0.00000  Uiso   1.00
C1341  C     0.85837   0.35563   0.79856   0.00000  Uiso   1.00
C1342  C     0.81800   0.64483   0.87153   0.00000  Uiso   1.00
C1343  C     0.86173   0.64652   0.80150   0.00000  Uiso   1.00
C1344  C     0.82783   0.35343   0.87528   0.00000  Uiso   1.00
C1345  C     0.83590   0.62400   0.83439   0.00000  Uiso   1.00
C1346  C     0.84031   0.37629   0.83562   0.00000  Uiso   1.00
C1347  C     0.79818   0.47669   0.68866   0.00000  Uiso   1.00
C1348  C     0.86841   0.52312   0.97781   0.00000  Uiso   1.00
C1349  C     0.79828   0.47623   0.97273   0.00000  Uiso   1.00
C1350  C     0.86905   0.52275   0.69362   0.00000  Uiso   1.00
Cu1351 Cu    0.83333   0.50001   0.88022   0.00000  Uiso   1.00
Cu1352 Cu    0.83333   0.49999   0.78645   0.00000  Uiso   1.00
H1353  H     0.99376   0.49566   0.77958   0.00000  Uiso   1.00
H1354  H     0.67299   0.50380   0.88724   0.00000  Uiso   1.00
H1355  H     0.77029   0.45785   0.70504   0.00000  Uiso   1.00
H1356  H     0.89662   0.54157   0.96137   0.00000  Uiso   1.00
N1357  N     0.83335   0.50001   0.95069   0.00000  Uiso   1.00
N1358  N     0.83332   0.49999   0.71597   0.00000  Uiso   1.00
O1359  O     0.83333   0.43989   0.87291   0.00000  Uiso   1.00
O1360  O     0.83334   0.56011   0.79375   0.00000  Uiso   1.00
O1361  O     0.83333   0.43988   0.79372   0.00000  Uiso   1.00
O1362  O     0.83334   0.56012   0.87294   0.00000  Uiso   1.00
O1363  O     0.75828   0.50000   0.86379   0.00000  Uiso   1.00
O1364  O     0.90839   0.50000   0.80288   0.00000  Uiso   1.00
O1365  O     0.75828   0.49999   0.78460   0.00000  Uiso   1.00
O1366  O     0.90839   0.50001   0.88207   0.00000  Uiso   1.00
Br1367 Br    0.88595   0.38320   0.74642   0.00000  Uiso   1.00
Br1368 Br    0.78158   0.61862   0.91954   0.00000  Uiso   1.00
O1369  O     0.89646   0.62810   0.77687   0.00000  Uiso   1.00
C1370  C     0.94507   0.62742   0.80499   0.00000  Uiso   1.00
H1371  H     0.95255   0.59525   0.81657   0.00000  Uiso   1.00
H1372  H     0.94780   0.64601   0.83750   0.00000  Uiso   1.00
C1373  C     0.98744   0.64326   0.77615   0.00000  Uiso   1.00
H1374  H     0.98601   0.62588   0.74337   0.00000  Uiso   1.00
H1375  H     0.98173   0.34267   0.76659   0.00000  Uiso   1.00
C1376  C     0.70722   0.63933   0.80348   0.00000  Uiso   1.00
H1377  H     0.71018   0.65774   0.83574   0.00000  Uiso   1.00
H1378  H     0.73691   0.65100   0.78153   0.00000  Uiso   1.00
H1379  H     0.71457   0.60673   0.81307   0.00000  Uiso   1.00
O1380  O     0.82612   0.37111   0.91838   0.00000  Uiso   1.00
C1381  C     0.87723   0.37894   0.93991   0.00000  Uiso   1.00
H1382  H     0.87539   0.40139   0.96805   0.00000  Uiso   1.00
H1383  H     0.90244   0.39362   0.91521   0.00000  Uiso   1.00
C1384  C     0.90210   0.34005   0.96209   0.00000  Uiso   1.00
H1385  H     0.88009   0.66142   0.99052   0.00000  Uiso   1.00
H1386  H     0.90177   0.64927   0.93549   0.00000  Uiso   1.00
C1387  C     0.95808   0.34874   0.98182   0.00000  Uiso   1.00
H1388  H     0.98080   0.35960   0.95341   0.00000  Uiso   1.00
H1389  H     0.97503   0.65351   0.99743   0.00000  Uiso   1.00
H1390  H     0.96071   0.37236   0.67587   0.00000  Uiso   1.00
Br1391 Br    0.74840   0.44007   0.93950   0.00000  Uiso   1.00
Br1392 Br    0.92389   0.55392   0.72555   0.00000  Uiso   1.00
C1393  C     0.16925   0.75419   0.83406   0.00000  Uiso   1.00
C1394  C     0.16696   0.91261   0.83327   0.00000  Uiso   1.00
C1395  C     0.06810   0.83303   0.82152   0.00000  Uiso   1.00
C1396  C     0.26525   0.83356   0.84516   0.00000  Uiso   1.00
C1397  C     0.01301   0.83201   0.81501   0.00000  Uiso   1.00
C1398  C     0.32036   0.83436   0.85176   0.00000  Uiso   1.00
C1399  C     0.19170   0.68897   0.79856   0.00000  Uiso   1.00
C1400  C     0.15134   0.97816   0.87153   0.00000  Uiso   1.00
C1401  C     0.19506   0.97985   0.80150   0.00000  Uiso   1.00
C1402  C     0.16116   0.68676   0.87528   0.00000  Uiso   1.00
C1403  C     0.16924   0.95734   0.83439   0.00000  Uiso   1.00
C1404  C     0.17364   0.70962   0.83562   0.00000  Uiso   1.00
C1405  C     0.13151   0.81003   0.68866   0.00000  Uiso   1.00
C1406  C     0.20174   0.85646   0.97781   0.00000  Uiso   1.00
C1407  C     0.13162   0.80956   0.97273   0.00000  Uiso   1.00
C1408  C     0.20238   0.85609   0.69362   0.00000  Uiso   1.00
Cu1409 Cu    0.16667   0.83334   0.88022   0.00000  Uiso   1.00
Cu1410 Cu    0.16667   0.83333   0.78645   0.00000  Uiso   1.00
H1411  H     0.32709   0.82899   0.77958   0.00000  Uiso   1.00
H1412  H     0.00633   0.83713   0.88724   0.00000  Uiso   1.00
H1413  H     0.10362   0.79119   0.70504   0.00000  Uiso   1.00
H1414  H     0.22996   0.87491   0.96137   0.00000  Uiso   1.00
N1415  N     0.16668   0.83334   0.95069   0.00000  Uiso   1.00
N1416  N     0.16665   0.83332   0.71597   0.00000  Uiso   1.00
O1417  O     0.16666   0.77322   0.87291   0.00000  Uiso   1.00
O1418  O     0.16667   0.89345   0.79375   0.00000  Uiso   1.00
O1419  O     0.16666   0.77321   0.79372   0.00000  Uiso   1.00
O1420  O     0.16667   0.89346   0.87294   0.00000  Uiso   1.00
O1421  O     0.09161   0.83334   0.86379   0.00000  Uiso   1.00
O1422  O     0.24172   0.83333   0.80288   0.00000  Uiso   1.00
O1423  O     0.09161   0.83333   0.78460   0.00000  Uiso   1.00
O1424  O     0.24172   0.83334   0.88207   0.00000  Uiso   1.00
Br1425 Br    0.21928   0.71653   0.74642   0.00000  Uiso   1.00
Br1426 Br    0.11491   0.95196   0.91954   0.00000  Uiso   1.00
O1427  O     0.22980   0.96143   0.77687   0.00000  Uiso   1.00
C1428  C     0.27840   0.96075   0.80499   0.00000  Uiso   1.00
H1429  H     0.28588   0.92859   0.81657   0.00000  Uiso   1.00
H1430  H     0.28114   0.97935   0.83750   0.00000  Uiso   1.00
C1431  C     0.32077   0.97659   0.77615   0.00000  Uiso   1.00
H1432  H     0.31934   0.95922   0.74337   0.00000  Uiso   1.00
H1433  H     0.31506   0.67600   0.76659   0.00000  Uiso   1.00
C1434  C     0.04055   0.97266   0.80348   0.00000  Uiso   1.00
H1435  H     0.04351   0.99107   0.83574   0.00000  Uiso   1.00
H1436  H     0.07024   0.98433   0.78153   0.00000  Uiso   1.00
H1437  H     0.04790   0.94006   0.81307   0.00000  Uiso   1.00
O1438  O     0.15946   0.70444   0.91838   0.00000  Uiso   1.00
C1439  C     0.21056   0.71228   0.93991   0.00000  Uiso   1.00
H1440  H     0.20872   0.73473   0.96805   0.00000  Uiso   1.00
H1441  H     0.23578   0.72695   0.91521   0.00000  Uiso   1.00
C1442  C     0.23544   0.67338   0.96209   0.00000  Uiso   1.00
H1443  H     0.21342   0.99475   0.99052   0.00000  Uiso   1.00
H1444  H     0.23510   0.98260   0.93549   0.00000  Uiso   1.00
C1445  C     0.29141   0.68207   0.98182   0.00000  Uiso   1.00
H1446  H     0.31413   0.69294   0.95341   0.00000  Uiso   1.00
H1447  H     0.30836   0.98684   0.99743   0.00000  Uiso   1.00
H1448  H     0.29404   0.70569   0.67587   0.00000  Uiso   1.00
Br1449 Br    0.08173   0.77340   0.93950   0.00000  Uiso   1.00
Br1450 Br    0.25722   0.88726   0.72555   0.00000  Uiso   1.00
C1451  C     0.50258   0.75419   0.83406   0.00000  Uiso   1.00
C1452  C     0.50029   0.91261   0.83327   0.00000  Uiso   1.00
C1453  C     0.40143   0.83303   0.82152   0.00000  Uiso   1.00
C1454  C     0.59858   0.83356   0.84516   0.00000  Uiso   1.00
C1455  C     0.34635   0.83201   0.81501   0.00000  Uiso   1.00
C1456  C     0.65369   0.83436   0.85176   0.00000  Uiso   1.00
C1457  C     0.52503   0.68897   0.79856   0.00000  Uiso   1.00
C1458  C     0.48467   0.97816   0.87153   0.00000  Uiso   1.00
C1459  C     0.52839   0.97985   0.80150   0.00000  Uiso   1.00
C1460  C     0.49450   0.68676   0.87528   0.00000  Uiso   1.00
C1461  C     0.50257   0.95734   0.83439   0.00000  Uiso   1.00
C1462  C     0.50698   0.70962   0.83562   0.00000  Uiso   1.00
C1463  C     0.46484   0.81003   0.68866   0.00000  Uiso   1.00
C1464  C     0.53508   0.85646   0.97781   0.00000  Uiso   1.00
C1465  C     0.46495   0.80956   0.97273   0.00000  Uiso   1.00
C1466  C     0.53572   0.85609   0.69362   0.00000  Uiso   1.00
Cu1467 Cu    0.50000   0.83334   0.88022   0.00000  Uiso   1.00
Cu1468 Cu    0.50000   0.83333   0.78645   0.00000  Uiso   1.00
H1469  H     0.66042   0.82899   0.77958   0.00000  Uiso   1.00
H1470  H     0.33966   0.83713   0.88724   0.00000  Uiso   1.00
H1471  H     0.43696   0.79119   0.70504   0.00000  Uiso   1.00
H1472  H     0.56329   0.87491   0.96137   0.00000  Uiso   1.00
N1473  N     0.50001   0.83334   0.95069   0.00000  Uiso   1.00
N1474  N     0.49999   0.83332   0.71597   0.00000  Uiso   1.00
O1475  O     0.50000   0.77322   0.87291   0.00000  Uiso   1.00
O1476  O     0.50000   0.89345   0.79375   0.00000  Uiso   1.00
O1477  O     0.50000   0.77321   0.79372   0.00000  Uiso   1.00
O1478  O     0.50000   0.89346   0.87294   0.00000  Uiso   1.00
O1479  O     0.42495   0.83334   0.86379   0.00000  Uiso   1.00
O1480  O     0.57505   0.83333   0.80288   0.00000  Uiso   1.00
O1481  O     0.42494   0.83333   0.78460   0.00000  Uiso   1.00
O1482  O     0.57506   0.83334   0.88207   0.00000  Uiso   1.00
Br1483 Br    0.55261   0.71653   0.74642   0.00000  Uiso   1.00
Br1484 Br    0.44825   0.95196   0.91954   0.00000  Uiso   1.00
O1485  O     0.56313   0.96143   0.77687   0.00000  Uiso   1.00
C1486  C     0.61173   0.96075   0.80499   0.00000  Uiso   1.00
H1487  H     0.61922   0.92859   0.81657   0.00000  Uiso   1.00
H1488  H     0.61447   0.97935   0.83750   0.00000  Uiso   1.00
C1489  C     0.65410   0.97659   0.77615   0.00000  Uiso   1.00
H1490  H     0.65267   0.95922   0.74337   0.00000  Uiso   1.00
H1491  H     0.64840   0.67600   0.76659   0.00000  Uiso   1.00
C1492  C     0.37388   0.97266   0.80348   0.00000  Uiso   1.00
H1493  H     0.37684   0.99107   0.83574   0.00000  Uiso   1.00
H1494  H     0.40357   0.98433   0.78153   0.00000  Uiso   1.00
H1495  H     0.38124   0.94006   0.81307   0.00000  Uiso   1.00
O1496  O     0.49279   0.70444   0.91838   0.00000  Uiso   1.00
C1497  C     0.54389   0.71228   0.93991   0.00000  Uiso   1.00
H1498  H     0.54205   0.73473   0.96805   0.00000  Uiso   1.00
H1499  H     0.56911   0.72695   0.91521   0.00000  Uiso   1.00
C1500  C     0.56877   0.67338   0.96209   0.00000  Uiso   1.00
H1501  H     0.54675   0.99475   0.99052   0.00000  Uiso   1.00
H1502  H     0.56844   0.98260   0.93549   0.00000  Uiso   1.00
C1503  C     0.62475   0.68207   0.98182   0.00000  Uiso   1.00
H1504  H     0.64747   0.69294   0.95341   0.00000  Uiso   1.00
H1505  H     0.64170   0.98684   0.99743   0.00000  Uiso   1.00
H1506  H     0.62737   0.70569   0.67587   0.00000  Uiso   1.00
Br1507 Br    0.41506   0.77340   0.93950   0.00000  Uiso   1.00
Br1508 Br    0.59055   0.88726   0.72555   0.00000  Uiso   1.00
C1509  C     0.83592   0.75419   0.83406   0.00000  Uiso   1.00
C1510  C     0.83362   0.91261   0.83327   0.00000  Uiso   1.00
C1511  C     0.73477   0.83303   0.82152   0.00000  Uiso   1.00
C1512  C     0.93191   0.83356   0.84516   0.00000  Uiso   1.00
C1513  C     0.67968   0.83201   0.81501   0.00000  Uiso   1.00
C1514  C     0.98702   0.83436   0.85176   0.00000  Uiso   1.00
C1515  C     0.85837   0.68897   0.79856   0.00000  Uiso   1.00
C1516  C     0.81800   0.97816   0.87153   0.00000  Uiso   1.00
C1517  C     0.86173   0.97985   0.80150   0.00000  Uiso   1.00
C1518  C     0.82783   0.68676   0.87528   0.00000  Uiso   1.00
C1519  C     0.83590   0.95734   0.83439   0.00000  Uiso   1.00
C1520  C     0.84031   0.70962   0.83562   0.00000  Uiso   1.00
C1521  C     0.79818   0.81003   0.68866   0.00000  Uiso   1.00
C1522  C     0.86841   0.85646   0.97781   0.00000  Uiso   1.00
C1523  C     0.79828   0.80956   0.97273   0.00000  Uiso   1.00
C1524  C     0.86905   0.85609   0.69362   0.00000  Uiso   1.00
Cu1525 Cu    0.83333   0.83334   0.88022   0.00000  Uiso   1.00
Cu1526 Cu    0.83333   0.83333   0.78645   0.00000  Uiso   1.00
H1527  H     0.99376   0.82899   0.77958   0.00000  Uiso   1.00
H1528  H     0.67299   0.83713   0.88724   0.00000  Uiso   1.00
H1529  H     0.77029   0.79119   0.70504   0.00000  Uiso   1.00
H1530  H     0.89662   0.87491   0.96137   0.00000  Uiso   1.00
N1531  N     0.83335   0.83334   0.95069   0.00000  Uiso   1.00
N1532  N     0.83332   0.83332   0.71597   0.00000  Uiso   1.00
O1533  O     0.83333   0.77322   0.87291   0.00000  Uiso   1.00
O1534  O     0.83334   0.89345   0.79375   0.00000  Uiso   1.00
O1535  O     0.83333   0.77321   0.79372   0.00000  Uiso   1.00
O1536  O     0.83334   0.89346   0.87294   0.00000  Uiso   1.00
O1537  O     0.75828   0.83334   0.86379   0.00000  Uiso   1.00
O1538  O     0.90839   0.83333   0.80288   0.00000  Uiso   1.00
O1539  O     0.75828   0.83333   0.78460   0.00000  Uiso   1.00
O1540  O     0.90839   0.83334   0.88207   0.00000  Uiso   1.00
Br1541 Br    0.88595   0.71653   0.74642   0.00000  Uiso   1.00
Br1542 Br    0.78158   0.95196   0.91954   0.00000  Uiso   1.00
O1543  O     0.89646   0.96143   0.77687   0.00000  Uiso   1.00
C1544  C     0.94507   0.96075   0.80499   0.00000  Uiso   1.00
H1545  H     0.95255   0.92859   0.81657   0.00000  Uiso   1.00
H1546  H     0.94780   0.97935   0.83750   0.00000  Uiso   1.00
C1547  C     0.98744   0.97659   0.77615   0.00000  Uiso   1.00
H1548  H     0.98601   0.95922   0.74337   0.00000  Uiso   1.00
H1549  H     0.98173   0.67600   0.76659   0.00000  Uiso   1.00
C1550  C     0.70722   0.97266   0.80348   0.00000  Uiso   1.00
H1551  H     0.71018   0.99107   0.83574   0.00000  Uiso   1.00
H1552  H     0.73691   0.98433   0.78153   0.00000  Uiso   1.00
H1553  H     0.71457   0.94006   0.81307   0.00000  Uiso   1.00
O1554  O     0.82612   0.70444   0.91838   0.00000  Uiso   1.00
C1555  C     0.87723   0.71228   0.93991   0.00000  Uiso   1.00
H1556  H     0.87539   0.73473   0.96805   0.00000  Uiso   1.00
H1557  H     0.90244   0.72695   0.91521   0.00000  Uiso   1.00
C1558  C     0.90210   0.67338   0.96209   0.00000  Uiso   1.00
H1559  H     0.88009   0.99475   0.99052   0.00000  Uiso   1.00
H1560  H     0.90177   0.98260   0.93549   0.00000  Uiso   1.00
C1561  C     0.95808   0.68207   0.98182   0.00000  Uiso   1.00
H1562  H     0.98080   0.69294   0.95341   0.00000  Uiso   1.00
H1563  H     0.97503   0.98684   0.99743   0.00000  Uiso   1.00
H1564  H     0.96071   0.70569   0.67587   0.00000  Uiso   1.00
Br1565 Br    0.74840   0.77340   0.93950   0.00000  Uiso   1.00
Br1566 Br    0.92389   0.88726   0.72555   0.00000  Uiso   1.00
loop_
_geom_bond_atom_site_label_1
_geom_bond_atom_site_label_2
_geom_bond_distance
_geom_bond_site_symmetry_2
_ccdc_geom_bond_type
C1     O25     1.301   .     A
C1     C12     1.463   .     S
C1     O27     1.298   .     A
C2     O26     1.309   .     A
C2     C11     1.461   .     S
C2     O28     1.288   .     A
C3     O31     1.289   .     A
C3     O29     1.295   .     A
C3     C5      1.431   .     S
C4     O32     1.288   .     A
C4     C6      1.432   .     S
C4     O30     1.296   .     A
C5     C122    1.328   1_455 S
C5     H135    1.086   1_455 S
C6     C63     1.328   .     S
C6     H78     1.087   .     S
C7     C12     1.411   .     A
C7     Br33    1.931   .     S
C7     C357    1.392   1_545 S
C8     C11     1.413   .     A
C8     Br34    1.936   .     S
C8     C184    1.389   .     S
C9     C11     1.406   .     A
C9     O35     1.379   .     S
C9     C181    1.392   .     S
C10    O46     1.385   .     S
C10    C12     1.413   .     A
C10    C356    1.389   1_545 S
C13    H21     1.082   .     S
C13    N24     1.360   .     A
C13    C1059   1.417   1_554 S
C14    N23     1.352   .     A
C14    H22     1.082   .     S
C14    C538    1.410   .     S
C15    N23     1.383   .     A
C15    Br57    1.913   .     S
C15    C535    1.417   .     S
C16    Br58    1.889   .     S
C16    N24     1.383   .     A
C16    C1058   1.410   1_554 S
Cu17   O25     1.980   .     S
Cu17   Cu18    2.696   .     S
Cu17   N23     2.026   .     S
Cu17   O29     1.965   .     S
Cu17   O32     1.960   .     S
Cu17   O28     1.970   .     S
Cu18   O26     1.980   .     S
Cu18   N24     2.026   .     S
Cu18   O30     1.965   .     S
Cu18   O31     1.960   .     S
Cu18   O27     1.970   .     S
H19    C63     1.086   .     S
H20    C122    1.087   1_455 S
O35    C36     1.424   .     S
C36    H37     1.111   .     S
C36    H38     1.120   .     S
C36    C39     1.532   .     S
C39    H40     1.108   .     S
C39    H215    1.109   .     S
C39    C100    1.521   .     S
H41    C387    1.109   1_545 S
C42    H44     1.110   .     S
C42    H43     1.111   .     S
C42    H45     1.111   .     S
C42    C155    1.521   1_455 S
O46    C47     1.423   .     S
C47    H49     1.115   .     S
C47    C50     1.538   .     S
C47    H48     1.111   .     S
C50    C53     1.527   .     S
C50    H399    1.111   1_545 S
C50    H400    1.110   1_545 S
H51    C224    1.111   .     S
H52    C224    1.110   .     S
C53    H54     1.111   .     S
C53    H403    1.109   1_545 S
C53    H578    1.110   .     S
H55    C227    1.109   .     S
H56    C1097   1.110   1_554 S
C59    O83     1.301   .     A
C59    C70     1.463   .     S
C59    O85     1.298   .     A
C60    O84     1.309   .     A
C60    C69     1.461   .     S
C60    O86     1.288   .     A
C61    O89     1.289   .     A
C61    O87     1.295   .     A
C61    C63     1.431   .     S
C62    O90     1.288   .     A
C62    C64     1.432   .     S
C62    O88     1.296   .     A
C64    C121    1.328   .     S
C64    H136    1.087   .     S
C65    C70     1.411   .     A
C65    Br91    1.931   .     S
C65    C415    1.392   1_545 S
C66    C69     1.413   .     A
C66    Br92    1.936   .     S
C66    C242    1.389   .     S
C67    C69     1.406   .     A
C67    O93     1.379   .     S
C67    C239    1.392   .     S
C68    O104    1.385   .     S
C68    C70     1.413   .     A
C68    C414    1.389   1_545 S
C71    H79     1.082   .     S
C71    N82     1.360   .     A
C71    C1117   1.417   1_554 S
C72    N81     1.352   .     A
C72    H80     1.082   .     S
C72    C596    1.410   .     S
C73    N81     1.383   .     A
C73    Br115   1.913   .     S
C73    C593    1.417   .     S
C74    Br116   1.889   .     S
C74    N82     1.383   .     A
C74    C1116   1.410   1_554 S
Cu75   O83     1.980   .     S
Cu75   Cu76    2.696   .     S
Cu75   N81     2.026   .     S
Cu75   O87     1.965   .     S
Cu75   O90     1.960   .     S
Cu75   O86     1.970   .     S
Cu76   O84     1.980   .     S
Cu76   N82     2.026   .     S
Cu76   O88     1.965   .     S
Cu76   O89     1.960   .     S
Cu76   O85     1.970   .     S
H77    C121    1.086   .     S
O93    C94     1.424   .     S
C94    H95     1.111   .     S
C94    H96     1.120   .     S
C94    C97     1.532   .     S
C97    H98     1.108   .     S
C97    H273    1.109   .     S
C97    C158    1.521   .     S
H99    C445    1.109   1_545 S
C100   H102    1.110   .     S
C100   H101    1.111   .     S
C100   H103    1.111   .     S
O104   C105    1.423   .     S
C105   H107    1.115   .     S
C105   C108    1.538   .     S
C105   H106    1.111   .     S
C108   C111    1.527   .     S
C108   H457    1.111   1_545 S
C108   H458    1.110   1_545 S
H109   C282    1.111   .     S
H110   C282    1.110   .     S
C111   H112    1.111   .     S
C111   H461    1.109   1_545 S
C111   H636    1.110   .     S
H113   C285    1.109   .     S
H114   C1155   1.110   1_554 S
C117   O141    1.301   .     A
C117   C128    1.463   .     S
C117   O143    1.298   .     A
C118   O142    1.309   .     A
C118   C127    1.461   .     S
C118   O144    1.288   .     A
C119   O147    1.289   .     A
C119   O145    1.295   .     A
C119   C121    1.431   .     S
C120   O148    1.288   .     A
C120   C122    1.432   .     S
C120   O146    1.296   .     A
C122   C5      1.328   1_655 S
C122   H20     1.087   1_655 S
C123   C128    1.411   .     A
C123   Br149   1.931   .     S
C123   C473    1.392   1_545 S
C124   C127    1.413   .     A
C124   Br150   1.936   .     S
C124   C300    1.389   .     S
C125   C127    1.406   .     A
C125   O151    1.379   .     S
C125   C297    1.392   .     S
C126   O162    1.385   .     S
C126   C128    1.413   .     A
C126   C472    1.389   1_545 S
C129   H137    1.082   .     S
C129   N140    1.360   .     A
C129   C1175   1.417   1_554 S
C130   N139    1.352   .     A
C130   H138    1.082   .     S
C130   C654    1.410   .     S
C131   N139    1.383   .     A
C131   Br173   1.913   .     S
C131   C651    1.417   .     S
C132   Br174   1.889   .     S
C132   N140    1.383   .     A
C132   C1174   1.410   1_554 S
Cu133  O141    1.980   .     S
Cu133  Cu134   2.696   .     S
Cu133  N139    2.026   .     S
Cu133  O145    1.965   .     S
Cu133  O148    1.960   .     S
Cu133  O144    1.970   .     S
Cu134  O142    1.980   .     S
Cu134  N140    2.026   .     S
Cu134  O146    1.965   .     S
Cu134  O147    1.960   .     S
Cu134  O143    1.970   .     S
H135   C5      1.086   1_655 S
O151   C152    1.424   .     S
C152   H153    1.111   .     S
C152   H154    1.120   .     S
C152   C155    1.532   .     S
C155   H156    1.108   .     S
C155   H331    1.109   .     S
C155   C42     1.521   1_655 S
H157   C503    1.109   1_545 S
C158   H160    1.110   .     S
C158   H159    1.111   .     S
C158   H161    1.111   .     S
O162   C163    1.423   .     S
C163   H165    1.115   .     S
C163   C166    1.538   .     S
C163   H164    1.111   .     S
C166   C169    1.527   .     S
C166   H515    1.111   1_545 S
C166   H516    1.110   1_545 S
H167   C340    1.111   .     S
H168   C340    1.110   .     S
C169   H170    1.111   .     S
C169   H519    1.109   1_545 S
C169   H694    1.110   .     S
H171   C343    1.109   .     S
H172   C1213   1.110   1_554 S
C175   O199    1.301   .     A
C175   C186    1.463   .     S
C175   O201    1.298   .     A
C176   O200    1.309   .     A
C176   C185    1.461   .     S
C176   O202    1.288   .     A
C177   O205    1.289   .     A
C177   O203    1.295   .     A
C177   C179    1.431   .     S
C178   O206    1.288   .     A
C178   C180    1.432   .     S
C178   O204    1.296   .     A
C179   C296    1.328   1_455 S
C179   H309    1.086   1_455 S
C180   C237    1.328   .     S
C180   H252    1.087   .     S
C181   C186    1.411   .     A
C181   Br207   1.931   .     S
C182   C185    1.413   .     A
C182   Br208   1.936   .     S
C182   C358    1.389   .     S
C183   C185    1.406   .     A
C183   O209    1.379   .     S
C183   C355    1.392   .     S
C184   O220    1.385   .     S
C184   C186    1.413   .     A
C187   H195    1.082   .     S
C187   N198    1.360   .     A
C187   C1233   1.417   1_554 S
C188   N197    1.352   .     A
C188   H196    1.082   .     S
C188   C712    1.410   .     S
C189   N197    1.383   .     A
C189   Br231   1.913   .     S
C189   C709    1.417   .     S
C190   Br232   1.889   .     S
C190   N198    1.383   .     A
C190   C1232   1.410   1_554 S
Cu191  O199    1.980   .     S
Cu191  Cu192   2.696   .     S
Cu191  N197    2.026   .     S
Cu191  O203    1.965   .     S
Cu191  O206    1.960   .     S
Cu191  O202    1.970   .     S
Cu192  O200    1.980   .     S
Cu192  N198    2.026   .     S
Cu192  O204    1.965   .     S
Cu192  O205    1.960   .     S
Cu192  O201    1.970   .     S
H193   C237    1.086   .     S
H194   C296    1.087   1_455 S
O209   C210    1.424   .     S
C210   H211    1.111   .     S
C210   H212    1.120   .     S
C210   C213    1.532   .     S
C213   H214    1.108   .     S
C213   H389    1.109   .     S
C213   C274    1.521   .     S
C216   H218    1.110   .     S
C216   H217    1.111   .     S
C216   H219    1.111   .     S
C216   C329    1.521   1_455 S
O220   C221    1.423   .     S
C221   H223    1.115   .     S
C221   C224    1.538   .     S
C221   H222    1.111   .     S
C224   C227    1.527   .     S
H225   C398    1.111   .     S
H226   C398    1.110   .     S
C227   H228    1.111   .     S
C227   H752    1.110   .     S
H229   C401    1.109   .     S
H230   C1271   1.110   1_554 S
C233   O257    1.301   .     A
C233   C244    1.463   .     S
C233   O259    1.298   .     A
C234   O258    1.309   .     A
C234   C243    1.461   .     S
C234   O260    1.288   .     A
C235   O263    1.289   .     A
C235   O261    1.295   .     A
C235   C237    1.431   .     S
C236   O264    1.288   .     A
C236   C238    1.432   .     S
C236   O262    1.296   .     A
C238   C295    1.328   .     S
C238   H310    1.087   .     S
C239   C244    1.411   .     A
C239   Br265   1.931   .     S
C240   C243    1.413   .     A
C240   Br266   1.936   .     S
C240   C416    1.389   .     S
C241   C243    1.406   .     A
C241   O267    1.379   .     S
C241   C413    1.392   .     S
C242   O278    1.385   .     S
C242   C244    1.413   .     A
C245   H253    1.082   .     S
C245   N256    1.360   .     A
C245   C1291   1.417   1_554 S
C246   N255    1.352   .     A
C246   H254    1.082   .     S
C246   C770    1.410   .     S
C247   N255    1.383   .     A
C247   Br289   1.913   .     S
C247   C767    1.417   .     S
C248   Br290   1.889   .     S
C248   N256    1.383   .     A
C248   C1290   1.410   1_554 S
Cu249  O257    1.980   .     S
Cu249  Cu250   2.696   .     S
Cu249  N255    2.026   .     S
Cu249  O261    1.965   .     S
Cu249  O264    1.960   .     S
Cu249  O260    1.970   .     S
Cu250  O258    1.980   .     S
Cu250  N256    2.026   .     S
Cu250  O262    1.965   .     S
Cu250  O263    1.960   .     S
Cu250  O259    1.970   .     S
H251   C295    1.086   .     S
O267   C268    1.424   .     S
C268   H269    1.111   .     S
C268   H270    1.120   .     S
C268   C271    1.532   .     S
C271   H272    1.108   .     S
C271   H447    1.109   .     S
C271   C332    1.521   .     S
C274   H276    1.110   .     S
C274   H275    1.111   .     S
C274   H277    1.111   .     S
O278   C279    1.423   .     S
C279   H281    1.115   .     S
C279   C282    1.538   .     S
C279   H280    1.111   .     S
C282   C285    1.527   .     S
H283   C456    1.111   .     S
H284   C456    1.110   .     S
C285   H286    1.111   .     S
C285   H810    1.110   .     S
H287   C459    1.109   .     S
H288   C1329   1.110   1_554 S
C291   O315    1.301   .     A
C291   C302    1.463   .     S
C291   O317    1.298   .     A
C292   O316    1.309   .     A
C292   C301    1.461   .     S
C292   O318    1.288   .     A
C293   O321    1.289   .     A
C293   O319    1.295   .     A
C293   C295    1.431   .     S
C294   O322    1.288   .     A
C294   C296    1.432   .     S
C294   O320    1.296   .     A
C296   C179    1.328   1_655 S
C296   H194    1.087   1_655 S
C297   C302    1.411   .     A
C297   Br323   1.931   .     S
C298   C301    1.413   .     A
C298   Br324   1.936   .     S
C298   C474    1.389   .     S
C299   C301    1.406   .     A
C299   O325    1.379   .     S
C299   C471    1.392   .     S
C300   O336    1.385   .     S
C300   C302    1.413   .     A
C303   H311    1.082   .     S
C303   N314    1.360   .     A
C303   C1349   1.417   1_554 S
C304   N313    1.352   .     A
C304   H312    1.082   .     S
C304   C828    1.410   .     S
C305   N313    1.383   .     A
C305   Br347   1.913   .     S
C305   C825    1.417   .     S
C306   Br348   1.889   .     S
C306   N314    1.383   .     A
C306   C1348   1.410   1_554 S
Cu307  O315    1.980   .     S
Cu307  Cu308   2.696   .     S
Cu307  N313    2.026   .     S
Cu307  O319    1.965   .     S
Cu307  O322    1.960   .     S
Cu307  O318    1.970   .     S
Cu308  O316    1.980   .     S
Cu308  N314    2.026   .     S
Cu308  O320    1.965   .     S
Cu308  O321    1.960   .     S
Cu308  O317    1.970   .     S
H309   C179    1.086   1_655 S
O325   C326    1.424   .     S
C326   H327    1.111   .     S
C326   H328    1.120   .     S
C326   C329    1.532   .     S
C329   H330    1.108   .     S
C329   H505    1.109   .     S
C329   C216    1.521   1_655 S
C332   H334    1.110   .     S
C332   H333    1.111   .     S
C332   H335    1.111   .     S
O336   C337    1.423   .     S
C337   H339    1.115   .     S
C337   C340    1.538   .     S
C337   H338    1.111   .     S
C340   C343    1.527   .     S
H341   C514    1.111   .     S
H342   C514    1.110   .     S
C343   H344    1.111   .     S
C343   H868    1.110   .     S
H345   C517    1.109   .     S
H346   C1387   1.110   1_554 S
C349   O373    1.301   .     A
C349   C360    1.463   .     S
C349   O375    1.298   .     A
C350   O374    1.309   .     A
C350   C359    1.461   .     S
C350   O376    1.288   .     A
C351   O379    1.289   .     A
C351   O377    1.295   .     A
C351   C353    1.431   .     S
C352   O380    1.288   .     A
C352   C354    1.432   .     S
C352   O378    1.296   .     A
C353   C470    1.328   1_455 S
C353   H483    1.086   1_455 S
C354   C411    1.328   .     S
C354   H426    1.087   .     S
C355   C360    1.411   .     A
C355   Br381   1.931   .     S
C356   C359    1.413   .     A
C356   Br382   1.936   .     S
C356   C10     1.389   1_565 S
C357   C359    1.406   .     A
C357   O383    1.379   .     S
C357   C7      1.392   1_565 S
C358   O394    1.385   .     S
C358   C360    1.413   .     A
C361   H369    1.082   .     S
C361   N372    1.360   .     A
C361   C1407   1.417   1_554 S
C362   N371    1.352   .     A
C362   H370    1.082   .     S
C362   C886    1.410   .     S
C363   N371    1.383   .     A
C363   Br405   1.913   .     S
C363   C883    1.417   .     S
C364   Br406   1.889   .     S
C364   N372    1.383   .     A
C364   C1406   1.410   1_554 S
Cu365  O373    1.980   .     S
Cu365  Cu366   2.696   .     S
Cu365  N371    2.026   .     S
Cu365  O377    1.965   .     S
Cu365  O380    1.960   .     S
Cu365  O376    1.970   .     S
Cu366  O374    1.980   .     S
Cu366  N372    2.026   .     S
Cu366  O378    1.965   .     S
Cu366  O379    1.960   .     S
Cu366  O375    1.970   .     S
H367   C411    1.086   .     S
H368   C470    1.087   1_455 S
O383   C384    1.424   .     S
C384   H385    1.111   .     S
C384   H386    1.120   .     S
C384   C387    1.532   .     S
C387   H388    1.108   .     S
C387   H41     1.109   1_565 S
C387   C448    1.521   .     S
C390   H392    1.110   .     S
C390   H391    1.111   .     S
C390   H393    1.111   .     S
C390   C503    1.521   1_455 S
O394   C395    1.423   .     S
C395   H397    1.115   .     S
C395   C398    1.538   .     S
C395   H396    1.111   .     S
C398   C401    1.527   .     S
H399   C50     1.111   1_565 S
H400   C50     1.110   1_565 S
C401   H402    1.111   .     S
C401   H926    1.110   .     S
H403   C53     1.109   1_565 S
H404   C1445   1.110   1_554 S
C407   O431    1.301   .     A
C407   C418    1.463   .     S
C407   O433    1.298   .     A
C408   O432    1.309   .     A
C408   C417    1.461   .     S
C408   O434    1.288   .     A
C409   O437    1.289   .     A
C409   O435    1.295   .     A
C409   C411    1.431   .     S
C410   O438    1.288   .     A
C410   C412    1.432   .     S
C410   O436    1.296   .     A
C412   C469    1.328   .     S
C412   H484    1.087   .     S
C413   C418    1.411   .     A
C413   Br439   1.931   .     S
C414   C417    1.413   .     A
C414   Br440   1.936   .     S
C414   C68     1.389   1_565 S
C415   C417    1.406   .     A
C415   O441    1.379   .     S
C415   C65     1.392   1_565 S
C416   O452    1.385   .     S
C416   C418    1.413   .     A
C419   H427    1.082   .     S
C419   N430    1.360   .     A
C419   C1465   1.417   1_554 S
C420   N429    1.352   .     A
C420   H428    1.082   .     S
C420   C944    1.410   .     S
C421   N429    1.383   .     A
C421   Br463   1.913   .     S
C421   C941    1.417   .     S
C422   Br464   1.889   .     S
C422   N430    1.383   .     A
C422   C1464   1.410   1_554 S
Cu423  O431    1.980   .     S
Cu423  Cu424   2.696   .     S
Cu423  N429    2.026   .     S
Cu423  O435    1.965   .     S
Cu423  O438    1.960   .     S
Cu423  O434    1.970   .     S
Cu424  O432    1.980   .     S
Cu424  N430    2.026   .     S
Cu424  O436    1.965   .     S
Cu424  O437    1.960   .     S
Cu424  O433    1.970   .     S
H425   C469    1.086   .     S
O441   C442    1.424   .     S
C442   H443    1.111   .     S
C442   H444    1.120   .     S
C442   C445    1.532   .     S
C445   H446    1.108   .     S
C445   H99     1.109   1_565 S
C445   C506    1.521   .     S
C448   H450    1.110   .     S
C448   H449    1.111   .     S
C448   H451    1.111   .     S
O452   C453    1.423   .     S
C453   H455    1.115   .     S
C453   C456    1.538   .     S
C453   H454    1.111   .     S
C456   C459    1.527   .     S
H457   C108    1.111   1_565 S
H458   C108    1.110   1_565 S
C459   H460    1.111   .     S
C459   H984    1.110   .     S
H461   C111    1.109   1_565 S
H462   C1503   1.110   1_554 S
C465   O489    1.301   .     A
C465   C476    1.463   .     S
C465   O491    1.298   .     A
C466   O490    1.309   .     A
C466   C475    1.461   .     S
C466   O492    1.288   .     A
C467   O495    1.289   .     A
C467   O493    1.295   .     A
C467   C469    1.431   .     S
C468   O496    1.288   .     A
C468   C470    1.432   .     S
C468   O494    1.296   .     A
C470   C353    1.328   1_655 S
C470   H368    1.087   1_655 S
C471   C476    1.411   .     A
C471   Br497   1.931   .     S
C472   C475    1.413   .     A
C472   Br498   1.936   .     S
C472   C126    1.389   1_565 S
C473   C475    1.406   .     A
C473   O499    1.379   .     S
C473   C123    1.392   1_565 S
C474   O510    1.385   .     S
C474   C476    1.413   .     A
C477   H485    1.082   .     S
C477   N488    1.360   .     A
C477   C1523   1.417   1_554 S
C478   N487    1.352   .     A
C478   H486    1.082   .     S
C478   C1002   1.410   .     S
C479   N487    1.383   .     A
C479   Br521   1.913   .     S
C479   C999    1.417   .     S
C480   Br522   1.889   .     S
C480   N488    1.383   .     A
C480   C1522   1.410   1_554 S
Cu481  O489    1.980   .     S
Cu481  Cu482   2.696   .     S
Cu481  N487    2.026   .     S
Cu481  O493    1.965   .     S
Cu481  O496    1.960   .     S
Cu481  O492    1.970   .     S
Cu482  O490    1.980   .     S
Cu482  N488    2.026   .     S
Cu482  O494    1.965   .     S
Cu482  O495    1.960   .     S
Cu482  O491    1.970   .     S
H483   C353    1.086   1_655 S
O499   C500    1.424   .     S
C500   H501    1.111   .     S
C500   H502    1.120   .     S
C500   C503    1.532   .     S
C503   H504    1.108   .     S
C503   H157    1.109   1_565 S
C503   C390    1.521   1_655 S
C506   H508    1.110   .     S
C506   H507    1.111   .     S
C506   H509    1.111   .     S
O510   C511    1.423   .     S
C511   H513    1.115   .     S
C511   C514    1.538   .     S
C511   H512    1.111   .     S
C514   C517    1.527   .     S
H515   C166    1.111   1_565 S
H516   C166    1.110   1_565 S
C517   H518    1.111   .     S
C517   H1042   1.110   .     S
H519   C169    1.109   1_565 S
H520   C1561   1.110   1_554 S
C523   O547    1.301   .     A
C523   C534    1.463   .     S
C523   O549    1.298   .     A
C524   O548    1.309   .     A
C524   C533    1.461   .     S
C524   O550    1.288   .     A
C525   O553    1.289   .     A
C525   O551    1.295   .     A
C525   C527    1.431   .     S
C526   O554    1.288   .     A
C526   C528    1.432   .     S
C526   O552    1.296   .     A
C527   C644    1.328   1_455 S
C527   H657    1.086   1_455 S
C528   C585    1.328   .     S
C528   H600    1.087   .     S
C529   C534    1.411   .     A
C529   Br555   1.931   .     S
C529   C879    1.392   1_545 S
C530   C533    1.413   .     A
C530   Br556   1.936   .     S
C530   C706    1.389   .     S
C531   C533    1.406   .     A
C531   O557    1.379   .     S
C531   C703    1.392   .     S
C532   O568    1.385   .     S
C532   C534    1.413   .     A
C532   C878    1.389   1_545 S
C535   H543    1.082   .     S
C535   N546    1.360   .     A
C536   N545    1.352   .     A
C536   H544    1.082   .     S
C536   C1060   1.410   .     S
C537   N545    1.383   .     A
C537   Br579   1.913   .     S
C537   C1057   1.417   .     S
C538   Br580   1.889   .     S
C538   N546    1.383   .     A
Cu539  O547    1.980   .     S
Cu539  Cu540   2.696   .     S
Cu539  N545    2.026   .     S
Cu539  O551    1.965   .     S
Cu539  O554    1.960   .     S
Cu539  O550    1.970   .     S
Cu540  O548    1.980   .     S
Cu540  N546    2.026   .     S
Cu540  O552    1.965   .     S
Cu540  O553    1.960   .     S
Cu540  O549    1.970   .     S
H541   C585    1.086   .     S
H542   C644    1.087   1_455 S
O557   C558    1.424   .     S
C558   H559    1.111   .     S
C558   H560    1.120   .     S
C558   C561    1.532   .     S
C561   H562    1.108   .     S
C561   H737    1.109   .     S
C561   C622    1.521   .     S
H563   C909    1.109   1_545 S
C564   H566    1.110   .     S
C564   H565    1.111   .     S
C564   H567    1.111   .     S
C564   C677    1.521   1_455 S
O568   C569    1.423   .     S
C569   H571    1.115   .     S
C569   C572    1.538   .     S
C569   H570    1.111   .     S
C572   C575    1.527   .     S
C572   H921    1.111   1_545 S
C572   H922    1.110   1_545 S
H573   C746    1.111   .     S
H574   C746    1.110   .     S
C575   H576    1.111   .     S
C575   H925    1.109   1_545 S
C575   H1100   1.110   .     S
H577   C749    1.109   .     S
C581   O605    1.301   .     A
C581   C592    1.463   .     S
C581   O607    1.298   .     A
C582   O606    1.309   .     A
C582   C591    1.461   .     S
C582   O608    1.288   .     A
C583   O611    1.289   .     A
C583   O609    1.295   .     A
C583   C585    1.431   .     S
C584   O612    1.288   .     A
C584   C586    1.432   .     S
C584   O610    1.296   .     A
C586   C643    1.328   .     S
C586   H658    1.087   .     S
C587   C592    1.411   .     A
C587   Br613   1.931   .     S
C587   C937    1.392   1_545 S
C588   C591    1.413   .     A
C588   Br614   1.936   .     S
C588   C764    1.389   .     S
C589   C591    1.406   .     A
C589   O615    1.379   .     S
C589   C761    1.392   .     S
C590   O626    1.385   .     S
C590   C592    1.413   .     A
C590   C936    1.389   1_545 S
C593   H601    1.082   .     S
C593   N604    1.360   .     A
C594   N603    1.352   .     A
C594   H602    1.082   .     S
C594   C1118   1.410   .     S
C595   N603    1.383   .     A
C595   Br637   1.913   .     S
C595   C1115   1.417   .     S
C596   Br638   1.889   .     S
C596   N604    1.383   .     A
Cu597  O605    1.980   .     S
Cu597  Cu598   2.696   .     S
Cu597  N603    2.026   .     S
Cu597  O609    1.965   .     S
Cu597  O612    1.960   .     S
Cu597  O608    1.970   .     S
Cu598  O606    1.980   .     S
Cu598  N604    2.026   .     S
Cu598  O610    1.965   .     S
Cu598  O611    1.960   .     S
Cu598  O607    1.970   .     S
H599   C643    1.086   .     S
O615   C616    1.424   .     S
C616   H617    1.111   .     S
C616   H618    1.120   .     S
C616   C619    1.532   .     S
C619   H620    1.108   .     S
C619   H795    1.109   .     S
C619   C680    1.521   .     S
H621   C967    1.109   1_545 S
C622   H624    1.110   .     S
C622   H623    1.111   .     S
C622   H625    1.111   .     S
O626   C627    1.423   .     S
C627   H629    1.115   .     S
C627   C630    1.538   .     S
C627   H628    1.111   .     S
C630   C633    1.527   .     S
C630   H979    1.111   1_545 S
C630   H980    1.110   1_545 S
H631   C804    1.111   .     S
H632   C804    1.110   .     S
C633   H634    1.111   .     S
C633   H983    1.109   1_545 S
C633   H1158   1.110   .     S
H635   C807    1.109   .     S
C639   O663    1.301   .     A
C639   C650    1.463   .     S
C639   O665    1.298   .     A
C640   O664    1.309   .     A
C640   C649    1.461   .     S
C640   O666    1.288   .     A
C641   O669    1.289   .     A
C641   O667    1.295   .     A
C641   C643    1.431   .     S
C642   O670    1.288   .     A
C642   C644    1.432   .     S
C642   O668    1.296   .     A
C644   C527    1.328   1_655 S
C644   H542    1.087   1_655 S
C645   C650    1.411   .     A
C645   Br671   1.931   .     S
C645   C995    1.392   1_545 S
C646   C649    1.413   .     A
C646   Br672   1.936   .     S
C646   C822    1.389   .     S
C647   C649    1.406   .     A
C647   O673    1.379   .     S
C647   C819    1.392   .     S
C648   O684    1.385   .     S
C648   C650    1.413   .     A
C648   C994    1.389   1_545 S
C651   H659    1.082   .     S
C651   N662    1.360   .     A
C652   N661    1.352   .     A
C652   H660    1.082   .     S
C652   C1176   1.410   .     S
C653   N661    1.383   .     A
C653   Br695   1.913   .     S
C653   C1173   1.417   .     S
C654   Br696   1.889   .     S
C654   N662    1.383   .     A
Cu655  O663    1.980   .     S
Cu655  Cu656   2.696   .     S
Cu655  N661    2.026   .     S
Cu655  O667    1.965   .     S
Cu655  O670    1.960   .     S
Cu655  O666    1.970   .     S
Cu656  O664    1.980   .     S
Cu656  N662    2.026   .     S
Cu656  O668    1.965   .     S
Cu656  O669    1.960   .     S
Cu656  O665    1.970   .     S
H657   C527    1.086   1_655 S
O673   C674    1.424   .     S
C674   H675    1.111   .     S
C674   H676    1.120   .     S
C674   C677    1.532   .     S
C677   H678    1.108   .     S
C677   H853    1.109   .     S
C677   C564    1.521   1_655 S
H679   C1025   1.109   1_545 S
C680   H682    1.110   .     S
C680   H681    1.111   .     S
C680   H683    1.111   .     S
O684   C685    1.423   .     S
C685   H687    1.115   .     S
C685   C688    1.538   .     S
C685   H686    1.111   .     S
C688   C691    1.527   .     S
C688   H1037   1.111   1_545 S
C688   H1038   1.110   1_545 S
H689   C862    1.111   .     S
H690   C862    1.110   .     S
C691   H692    1.111   .     S
C691   H1041   1.109   1_545 S
C691   H1216   1.110   .     S
H693   C865    1.109   .     S
C697   O721    1.301   .     A
C697   C708    1.463   .     S
C697   O723    1.298   .     A
C698   O722    1.309   .     A
C698   C707    1.461   .     S
C698   O724    1.288   .     A
C699   O727    1.289   .     A
C699   O725    1.295   .     A
C699   C701    1.431   .     S
C700   O728    1.288   .     A
C700   C702    1.432   .     S
C700   O726    1.296   .     A
C701   C818    1.328   1_455 S
C701   H831    1.086   1_455 S
C702   C759    1.328   .     S
C702   H774    1.087   .     S
C703   C708    1.411   .     A
C703   Br729   1.931   .     S
C704   C707    1.413   .     A
C704   Br730   1.936   .     S
C704   C880    1.389   .     S
C705   C707    1.406   .     A
C705   O731    1.379   .     S
C705   C877    1.392   .     S
C706   O742    1.385   .     S
C706   C708    1.413   .     A
C709   H717    1.082   .     S
C709   N720    1.360   .     A
C710   N719    1.352   .     A
C710   H718    1.082   .     S
C710   C1234   1.410   .     S
C711   N719    1.383   .     A
C711   Br753   1.913   .     S
C711   C1231   1.417   .     S
C712   Br754   1.889   .     S
C712   N720    1.383   .     A
Cu713  O721    1.980   .     S
Cu713  Cu714   2.696   .     S
Cu713  N719    2.026   .     S
Cu713  O725    1.965   .     S
Cu713  O728    1.960   .     S
Cu713  O724    1.970   .     S
Cu714  O722    1.980   .     S
Cu714  N720    2.026   .     S
Cu714  O726    1.965   .     S
Cu714  O727    1.960   .     S
Cu714  O723    1.970   .     S
H715   C759    1.086   .     S
H716   C818    1.087   1_455 S
O731   C732    1.424   .     S
C732   H733    1.111   .     S
C732   H734    1.120   .     S
C732   C735    1.532   .     S
C735   H736    1.108   .     S
C735   H911    1.109   .     S
C735   C796    1.521   .     S
C738   H740    1.110   .     S
C738   H739    1.111   .     S
C738   H741    1.111   .     S
C738   C851    1.521   1_455 S
O742   C743    1.423   .     S
C743   H745    1.115   .     S
C743   C746    1.538   .     S
C743   H744    1.111   .     S
C746   C749    1.527   .     S
H747   C920    1.111   .     S
H748   C920    1.110   .     S
C749   H750    1.111   .     S
C749   H1274   1.110   .     S
H751   C923    1.109   .     S
C755   O779    1.301   .     A
C755   C766    1.463   .     S
C755   O781    1.298   .     A
C756   O780    1.309   .     A
C756   C765    1.461   .     S
C756   O782    1.288   .     A
C757   O785    1.289   .     A
C757   O783    1.295   .     A
C757   C759    1.431   .     S
C758   O786    1.288   .     A
C758   C760    1.432   .     S
C758   O784    1.296   .     A
C760   C817    1.328   .     S
C760   H832    1.087   .     S
C761   C766    1.411   .     A
C761   Br787   1.931   .     S
C762   C765    1.413   .     A
C762   Br788   1.936   .     S
C762   C938    1.389   .     S
C763   C765    1.406   .     A
C763   O789    1.379   .     S
C763   C935    1.392   .     S
C764   O800    1.385   .     S
C764   C766    1.413   .     A
C767   H775    1.082   .     S
C767   N778    1.360   .     A
C768   N777    1.352   .     A
C768   H776    1.082   .     S
C768   C1292   1.410   .     S
C769   N777    1.383   .     A
C769   Br811   1.913   .     S
C769   C1289   1.417   .     S
C770   Br812   1.889   .     S
C770   N778    1.383   .     A
Cu771  O779    1.980   .     S
Cu771  Cu772   2.696   .     S
Cu771  N777    2.026   .     S
Cu771  O783    1.965   .     S
Cu771  O786    1.960   .     S
Cu771  O782    1.970   .     S
Cu772  O780    1.980   .     S
Cu772  N778    2.026   .     S
Cu772  O784    1.965   .     S
Cu772  O785    1.960   .     S
Cu772  O781    1.970   .     S
H773   C817    1.086   .     S
O789   C790    1.424   .     S
C790   H791    1.111   .     S
C790   H792    1.120   .     S
C790   C793    1.532   .     S
C793   H794    1.108   .     S
C793   H969    1.109   .     S
C793   C854    1.521   .     S
C796   H798    1.110   .     S
C796   H797    1.111   .     S
C796   H799    1.111   .     S
O800   C801    1.423   .     S
C801   H803    1.115   .     S
C801   C804    1.538   .     S
C801   H802    1.111   .     S
C804   C807    1.527   .     S
H805   C978    1.111   .     S
H806   C978    1.110   .     S
C807   H808    1.111   .     S
C807   H1332   1.110   .     S
H809   C981    1.109   .     S
C813   O837    1.301   .     A
C813   C824    1.463   .     S
C813   O839    1.298   .     A
C814   O838    1.309   .     A
C814   C823    1.461   .     S
C814   O840    1.288   .     A
C815   O843    1.289   .     A
C815   O841    1.295   .     A
C815   C817    1.431   .     S
C816   O844    1.288   .     A
C816   C818    1.432   .     S
C816   O842    1.296   .     A
C818   C701    1.328   1_655 S
C818   H716    1.087   1_655 S
C819   C824    1.411   .     A
C819   Br845   1.931   .     S
C820   C823    1.413   .     A
C820   Br846   1.936   .     S
C820   C996    1.389   .     S
C821   C823    1.406   .     A
C821   O847    1.379   .     S
C821   C993    1.392   .     S
C822   O858    1.385   .     S
C822   C824    1.413   .     A
C825   H833    1.082   .     S
C825   N836    1.360   .     A
C826   N835    1.352   .     A
C826   H834    1.082   .     S
C826   C1350   1.410   .     S
C827   N835    1.383   .     A
C827   Br869   1.913   .     S
C827   C1347   1.417   .     S
C828   Br870   1.889   .     S
C828   N836    1.383   .     A
Cu829  O837    1.980   .     S
Cu829  Cu830   2.696   .     S
Cu829  N835    2.026   .     S
Cu829  O841    1.965   .     S
Cu829  O844    1.960   .     S
Cu829  O840    1.970   .     S
Cu830  O838    1.980   .     S
Cu830  N836    2.026   .     S
Cu830  O842    1.965   .     S
Cu830  O843    1.960   .     S
Cu830  O839    1.970   .     S
H831   C701    1.086   1_655 S
O847   C848    1.424   .     S
C848   H849    1.111   .     S
C848   H850    1.120   .     S
C848   C851    1.532   .     S
C851   H852    1.108   .     S
C851   H1027   1.109   .     S
C851   C738    1.521   1_655 S
C854   H856    1.110   .     S
C854   H855    1.111   .     S
C854   H857    1.111   .     S
O858   C859    1.423   .     S
C859   H861    1.115   .     S
C859   C862    1.538   .     S
C859   H860    1.111   .     S
C862   C865    1.527   .     S
H863   C1036   1.111   .     S
H864   C1036   1.110   .     S
C865   H866    1.111   .     S
C865   H1390   1.110   .     S
H867   C1039   1.109   .     S
C871   O895    1.301   .     A
C871   C882    1.463   .     S
C871   O897    1.298   .     A
C872   O896    1.309   .     A
C872   C881    1.461   .     S
C872   O898    1.288   .     A
C873   O901    1.289   .     A
C873   O899    1.295   .     A
C873   C875    1.431   .     S
C874   O902    1.288   .     A
C874   C876    1.432   .     S
C874   O900    1.296   .     A
C875   C992    1.328   1_455 S
C875   H1005   1.086   1_455 S
C876   C933    1.328   .     S
C876   H948    1.087   .     S
C877   C882    1.411   .     A
C877   Br903   1.931   .     S
C878   C881    1.413   .     A
C878   Br904   1.936   .     S
C878   C532    1.389   1_565 S
C879   C881    1.406   .     A
C879   O905    1.379   .     S
C879   C529    1.392   1_565 S
C880   O916    1.385   .     S
C880   C882    1.413   .     A
C883   H891    1.082   .     S
C883   N894    1.360   .     A
C884   N893    1.352   .     A
C884   H892    1.082   .     S
C884   C1408   1.410   .     S
C885   N893    1.383   .     A
C885   Br927   1.913   .     S
C885   C1405   1.417   .     S
C886   Br928   1.889   .     S
C886   N894    1.383   .     A
Cu887  O895    1.980   .     S
Cu887  Cu888   2.696   .     S
Cu887  N893    2.026   .     S
Cu887  O899    1.965   .     S
Cu887  O902    1.960   .     S
Cu887  O898    1.970   .     S
Cu888  O896    1.980   .     S
Cu888  N894    2.026   .     S
Cu888  O900    1.965   .     S
Cu888  O901    1.960   .     S
Cu888  O897    1.970   .     S
H889   C933    1.086   .     S
H890   C992    1.087   1_455 S
O905   C906    1.424   .     S
C906   H907    1.111   .     S
C906   H908    1.120   .     S
C906   C909    1.532   .     S
C909   H910    1.108   .     S
C909   H563    1.109   1_565 S
C909   C970    1.521   .     S
C912   H914    1.110   .     S
C912   H913    1.111   .     S
C912   H915    1.111   .     S
C912   C1025   1.521   1_455 S
O916   C917    1.423   .     S
C917   H919    1.115   .     S
C917   C920    1.538   .     S
C917   H918    1.111   .     S
C920   C923    1.527   .     S
H921   C572    1.111   1_565 S
H922   C572    1.110   1_565 S
C923   H924    1.111   .     S
C923   H1448   1.110   .     S
H925   C575    1.109   1_565 S
C929   O953    1.301   .     A
C929   C940    1.463   .     S
C929   O955    1.298   .     A
C930   O954    1.309   .     A
C930   C939    1.461   .     S
C930   O956    1.288   .     A
C931   O959    1.289   .     A
C931   O957    1.295   .     A
C931   C933    1.431   .     S
C932   O960    1.288   .     A
C932   C934    1.432   .     S
C932   O958    1.296   .     A
C934   C991    1.328   .     S
C934   H1006   1.087   .     S
C935   C940    1.411   .     A
C935   Br961   1.931   .     S
C936   C939    1.413   .     A
C936   Br962   1.936   .     S
C936   C590    1.389   1_565 S
C937   C939    1.406   .     A
C937   O963    1.379   .     S
C937   C587    1.392   1_565 S
C938   O974    1.385   .     S
C938   C940    1.413   .     A
C941   H949    1.082   .     S
C941   N952    1.360   .     A
C942   N951    1.352   .     A
C942   H950    1.082   .     S
C942   C1466   1.410   .     S
C943   N951    1.383   .     A
C943   Br985   1.913   .     S
C943   C1463   1.417   .     S
C944   Br986   1.889   .     S
C944   N952    1.383   .     A
Cu945  O953    1.980   .     S
Cu945  Cu946   2.696   .     S
Cu945  N951    2.026   .     S
Cu945  O957    1.965   .     S
Cu945  O960    1.960   .     S
Cu945  O956    1.970   .     S
Cu946  O954    1.980   .     S
Cu946  N952    2.026   .     S
Cu946  O958    1.965   .     S
Cu946  O959    1.960   .     S
Cu946  O955    1.970   .     S
H947   C991    1.086   .     S
O963   C964    1.424   .     S
C964   H965    1.111   .     S
C964   H966    1.120   .     S
C964   C967    1.532   .     S
C967   H968    1.108   .     S
C967   H621    1.109   1_565 S
C967   C1028   1.521   .     S
C970   H972    1.110   .     S
C970   H971    1.111   .     S
C970   H973    1.111   .     S
O974   C975    1.423   .     S
C975   H977    1.115   .     S
C975   C978    1.538   .     S
C975   H976    1.111   .     S
C978   C981    1.527   .     S
H979   C630    1.111   1_565 S
H980   C630    1.110   1_565 S
C981   H982    1.111   .     S
C981   H1506   1.110   .     S
H983   C633    1.109   1_565 S
C987   O1011   1.301   .     A
C987   C998    1.463   .     S
C987   O1013   1.298   .     A
C988   O1012   1.309   .     A
C988   C997    1.461   .     S
C988   O1014   1.288   .     A
C989   O1017   1.289   .     A
C989   O1015   1.295   .     A
C989   C991    1.431   .     S
C990   O1018   1.288   .     A
C990   C992    1.432   .     S
C990   O1016   1.296   .     A
C992   C875    1.328   1_655 S
C992   H890    1.087   1_655 S
C993   C998    1.411   .     A
C993   Br1019  1.931   .     S
C994   C997    1.413   .     A
C994   Br1020  1.936   .     S
C994   C648    1.389   1_565 S
C995   C997    1.406   .     A
C995   O1021   1.379   .     S
C995   C645    1.392   1_565 S
C996   O1032   1.385   .     S
C996   C998    1.413   .     A
C999   H1007   1.082   .     S
C999   N1010   1.360   .     A
C1000  N1009   1.352   .     A
C1000  H1008   1.082   .     S
C1000  C1524   1.410   .     S
C1001  N1009   1.383   .     A
C1001  Br1043  1.913   .     S
C1001  C1521   1.417   .     S
C1002  Br1044  1.889   .     S
C1002  N1010   1.383   .     A
Cu1003 O1011   1.980   .     S
Cu1003 Cu1004  2.696   .     S
Cu1003 N1009   2.026   .     S
Cu1003 O1015   1.965   .     S
Cu1003 O1018   1.960   .     S
Cu1003 O1014   1.970   .     S
Cu1004 O1012   1.980   .     S
Cu1004 N1010   2.026   .     S
Cu1004 O1016   1.965   .     S
Cu1004 O1017   1.960   .     S
Cu1004 O1013   1.970   .     S
H1005  C875    1.086   1_655 S
O1021  C1022   1.424   .     S
C1022  H1023   1.111   .     S
C1022  H1024   1.120   .     S
C1022  C1025   1.532   .     S
C1025  H1026   1.108   .     S
C1025  H679    1.109   1_565 S
C1025  C912    1.521   1_655 S
C1028  H1030   1.110   .     S
C1028  H1029   1.111   .     S
C1028  H1031   1.111   .     S
O1032  C1033   1.423   .     S
C1033  H1035   1.115   .     S
C1033  C1036   1.538   .     S
C1033  H1034   1.111   .     S
C1036  C1039   1.527   .     S
H1037  C688    1.111   1_565 S
H1038  C688    1.110   1_565 S
C1039  H1040   1.111   .     S
C1039  H1564   1.110   .     S
H1041  C691    1.109   1_565 S
C1045  O1069   1.301   .     A
C1045  C1056   1.463   .     S
C1045  O1071   1.298   .     A
C1046  O1070   1.309   .     A
C1046  C1055   1.461   .     S
C1046  O1072   1.288   .     A
C1047  O1075   1.289   .     A
C1047  O1073   1.295   .     A
C1047  C1049   1.431   .     S
C1048  O1076   1.288   .     A
C1048  C1050   1.432   .     S
C1048  O1074   1.296   .     A
C1049  C1166   1.328   1_455 S
C1049  H1179   1.086   1_455 S
C1050  C1107   1.328   .     S
C1050  H1122   1.087   .     S
C1051  C1056   1.411   .     A
C1051  Br1077  1.931   .     S
C1051  C1401   1.392   1_545 S
C1052  C1055   1.413   .     A
C1052  Br1078  1.936   .     S
C1052  C1228   1.389   .     S
C1053  C1055   1.406   .     A
C1053  O1079   1.379   .     S
C1053  C1225   1.392   .     S
C1054  O1090   1.385   .     S
C1054  C1056   1.413   .     A
C1054  C1400   1.389   1_545 S
C1057  H1065   1.082   .     S
C1057  N1068   1.360   .     A
C1058  N1067   1.352   .     A
C1058  H1066   1.082   .     S
C1058  C16     1.410   1_556 S
C1059  N1067   1.383   .     A
C1059  Br1101  1.913   .     S
C1059  C13     1.417   1_556 S
C1060  Br1102  1.889   .     S
C1060  N1068   1.383   .     A
Cu1061 O1069   1.980   .     S
Cu1061 Cu1062  2.696   .     S
Cu1061 N1067   2.026   .     S
Cu1061 O1073   1.965   .     S
Cu1061 O1076   1.960   .     S
Cu1061 O1072   1.970   .     S
Cu1062 O1070   1.980   .     S
Cu1062 N1068   2.026   .     S
Cu1062 O1074   1.965   .     S
Cu1062 O1075   1.960   .     S
Cu1062 O1071   1.970   .     S
H1063  C1107   1.086   .     S
H1064  C1166   1.087   1_455 S
O1079  C1080   1.424   .     S
C1080  H1081   1.111   .     S
C1080  H1082   1.120   .     S
C1080  C1083   1.532   .     S
C1083  H1084   1.108   .     S
C1083  H1259   1.109   .     S
C1083  C1144   1.521   .     S
H1085  C1431   1.109   1_545 S
C1086  H1088   1.110   .     S
C1086  H1087   1.111   .     S
C1086  H1089   1.111   .     S
C1086  C1199   1.521   1_455 S
O1090  C1091   1.423   .     S
C1091  H1093   1.115   .     S
C1091  C1094   1.538   .     S
C1091  H1092   1.111   .     S
C1094  C1097   1.527   .     S
C1094  H1443   1.111   1_545 S
C1094  H1444   1.110   1_545 S
H1095  C1268   1.111   .     S
H1096  C1268   1.110   .     S
C1097  H1098   1.111   .     S
C1097  H1447   1.109   1_545 S
C1097  H56     1.110   1_556 S
H1099  C1271   1.109   .     S
C1103  O1127   1.301   .     A
C1103  C1114   1.463   .     S
C1103  O1129   1.298   .     A
C1104  O1128   1.309   .     A
C1104  C1113   1.461   .     S
C1104  O1130   1.288   .     A
C1105  O1133   1.289   .     A
C1105  O1131   1.295   .     A
C1105  C1107   1.431   .     S
C1106  O1134   1.288   .     A
C1106  C1108   1.432   .     S
C1106  O1132   1.296   .     A
C1108  C1165   1.328   .     S
C1108  H1180   1.087   .     S
C1109  C1114   1.411   .     A
C1109  Br1135  1.931   .     S
C1109  C1459   1.392   1_545 S
C1110  C1113   1.413   .     A
C1110  Br1136  1.936   .     S
C1110  C1286   1.389   .     S
C1111  C1113   1.406   .     A
C1111  O1137   1.379   .     S
C1111  C1283   1.392   .     S
C1112  O1148   1.385   .     S
C1112  C1114   1.413   .     A
C1112  C1458   1.389   1_545 S
C1115  H1123   1.082   .     S
C1115  N1126   1.360   .     A
C1116  N1125   1.352   .     A
C1116  H1124   1.082   .     S
C1116  C74     1.410   1_556 S
C1117  N1125   1.383   .     A
C1117  Br1159  1.913   .     S
C1117  C71     1.417   1_556 S
C1118  Br1160  1.889   .     S
C1118  N1126   1.383   .     A
Cu1119 O1127   1.980   .     S
Cu1119 Cu1120  2.696   .     S
Cu1119 N1125   2.026   .     S
Cu1119 O1131   1.965   .     S
Cu1119 O1134   1.960   .     S
Cu1119 O1130   1.970   .     S
Cu1120 O1128   1.980   .     S
Cu1120 N1126   2.026   .     S
Cu1120 O1132   1.965   .     S
Cu1120 O1133   1.960   .     S
Cu1120 O1129   1.970   .     S
H1121  C1165   1.086   .     S
O1137  C1138   1.424   .     S
C1138  H1139   1.111   .     S
C1138  H1140   1.120   .     S
C1138  C1141   1.532   .     S
C1141  H1142   1.108   .     S
C1141  H1317   1.109   .     S
C1141  C1202   1.521   .     S
H1143  C1489   1.109   1_545 S
C1144  H1146   1.110   .     S
C1144  H1145   1.111   .     S
C1144  H1147   1.111   .     S
O1148  C1149   1.423   .     S
C1149  H1151   1.115   .     S
C1149  C1152   1.538   .     S
C1149  H1150   1.111   .     S
C1152  C1155   1.527   .     S
C1152  H1501   1.111   1_545 S
C1152  H1502   1.110   1_545 S
H1153  C1326   1.111   .     S
H1154  C1326   1.110   .     S
C1155  H1156   1.111   .     S
C1155  H1505   1.109   1_545 S
C1155  H114    1.110   1_556 S
H1157  C1329   1.109   .     S
C1161  O1185   1.301   .     A
C1161  C1172   1.463   .     S
C1161  O1187   1.298   .     A
C1162  O1186   1.309   .     A
C1162  C1171   1.461   .     S
C1162  O1188   1.288   .     A
C1163  O1191   1.289   .     A
C1163  O1189   1.295   .     A
C1163  C1165   1.431   .     S
C1164  O1192   1.288   .     A
C1164  C1166   1.432   .     S
C1164  O1190   1.296   .     A
C1166  C1049   1.328   1_655 S
C1166  H1064   1.087   1_655 S
C1167  C1172   1.411   .     A
C1167  Br1193  1.931   .     S
C1167  C1517   1.392   1_545 S
C1168  C1171   1.413   .     A
C1168  Br1194  1.936   .     S
C1168  C1344   1.389   .     S
C1169  C1171   1.406   .     A
C1169  O1195   1.379   .     S
C1169  C1341   1.392   .     S
C1170  O1206   1.385   .     S
C1170  C1172   1.413   .     A
C1170  C1516   1.389   1_545 S
C1173  H1181   1.082   .     S
C1173  N1184   1.360   .     A
C1174  N1183   1.352   .     A
C1174  H1182   1.082   .     S
C1174  C132    1.410   1_556 S
C1175  N1183   1.383   .     A
C1175  Br1217  1.913   .     S
C1175  C129    1.417   1_556 S
C1176  Br1218  1.889   .     S
C1176  N1184   1.383   .     A
Cu1177 O1185   1.980   .     S
Cu1177 Cu1178  2.696   .     S
Cu1177 N1183   2.026   .     S
Cu1177 O1189   1.965   .     S
Cu1177 O1192   1.960   .     S
Cu1177 O1188   1.970   .     S
Cu1178 O1186   1.980   .     S
Cu1178 N1184   2.026   .     S
Cu1178 O1190   1.965   .     S
Cu1178 O1191   1.960   .     S
Cu1178 O1187   1.970   .     S
H1179  C1049   1.086   1_655 S
O1195  C1196   1.424   .     S
C1196  H1197   1.111   .     S
C1196  H1198   1.120   .     S
C1196  C1199   1.532   .     S
C1199  H1200   1.108   .     S
C1199  H1375   1.109   .     S
C1199  C1086   1.521   1_655 S
H1201  C1547   1.109   1_545 S
C1202  H1204   1.110   .     S
C1202  H1203   1.111   .     S
C1202  H1205   1.111   .     S
O1206  C1207   1.423   .     S
C1207  H1209   1.115   .     S
C1207  C1210   1.538   .     S
C1207  H1208   1.111   .     S
C1210  C1213   1.527   .     S
C1210  H1559   1.111   1_545 S
C1210  H1560   1.110   1_545 S
H1211  C1384   1.111   .     S
H1212  C1384   1.110   .     S
C1213  H1214   1.111   .     S
C1213  H1563   1.109   1_545 S
C1213  H172    1.110   1_556 S
H1215  C1387   1.109   .     S
C1219  O1243   1.301   .     A
C1219  C1230   1.463   .     S
C1219  O1245   1.298   .     A
C1220  O1244   1.309   .     A
C1220  C1229   1.461   .     S
C1220  O1246   1.288   .     A
C1221  O1249   1.289   .     A
C1221  O1247   1.295   .     A
C1221  C1223   1.431   .     S
C1222  O1250   1.288   .     A
C1222  C1224   1.432   .     S
C1222  O1248   1.296   .     A
C1223  C1340   1.328   1_455 S
C1223  H1353   1.086   1_455 S
C1224  C1281   1.328   .     S
C1224  H1296   1.087   .     S
C1225  C1230   1.411   .     A
C1225  Br1251  1.931   .     S
C1226  C1229   1.413   .     A
C1226  Br1252  1.936   .     S
C1226  C1402   1.389   .     S
C1227  C1229   1.406   .     A
C1227  O1253   1.379   .     S
C1227  C1399   1.392   .     S
C1228  O1264   1.385   .     S
C1228  C1230   1.413   .     A
C1231  H1239   1.082   .     S
C1231  N1242   1.360   .     A
C1232  N1241   1.352   .     A
C1232  H1240   1.082   .     S
C1232  C190    1.410   1_556 S
C1233  N1241   1.383   .     A
C1233  Br1275  1.913   .     S
C1233  C187    1.417   1_556 S
C1234  Br1276  1.889   .     S
C1234  N1242   1.383   .     A
Cu1235 O1243   1.980   .     S
Cu1235 Cu1236  2.696   .     S
Cu1235 N1241   2.026   .     S
Cu1235 O1247   1.965   .     S
Cu1235 O1250   1.960   .     S
Cu1235 O1246   1.970   .     S
Cu1236 O1244   1.980   .     S
Cu1236 N1242   2.026   .     S
Cu1236 O1248   1.965   .     S
Cu1236 O1249   1.960   .     S
Cu1236 O1245   1.970   .     S
H1237  C1281   1.086   .     S
H1238  C1340   1.087   1_455 S
O1253  C1254   1.424   .     S
C1254  H1255   1.111   .     S
C1254  H1256   1.120   .     S
C1254  C1257   1.532   .     S
C1257  H1258   1.108   .     S
C1257  H1433   1.109   .     S
C1257  C1318   1.521   .     S
C1260  H1262   1.110   .     S
C1260  H1261   1.111   .     S
C1260  H1263   1.111   .     S
C1260  C1373   1.521   1_455 S
O1264  C1265   1.423   .     S
C1265  H1267   1.115   .     S
C1265  C1268   1.538   .     S
C1265  H1266   1.111   .     S
C1268  C1271   1.527   .     S
H1269  C1442   1.111   .     S
H1270  C1442   1.110   .     S
C1271  H1272   1.111   .     S
C1271  H230    1.110   1_556 S
H1273  C1445   1.109   .     S
C1277  O1301   1.301   .     A
C1277  C1288   1.463   .     S
C1277  O1303   1.298   .     A
C1278  O1302   1.309   .     A
C1278  C1287   1.461   .     S
C1278  O1304   1.288   .     A
C1279  O1307   1.289   .     A
C1279  O1305   1.295   .     A
C1279  C1281   1.431   .     S
C1280  O1308   1.288   .     A
C1280  C1282   1.432   .     S
C1280  O1306   1.296   .     A
C1282  C1339   1.328   .     S
C1282  H1354   1.087   .     S
C1283  C1288   1.411   .     A
C1283  Br1309  1.931   .     S
C1284  C1287   1.413   .     A
C1284  Br1310  1.936   .     S
C1284  C1460   1.389   .     S
C1285  C1287   1.406   .     A
C1285  O1311   1.379   .     S
C1285  C1457   1.392   .     S
C1286  O1322   1.385   .     S
C1286  C1288   1.413   .     A
C1289  H1297   1.082   .     S
C1289  N1300   1.360   .     A
C1290  N1299   1.352   .     A
C1290  H1298   1.082   .     S
C1290  C248    1.410   1_556 S
C1291  N1299   1.383   .     A
C1291  Br1333  1.913   .     S
C1291  C245    1.417   1_556 S
C1292  Br1334  1.889   .     S
C1292  N1300   1.383   .     A
Cu1293 O1301   1.980   .     S
Cu1293 Cu1294  2.696   .     S
Cu1293 N1299   2.026   .     S
Cu1293 O1305   1.965   .     S
Cu1293 O1308   1.960   .     S
Cu1293 O1304   1.970   .     S
Cu1294 O1302   1.980   .     S
Cu1294 N1300   2.026   .     S
Cu1294 O1306   1.965   .     S
Cu1294 O1307   1.960   .     S
Cu1294 O1303   1.970   .     S
H1295  C1339   1.086   .     S
O1311  C1312   1.424   .     S
C1312  H1313   1.111   .     S
C1312  H1314   1.120   .     S
C1312  C1315   1.532   .     S
C1315  H1316   1.108   .     S
C1315  H1491   1.109   .     S
C1315  C1376   1.521   .     S
C1318  H1320   1.110   .     S
C1318  H1319   1.111   .     S
C1318  H1321   1.111   .     S
O1322  C1323   1.423   .     S
C1323  H1325   1.115   .     S
C1323  C1326   1.538   .     S
C1323  H1324   1.111   .     S
C1326  C1329   1.527   .     S
H1327  C1500   1.111   .     S
H1328  C1500   1.110   .     S
C1329  H1330   1.111   .     S
C1329  H288    1.110   1_556 S
H1331  C1503   1.109   .     S
C1335  O1359   1.301   .     A
C1335  C1346   1.463   .     S
C1335  O1361   1.298   .     A
C1336  O1360   1.309   .     A
C1336  C1345   1.461   .     S
C1336  O1362   1.288   .     A
C1337  O1365   1.289   .     A
C1337  O1363   1.295   .     A
C1337  C1339   1.431   .     S
C1338  O1366   1.288   .     A
C1338  C1340   1.432   .     S
C1338  O1364   1.296   .     A
C1340  C1223   1.328   1_655 S
C1340  H1238   1.087   1_655 S
C1341  C1346   1.411   .     A
C1341  Br1367  1.931   .     S
C1342  C1345   1.413   .     A
C1342  Br1368  1.936   .     S
C1342  C1518   1.389   .     S
C1343  C1345   1.406   .     A
C1343  O1369   1.379   .     S
C1343  C1515   1.392   .     S
C1344  O1380   1.385   .     S
C1344  C1346   1.413   .     A
C1347  H1355   1.082   .     S
C1347  N1358   1.360   .     A
C1348  N1357   1.352   .     A
C1348  H1356   1.082   .     S
C1348  C306    1.410   1_556 S
C1349  N1357   1.383   .     A
C1349  Br1391  1.913   .     S
C1349  C303    1.417   1_556 S
C1350  Br1392  1.889   .     S
C1350  N1358   1.383   .     A
Cu1351 O1359   1.980   .     S
Cu1351 Cu1352  2.696   .     S
Cu1351 N1357   2.026   .     S
Cu1351 O1363   1.965   .     S
Cu1351 O1366   1.960   .     S
Cu1351 O1362   1.970   .     S
Cu1352 O1360   1.980   .     S
Cu1352 N1358   2.026   .     S
Cu1352 O1364   1.965   .     S
Cu1352 O1365   1.960   .     S
Cu1352 O1361   1.970   .     S
H1353  C1223   1.086   1_655 S
O1369  C1370   1.424   .     S
C1370  H1371   1.111   .     S
C1370  H1372   1.120   .     S
C1370  C1373   1.532   .     S
C1373  H1374   1.108   .     S
C1373  H1549   1.109   .     S
C1373  C1260   1.521   1_655 S
C1376  H1378   1.110   .     S
C1376  H1377   1.111   .     S
C1376  H1379   1.111   .     S
O1380  C1381   1.423   .     S
C1381  H1383   1.115   .     S
C1381  C1384   1.538   .     S
C1381  H1382   1.111   .     S
C1384  C1387   1.527   .     S
H1385  C1558   1.111   .     S
H1386  C1558   1.110   .     S
C1387  H1388   1.111   .     S
C1387  H346    1.110   1_556 S
H1389  C1561   1.109   .     S
C1393  O1417   1.301   .     A
C1393  C1404   1.463   .     S
C1393  O1419   1.298   .     A
C1394  O1418   1.309   .     A
C1394  C1403   1.461   .     S
C1394  O1420   1.288   .     A
C1395  O1423   1.289   .     A
C1395  O1421   1.295   .     A
C1395  C1397   1.431   .     S
C1396  O1424   1.288   .     A
C1396  C1398   1.432   .     S
C1396  O1422   1.296   .     A
C1397  C1514   1.328   1_455 S
C1397  H1527   1.086   1_455 S
C1398  C1455   1.328   .     S
C1398  H1470   1.087   .     S
C1399  C1404   1.411   .     A
C1399  Br1425  1.931   .     S
C1400  C1403   1.413   .     A
C1400  Br1426  1.936   .     S
C1400  C1054   1.389   1_565 S
C1401  C1403   1.406   .     A
C1401  O1427   1.379   .     S
C1401  C1051   1.392   1_565 S
C1402  O1438   1.385   .     S
C1402  C1404   1.413   .     A
C1405  H1413   1.082   .     S
C1405  N1416   1.360   .     A
C1406  N1415   1.352   .     A
C1406  H1414   1.082   .     S
C1406  C364    1.410   1_556 S
C1407  N1415   1.383   .     A
C1407  Br1449  1.913   .     S
C1407  C361    1.417   1_556 S
C1408  Br1450  1.889   .     S
C1408  N1416   1.383   .     A
Cu1409 O1417   1.980   .     S
Cu1409 Cu1410  2.696   .     S
Cu1409 N1415   2.026   .     S
Cu1409 O1421   1.965   .     S
Cu1409 O1424   1.960   .     S
Cu1409 O1420   1.970   .     S
Cu1410 O1418   1.980   .     S
Cu1410 N1416   2.026   .     S
Cu1410 O1422   1.965   .     S
Cu1410 O1423   1.960   .     S
Cu1410 O1419   1.970   .     S
H1411  C1455   1.086   .     S
H1412  C1514   1.087   1_455 S
O1427  C1428   1.424   .     S
C1428  H1429   1.111   .     S
C1428  H1430   1.120   .     S
C1428  C1431   1.532   .     S
C1431  H1432   1.108   .     S
C1431  H1085   1.109   1_565 S
C1431  C1492   1.521   .     S
C1434  H1436   1.110   .     S
C1434  H1435   1.111   .     S
C1434  H1437   1.111   .     S
C1434  C1547   1.521   1_455 S
O1438  C1439   1.423   .     S
C1439  H1441   1.115   .     S
C1439  C1442   1.538   .     S
C1439  H1440   1.111   .     S
C1442  C1445   1.527   .     S
H1443  C1094   1.111   1_565 S
H1444  C1094   1.110   1_565 S
C1445  H1446   1.111   .     S
C1445  H404    1.110   1_556 S
H1447  C1097   1.109   1_565 S
C1451  O1475   1.301   .     A
C1451  C1462   1.463   .     S
C1451  O1477   1.298   .     A
C1452  O1476   1.309   .     A
C1452  C1461   1.461   .     S
C1452  O1478   1.288   .     A
C1453  O1481   1.289   .     A
C1453  O1479   1.295   .     A
C1453  C1455   1.431   .     S
C1454  O1482   1.288   .     A
C1454  C1456   1.432   .     S
C1454  O1480   1.296   .     A
C1456  C1513   1.328   .     S
C1456  H1528   1.087   .     S
C1457  C1462   1.411   .     A
C1457  Br1483  1.931   .     S
C1458  C1461   1.413   .     A
C1458  Br1484  1.936   .     S
C1458  C1112   1.389   1_565 S
C1459  C1461   1.406   .     A
C1459  O1485   1.379   .     S
C1459  C1109   1.392   1_565 S
C1460  O1496   1.385   .     S
C1460  C1462   1.413   .     A
C1463  H1471   1.082   .     S
C1463  N1474   1.360   .     A
C1464  N1473   1.352   .     A
C1464  H1472   1.082   .     S
C1464  C422    1.410   1_556 S
C1465  N1473   1.383   .     A
C1465  Br1507  1.913   .     S
C1465  C419    1.417   1_556 S
C1466  Br1508  1.889   .     S
C1466  N1474   1.383   .     A
Cu1467 O1475   1.980   .     S
Cu1467 Cu1468  2.696   .     S
Cu1467 N1473   2.026   .     S
Cu1467 O1479   1.965   .     S
Cu1467 O1482   1.960   .     S
Cu1467 O1478   1.970   .     S
Cu1468 O1476   1.980   .     S
Cu1468 N1474   2.026   .     S
Cu1468 O1480   1.965   .     S
Cu1468 O1481   1.960   .     S
Cu1468 O1477   1.970   .     S
H1469  C1513   1.086   .     S
O1485  C1486   1.424   .     S
C1486  H1487   1.111   .     S
C1486  H1488   1.120   .     S
C1486  C1489   1.532   .     S
C1489  H1490   1.108   .     S
C1489  H1143   1.109   1_565 S
C1489  C1550   1.521   .     S
C1492  H1494   1.110   .     S
C1492  H1493   1.111   .     S
C1492  H1495   1.111   .     S
O1496  C1497   1.423   .     S
C1497  H1499   1.115   .     S
C1497  C1500   1.538   .     S
C1497  H1498   1.111   .     S
C1500  C1503   1.527   .     S
H1501  C1152   1.111   1_565 S
H1502  C1152   1.110   1_565 S
C1503  H1504   1.111   .     S
C1503  H462    1.110   1_556 S
H1505  C1155   1.109   1_565 S
C1509  O1533   1.301   .     A
C1509  C1520   1.463   .     S
C1509  O1535   1.298   .     A
C1510  O1534   1.309   .     A
C1510  C1519   1.461   .     S
C1510  O1536   1.288   .     A
C1511  O1539   1.289   .     A
C1511  O1537   1.295   .     A
C1511  C1513   1.431   .     S
C1512  O1540   1.288   .     A
C1512  C1514   1.432   .     S
C1512  O1538   1.296   .     A
C1514  C1397   1.328   1_655 S
C1514  H1412   1.087   1_655 S
C1515  C1520   1.411   .     A
C1515  Br1541  1.931   .     S
C1516  C1519   1.413   .     A
C1516  Br1542  1.936   .     S
C1516  C1170   1.389   1_565 S
C1517  C1519   1.406   .     A
C1517  O1543   1.379   .     S
C1517  C1167   1.392   1_565 S
C1518  O1554   1.385   .     S
C1518  C1520   1.413   .     A
C1521  H1529   1.082   .     S
C1521  N1532   1.360   .     A
C1522  N1531   1.352   .     A
C1522  H1530   1.082   .     S
C1522  C480    1.410   1_556 S
C1523  N1531   1.383   .     A
C1523  Br1565  1.913   .     S
C1523  C477    1.417   1_556 S
C1524  Br1566  1.889   .     S
C1524  N1532   1.383   .     A
Cu1525 O1533   1.980   .     S
Cu1525 Cu1526  2.696   .     S
Cu1525 N1531   2.026   .     S
Cu1525 O1537   1.965   .     S
Cu1525 O1540   1.960   .     S
Cu1525 O1536   1.970   .     S
Cu1526 O1534   1.980   .     S
Cu1526 N1532   2.026   .     S
Cu1526 O1538   1.965   .     S
Cu1526 O1539   1.960   .     S
Cu1526 O1535   1.970   .     S
H1527  C1397   1.086   1_655 S
O1543  C1544   1.424   .     S
C1544  H1545   1.111   .     S
C1544  H1546   1.120   .     S
C1544  C1547   1.532   .     S
C1547  H1548   1.108   .     S
C1547  H1201   1.109   1_565 S
C1547  C1434   1.521   1_655 S
C1550  H1552   1.110   .     S
C1550  H1551   1.111   .     S
C1550  H1553   1.111   .     S
O1554  C1555   1.423   .     S
C1555  H1557   1.115   .     S
C1555  C1558   1.538   .     S
C1555  H1556   1.111   .     S
C1558  C1561   1.527   .     S
H1559  C1210   1.111   1_565 S
H1560  C1210   1.110   1_565 S
C1561  H1562   1.111   .     S
C1561  H520    1.110   1_556 S
H1563  C1213   1.109   1_565 S
