data_str_m3_o1_o18_pcu_sym.162
_audit_creation_date              2020-01-03
_audit_creation_method            'Materials Studio'
_symmetry_space_group_name_H-M    'P1'
_symmetry_Int_Tables_number       1
_symmetry_cell_setting            triclinic
loop_
_symmetry_equiv_pos_as_xyz
  x,y,z
_cell_length_a                    29.5403
_cell_length_b                    32.1714
_cell_length_c                    30.5736
_cell_angle_alpha                 88.1140
_cell_angle_beta                  69.8993
_cell_angle_gamma                 89.1428
loop_
_atom_site_label
_atom_site_type_symbol
_atom_site_fract_x
_atom_site_fract_y
_atom_site_fract_z
_atom_site_U_iso_or_equiv
_atom_site_adp_type
_atom_site_occupancy
C1     C     0.16651   0.24665   0.24939   0.00000  Uiso   1.00
C2     C     0.16693   0.08661   0.25058   0.00000  Uiso   1.00
C3     C     0.09856   0.13233   0.05760   0.00000  Uiso   1.00
C4     C     0.20677   0.09997   0.46295   0.00000  Uiso   1.00
C5     C     0.06564   0.13637   0.03425   0.00000  Uiso   1.00
C6     C     0.23731   0.09007   0.48815   0.00000  Uiso   1.00
C7     C     0.19552   0.30996   0.26960   0.00000  Uiso   1.00
C8     C     0.13660   0.02309   0.23215   0.00000  Uiso   1.00
C9     C     0.20004   0.01911   0.26640   0.00000  Uiso   1.00
C10    C     0.13795   0.31398   0.22845   0.00000  Uiso   1.00
C11    C     0.16802   0.04243   0.25010   0.00000  Uiso   1.00
C12    C     0.16599   0.29073   0.24939   0.00000  Uiso   1.00
C13    C     0.32130   0.14537   0.21745   0.00000  Uiso   1.00
C14    C     0.01228   0.18868   0.28192   0.00000  Uiso   1.00
C15    C     0.03583   0.14513   0.21765   0.00000  Uiso   1.00
C16    C     0.29773   0.18880   0.28178   0.00000  Uiso   1.00
C17    C     0.13707   0.16593   0.33829   0.00000  Uiso   1.00
C18    C     0.19616   0.16457   0.16215   0.00000  Uiso   1.00
C19    C     0.11921   0.15935   0.38932   0.00000  Uiso   1.00
C20    C     0.21138   0.14963   0.11456   0.00000  Uiso   1.00
C21    C     0.05072   0.15120   0.46145   0.00000  Uiso   1.00
C22    C     0.25944   0.10086   0.05748   0.00000  Uiso   1.00
C23    C     0.06930   0.15736   0.41307   0.00000  Uiso   1.00
C24    C     0.25076   0.12236   0.09877   0.00000  Uiso   1.00
C25    C     0.15123   0.15188   0.41419   0.00000  Uiso   1.00
C26    C     0.17978   0.15492   0.08944   0.00000  Uiso   1.00
C27    C     0.13245   0.13605   0.46045   0.00000  Uiso   1.00
C28    C     0.18362   0.12810   0.05303   0.00000  Uiso   1.00
C29    C     0.08238   0.14051   0.48544   0.00000  Uiso   1.00
C30    C     0.22693   0.10552   0.03302   0.00000  Uiso   1.00
C31    C     0.16266   0.12080   0.48454   0.00000  Uiso   1.00
C32    C     0.14796   0.12709   0.03233   0.00000  Uiso   1.00
H33    H     0.02778   0.13950   0.05455   0.00000  Uiso   1.00
H34    H     0.27040   0.07317   0.47133   0.00000  Uiso   1.00
H35    H     0.27507   0.11792   0.11821   0.00000  Uiso   1.00
H36    H     0.04433   0.16191   0.39436   0.00000  Uiso   1.00
H37    H     0.08537   0.13243   0.09531   0.00000  Uiso   1.00
H38    H     0.21704   0.09056   0.42717   0.00000  Uiso   1.00
H39    H     0.21721   0.29197   0.28576   0.00000  Uiso   1.00
H40    H     0.11303   0.04103   0.21827   0.00000  Uiso   1.00
H41    H     0.31273   0.12833   0.19141   0.00000  Uiso   1.00
H42    H     0.02106   0.20632   0.30743   0.00000  Uiso   1.00
H43    H     0.06340   0.12774   0.19190   0.00000  Uiso   1.00
H44    H     0.27045   0.20686   0.30688   0.00000  Uiso   1.00
N45    N     0.04759   0.16668   0.25001   0.00000  Uiso   1.00
N46    N     0.28574   0.16666   0.24999   0.00000  Uiso   1.00
O47    O     0.12846   0.22775   0.25001   0.00000  Uiso   1.00
O48    O     0.20488   0.10558   0.24999   0.00000  Uiso   1.00
O49    O     0.20490   0.22774   0.25000   0.00000  Uiso   1.00
O50    O     0.12843   0.10559   0.25000   0.00000  Uiso   1.00
O51    O     0.10661   0.16667   0.31613   0.00000  Uiso   1.00
O52    O     0.22672   0.16666   0.18387   0.00000  Uiso   1.00
O53    O     0.18305   0.16666   0.31612   0.00000  Uiso   1.00
O54    O     0.15028   0.16667   0.18388   0.00000  Uiso   1.00
Zn55   Zn    0.11562   0.16667   0.25000   0.00000  Uiso   1.00
Zn56   Zn    0.21771   0.16666   0.25000   0.00000  Uiso   1.00
C57    C     0.14957   0.19426   0.09538   0.00000  Uiso   1.00
H58    H     0.14311   0.20391   0.06282   0.00000  Uiso   1.00
H59    H     0.11446   0.19035   0.12401   0.00000  Uiso   1.00
H60    H     0.16974   0.22021   0.10285   0.00000  Uiso   1.00
C61    C     0.20233   0.16878   0.39559   0.00000  Uiso   1.00
H62    H     0.21705   0.17447   0.42370   0.00000  Uiso   1.00
H63    H     0.22672   0.14707   0.37061   0.00000  Uiso   1.00
H64    H     0.20260   0.19989   0.37869   0.00000  Uiso   1.00
O65    O     0.00139   0.15063   0.48458   0.00000  Uiso   1.00
C66    C     0.31437   0.19066   0.48407   0.00000  Uiso   1.00
H67    H     0.27609   0.18621   0.48734   0.00000  Uiso   1.00
H68    H     0.33134   0.20893   0.45098   0.00000  Uiso   1.00
C69    C     0.31597   0.21528   0.02556   0.00000  Uiso   1.00
H70    H     0.30257   0.19567   0.05794   0.00000  Uiso   1.00
H71    H     0.02043   0.22429   0.02000   0.00000  Uiso   1.00
C72    C     0.28471   0.25423   0.03189   0.00000  Uiso   1.00
H73    H     0.29752   0.27490   0.00029   0.00000  Uiso   1.00
H74    H     0.28633   0.27131   0.06228   0.00000  Uiso   1.00
H75    H     0.24671   0.24543   0.03836   0.00000  Uiso   1.00
O76    O     0.30195   0.07883   0.03903   0.00000  Uiso   1.00
C77    C     0.29837   0.04004   0.06299   0.00000  Uiso   1.00
H78    H     0.27840   0.01787   0.04923   0.00000  Uiso   1.00
H79    H     0.27939   0.04217   0.10134   0.00000  Uiso   1.00
C80    C     0.01567   0.02302   0.05581   0.00000  Uiso   1.00
H81    H     0.03507   0.04474   0.07069   0.00000  Uiso   1.00
H82    H     0.01265   0.32587   0.07478   0.00000  Uiso   1.00
C83    C     0.04499   0.01731   0.00440   0.00000  Uiso   1.00
H84    H     0.02610   0.32944   0.48853   0.00000  Uiso   1.00
H85    H     0.08068   0.00363   0.00119   0.00000  Uiso   1.00
H86    H     0.05090   0.04774   0.48508   0.00000  Uiso   1.00
O87    O     0.23440   0.03701   0.28113   0.00000  Uiso   1.00
C88    C     0.27744   0.04299   0.24237   0.00000  Uiso   1.00
H89    H     0.29976   0.06555   0.25262   0.00000  Uiso   1.00
H90    H     0.27049   0.05689   0.21136   0.00000  Uiso   1.00
C91    C     0.30693   0.00285   0.22861   0.00000  Uiso   1.00
H92    H     0.31624   0.32325   0.25862   0.00000  Uiso   1.00
H93    H     0.28626   0.31262   0.21770   0.00000  Uiso   1.00
C94    C     0.01946   0.01140   0.18742   0.00000  Uiso   1.00
H95    H     0.01071   0.02529   0.15754   0.00000  Uiso   1.00
H96    H     0.03892   0.31506   0.17631   0.00000  Uiso   1.00
H97    H     0.04273   0.03316   0.19745   0.00000  Uiso   1.00
O98    O     0.11058   0.29591   0.20561   0.00000  Uiso   1.00
C99    C     0.13905   0.29048   0.15826   0.00000  Uiso   1.00
H100   H     0.11759   0.27082   0.14357   0.00000  Uiso   1.00
H101   H     0.17310   0.27330   0.15479   0.00000  Uiso   1.00
C102   C     0.15024   0.33180   0.12956   0.00000  Uiso   1.00
H103   H     0.11776   0.01857   0.13875   0.00000  Uiso   1.00
H104   H     0.17911   0.01531   0.13722   0.00000  Uiso   1.00
C105   C     0.16704   0.32466   0.07735   0.00000  Uiso   1.00
H106   H     0.20054   0.30585   0.06670   0.00000  Uiso   1.00
H107   H     0.17452   0.02171   0.05800   0.00000  Uiso   1.00
H108   H     0.13875   0.30843   0.06815   0.00000  Uiso   1.00
C109   C     0.49985   0.24665   0.24939   0.00000  Uiso   1.00
C110   C     0.50026   0.08661   0.25058   0.00000  Uiso   1.00
C111   C     0.43189   0.13233   0.05760   0.00000  Uiso   1.00
C112   C     0.54011   0.09997   0.46295   0.00000  Uiso   1.00
C113   C     0.39897   0.13637   0.03425   0.00000  Uiso   1.00
C114   C     0.57064   0.09007   0.48815   0.00000  Uiso   1.00
C115   C     0.52886   0.30996   0.26960   0.00000  Uiso   1.00
C116   C     0.46993   0.02309   0.23215   0.00000  Uiso   1.00
C117   C     0.53337   0.01911   0.26640   0.00000  Uiso   1.00
C118   C     0.47128   0.31398   0.22845   0.00000  Uiso   1.00
C119   C     0.50136   0.04243   0.25010   0.00000  Uiso   1.00
C120   C     0.49933   0.29073   0.24939   0.00000  Uiso   1.00
C121   C     0.65463   0.14537   0.21745   0.00000  Uiso   1.00
C122   C     0.34561   0.18868   0.28192   0.00000  Uiso   1.00
C123   C     0.36917   0.14513   0.21765   0.00000  Uiso   1.00
C124   C     0.63107   0.18880   0.28178   0.00000  Uiso   1.00
C125   C     0.47040   0.16593   0.33829   0.00000  Uiso   1.00
C126   C     0.52950   0.16457   0.16215   0.00000  Uiso   1.00
C127   C     0.45255   0.15935   0.38932   0.00000  Uiso   1.00
C128   C     0.54471   0.14963   0.11456   0.00000  Uiso   1.00
C129   C     0.38405   0.15120   0.46145   0.00000  Uiso   1.00
C130   C     0.59277   0.10086   0.05748   0.00000  Uiso   1.00
C131   C     0.40263   0.15736   0.41307   0.00000  Uiso   1.00
C132   C     0.58410   0.12236   0.09877   0.00000  Uiso   1.00
C133   C     0.48456   0.15188   0.41419   0.00000  Uiso   1.00
C134   C     0.51311   0.15492   0.08944   0.00000  Uiso   1.00
C135   C     0.46578   0.13605   0.46045   0.00000  Uiso   1.00
C136   C     0.51695   0.12810   0.05303   0.00000  Uiso   1.00
C137   C     0.41571   0.14051   0.48544   0.00000  Uiso   1.00
C138   C     0.56027   0.10552   0.03302   0.00000  Uiso   1.00
C139   C     0.49599   0.12080   0.48454   0.00000  Uiso   1.00
C140   C     0.48129   0.12709   0.03233   0.00000  Uiso   1.00
H141   H     0.36111   0.13950   0.05455   0.00000  Uiso   1.00
H142   H     0.60374   0.07317   0.47133   0.00000  Uiso   1.00
H143   H     0.60840   0.11792   0.11821   0.00000  Uiso   1.00
H144   H     0.37767   0.16191   0.39436   0.00000  Uiso   1.00
H145   H     0.41870   0.13243   0.09531   0.00000  Uiso   1.00
H146   H     0.55037   0.09056   0.42717   0.00000  Uiso   1.00
H147   H     0.55054   0.29197   0.28576   0.00000  Uiso   1.00
H148   H     0.44637   0.04103   0.21827   0.00000  Uiso   1.00
H149   H     0.64606   0.12833   0.19141   0.00000  Uiso   1.00
H150   H     0.35439   0.20632   0.30743   0.00000  Uiso   1.00
H151   H     0.39673   0.12774   0.19190   0.00000  Uiso   1.00
H152   H     0.60378   0.20686   0.30688   0.00000  Uiso   1.00
N153   N     0.38093   0.16668   0.25001   0.00000  Uiso   1.00
N154   N     0.61907   0.16666   0.24999   0.00000  Uiso   1.00
O155   O     0.46179   0.22775   0.25001   0.00000  Uiso   1.00
O156   O     0.53821   0.10558   0.24999   0.00000  Uiso   1.00
O157   O     0.53823   0.22774   0.25000   0.00000  Uiso   1.00
O158   O     0.46177   0.10559   0.25000   0.00000  Uiso   1.00
O159   O     0.43994   0.16667   0.31613   0.00000  Uiso   1.00
O160   O     0.56006   0.16666   0.18387   0.00000  Uiso   1.00
O161   O     0.51639   0.16666   0.31612   0.00000  Uiso   1.00
O162   O     0.48361   0.16667   0.18388   0.00000  Uiso   1.00
Zn163  Zn    0.44896   0.16667   0.25000   0.00000  Uiso   1.00
Zn164  Zn    0.55104   0.16666   0.25000   0.00000  Uiso   1.00
C165   C     0.48290   0.19426   0.09538   0.00000  Uiso   1.00
H166   H     0.47644   0.20391   0.06282   0.00000  Uiso   1.00
H167   H     0.44780   0.19035   0.12401   0.00000  Uiso   1.00
H168   H     0.50307   0.22021   0.10285   0.00000  Uiso   1.00
C169   C     0.53567   0.16878   0.39559   0.00000  Uiso   1.00
H170   H     0.55038   0.17447   0.42370   0.00000  Uiso   1.00
H171   H     0.56006   0.14707   0.37061   0.00000  Uiso   1.00
H172   H     0.53593   0.19989   0.37869   0.00000  Uiso   1.00
O173   O     0.33472   0.15063   0.48458   0.00000  Uiso   1.00
C174   C     0.64770   0.19066   0.48407   0.00000  Uiso   1.00
H175   H     0.60942   0.18621   0.48734   0.00000  Uiso   1.00
H176   H     0.66467   0.20893   0.45098   0.00000  Uiso   1.00
C177   C     0.64931   0.21528   0.02556   0.00000  Uiso   1.00
H178   H     0.63591   0.19567   0.05794   0.00000  Uiso   1.00
H179   H     0.35376   0.22429   0.02000   0.00000  Uiso   1.00
C180   C     0.61804   0.25423   0.03189   0.00000  Uiso   1.00
H181   H     0.63085   0.27490   0.00029   0.00000  Uiso   1.00
H182   H     0.61966   0.27131   0.06228   0.00000  Uiso   1.00
H183   H     0.58004   0.24543   0.03836   0.00000  Uiso   1.00
O184   O     0.63528   0.07883   0.03903   0.00000  Uiso   1.00
C185   C     0.63171   0.04004   0.06299   0.00000  Uiso   1.00
H186   H     0.61174   0.01787   0.04923   0.00000  Uiso   1.00
H187   H     0.61272   0.04217   0.10134   0.00000  Uiso   1.00
C188   C     0.34900   0.02302   0.05581   0.00000  Uiso   1.00
H189   H     0.36840   0.04474   0.07069   0.00000  Uiso   1.00
H190   H     0.34599   0.32587   0.07478   0.00000  Uiso   1.00
C191   C     0.37832   0.01731   0.00440   0.00000  Uiso   1.00
H192   H     0.35943   0.32944   0.48853   0.00000  Uiso   1.00
H193   H     0.41401   0.00363   0.00119   0.00000  Uiso   1.00
H194   H     0.38424   0.04774   0.48508   0.00000  Uiso   1.00
O195   O     0.56774   0.03701   0.28113   0.00000  Uiso   1.00
C196   C     0.61077   0.04299   0.24237   0.00000  Uiso   1.00
H197   H     0.63309   0.06555   0.25262   0.00000  Uiso   1.00
H198   H     0.60383   0.05689   0.21136   0.00000  Uiso   1.00
C199   C     0.64027   0.00285   0.22861   0.00000  Uiso   1.00
H200   H     0.64957   0.32325   0.25862   0.00000  Uiso   1.00
H201   H     0.61960   0.31262   0.21770   0.00000  Uiso   1.00
C202   C     0.35279   0.01140   0.18742   0.00000  Uiso   1.00
H203   H     0.34404   0.02529   0.15754   0.00000  Uiso   1.00
H204   H     0.37225   0.31506   0.17631   0.00000  Uiso   1.00
H205   H     0.37606   0.03316   0.19745   0.00000  Uiso   1.00
O206   O     0.44392   0.29591   0.20561   0.00000  Uiso   1.00
C207   C     0.47238   0.29048   0.15826   0.00000  Uiso   1.00
H208   H     0.45092   0.27082   0.14357   0.00000  Uiso   1.00
H209   H     0.50644   0.27330   0.15479   0.00000  Uiso   1.00
C210   C     0.48358   0.33180   0.12956   0.00000  Uiso   1.00
H211   H     0.45109   0.01857   0.13875   0.00000  Uiso   1.00
H212   H     0.51244   0.01531   0.13722   0.00000  Uiso   1.00
C213   C     0.50037   0.32466   0.07735   0.00000  Uiso   1.00
H214   H     0.53387   0.30585   0.06670   0.00000  Uiso   1.00
H215   H     0.50785   0.02171   0.05800   0.00000  Uiso   1.00
H216   H     0.47208   0.30843   0.06815   0.00000  Uiso   1.00
C217   C     0.83318   0.24665   0.24939   0.00000  Uiso   1.00
C218   C     0.83359   0.08661   0.25058   0.00000  Uiso   1.00
C219   C     0.76522   0.13233   0.05760   0.00000  Uiso   1.00
C220   C     0.87344   0.09997   0.46295   0.00000  Uiso   1.00
C221   C     0.73230   0.13637   0.03425   0.00000  Uiso   1.00
C222   C     0.90398   0.09007   0.48815   0.00000  Uiso   1.00
C223   C     0.86219   0.30996   0.26960   0.00000  Uiso   1.00
C224   C     0.80326   0.02309   0.23215   0.00000  Uiso   1.00
C225   C     0.86670   0.01911   0.26640   0.00000  Uiso   1.00
C226   C     0.80461   0.31398   0.22845   0.00000  Uiso   1.00
C227   C     0.83469   0.04243   0.25010   0.00000  Uiso   1.00
C228   C     0.83266   0.29073   0.24939   0.00000  Uiso   1.00
C229   C     0.98797   0.14537   0.21745   0.00000  Uiso   1.00
C230   C     0.67894   0.18868   0.28192   0.00000  Uiso   1.00
C231   C     0.70250   0.14513   0.21765   0.00000  Uiso   1.00
C232   C     0.96440   0.18880   0.28178   0.00000  Uiso   1.00
C233   C     0.80373   0.16593   0.33829   0.00000  Uiso   1.00
C234   C     0.86283   0.16457   0.16215   0.00000  Uiso   1.00
C235   C     0.78588   0.15935   0.38932   0.00000  Uiso   1.00
C236   C     0.87804   0.14963   0.11456   0.00000  Uiso   1.00
C237   C     0.71738   0.15120   0.46145   0.00000  Uiso   1.00
C238   C     0.92611   0.10086   0.05748   0.00000  Uiso   1.00
C239   C     0.73597   0.15736   0.41307   0.00000  Uiso   1.00
C240   C     0.91743   0.12236   0.09877   0.00000  Uiso   1.00
C241   C     0.81789   0.15188   0.41419   0.00000  Uiso   1.00
C242   C     0.84645   0.15492   0.08944   0.00000  Uiso   1.00
C243   C     0.79911   0.13605   0.46045   0.00000  Uiso   1.00
C244   C     0.85028   0.12810   0.05303   0.00000  Uiso   1.00
C245   C     0.74904   0.14051   0.48544   0.00000  Uiso   1.00
C246   C     0.89360   0.10552   0.03302   0.00000  Uiso   1.00
C247   C     0.82933   0.12080   0.48454   0.00000  Uiso   1.00
C248   C     0.81463   0.12709   0.03233   0.00000  Uiso   1.00
H249   H     0.69445   0.13950   0.05455   0.00000  Uiso   1.00
H250   H     0.93707   0.07317   0.47133   0.00000  Uiso   1.00
H251   H     0.94173   0.11792   0.11821   0.00000  Uiso   1.00
H252   H     0.71100   0.16191   0.39436   0.00000  Uiso   1.00
H253   H     0.75204   0.13243   0.09531   0.00000  Uiso   1.00
H254   H     0.88371   0.09056   0.42717   0.00000  Uiso   1.00
H255   H     0.88387   0.29197   0.28576   0.00000  Uiso   1.00
H256   H     0.77970   0.04103   0.21827   0.00000  Uiso   1.00
H257   H     0.97939   0.12833   0.19141   0.00000  Uiso   1.00
H258   H     0.68773   0.20632   0.30743   0.00000  Uiso   1.00
H259   H     0.73006   0.12774   0.19190   0.00000  Uiso   1.00
H260   H     0.93712   0.20686   0.30688   0.00000  Uiso   1.00
N261   N     0.71426   0.16668   0.25001   0.00000  Uiso   1.00
N262   N     0.95241   0.16666   0.24999   0.00000  Uiso   1.00
O263   O     0.79512   0.22775   0.25001   0.00000  Uiso   1.00
O264   O     0.87154   0.10558   0.24999   0.00000  Uiso   1.00
O265   O     0.87157   0.22774   0.25000   0.00000  Uiso   1.00
O266   O     0.79510   0.10559   0.25000   0.00000  Uiso   1.00
O267   O     0.77328   0.16667   0.31613   0.00000  Uiso   1.00
O268   O     0.89339   0.16666   0.18387   0.00000  Uiso   1.00
O269   O     0.84972   0.16666   0.31612   0.00000  Uiso   1.00
O270   O     0.81695   0.16667   0.18388   0.00000  Uiso   1.00
Zn271  Zn    0.78229   0.16667   0.25000   0.00000  Uiso   1.00
Zn272  Zn    0.88438   0.16666   0.25000   0.00000  Uiso   1.00
C273   C     0.81624   0.19426   0.09538   0.00000  Uiso   1.00
H274   H     0.80977   0.20391   0.06282   0.00000  Uiso   1.00
H275   H     0.78113   0.19035   0.12401   0.00000  Uiso   1.00
H276   H     0.83641   0.22021   0.10285   0.00000  Uiso   1.00
C277   C     0.86900   0.16878   0.39559   0.00000  Uiso   1.00
H278   H     0.88372   0.17447   0.42370   0.00000  Uiso   1.00
H279   H     0.89339   0.14707   0.37061   0.00000  Uiso   1.00
H280   H     0.86926   0.19989   0.37869   0.00000  Uiso   1.00
O281   O     0.66806   0.15063   0.48458   0.00000  Uiso   1.00
C282   C     0.98103   0.19066   0.48407   0.00000  Uiso   1.00
H283   H     0.94276   0.18621   0.48734   0.00000  Uiso   1.00
H284   H     0.99800   0.20893   0.45098   0.00000  Uiso   1.00
C285   C     0.98264   0.21528   0.02556   0.00000  Uiso   1.00
H286   H     0.96924   0.19567   0.05794   0.00000  Uiso   1.00
H287   H     0.68710   0.22429   0.02000   0.00000  Uiso   1.00
C288   C     0.95137   0.25423   0.03189   0.00000  Uiso   1.00
H289   H     0.96419   0.27490   0.00029   0.00000  Uiso   1.00
H290   H     0.95299   0.27131   0.06228   0.00000  Uiso   1.00
H291   H     0.91338   0.24543   0.03836   0.00000  Uiso   1.00
O292   O     0.96861   0.07883   0.03903   0.00000  Uiso   1.00
C293   C     0.96504   0.04004   0.06299   0.00000  Uiso   1.00
H294   H     0.94507   0.01787   0.04923   0.00000  Uiso   1.00
H295   H     0.94606   0.04217   0.10134   0.00000  Uiso   1.00
C296   C     0.68234   0.02302   0.05581   0.00000  Uiso   1.00
H297   H     0.70173   0.04474   0.07069   0.00000  Uiso   1.00
H298   H     0.67932   0.32587   0.07478   0.00000  Uiso   1.00
C299   C     0.71165   0.01731   0.00440   0.00000  Uiso   1.00
H300   H     0.69277   0.32944   0.48853   0.00000  Uiso   1.00
H301   H     0.74735   0.00363   0.00119   0.00000  Uiso   1.00
H302   H     0.71757   0.04774   0.48508   0.00000  Uiso   1.00
O303   O     0.90107   0.03701   0.28113   0.00000  Uiso   1.00
C304   C     0.94411   0.04299   0.24237   0.00000  Uiso   1.00
H305   H     0.96642   0.06555   0.25262   0.00000  Uiso   1.00
H306   H     0.93716   0.05689   0.21136   0.00000  Uiso   1.00
C307   C     0.97360   0.00285   0.22861   0.00000  Uiso   1.00
H308   H     0.98290   0.32325   0.25862   0.00000  Uiso   1.00
H309   H     0.95293   0.31262   0.21770   0.00000  Uiso   1.00
C310   C     0.68612   0.01140   0.18742   0.00000  Uiso   1.00
H311   H     0.67737   0.02529   0.15754   0.00000  Uiso   1.00
H312   H     0.70559   0.31506   0.17631   0.00000  Uiso   1.00
H313   H     0.70940   0.03316   0.19745   0.00000  Uiso   1.00
O314   O     0.77725   0.29591   0.20561   0.00000  Uiso   1.00
C315   C     0.80571   0.29048   0.15826   0.00000  Uiso   1.00
H316   H     0.78425   0.27082   0.14357   0.00000  Uiso   1.00
H317   H     0.83977   0.27330   0.15479   0.00000  Uiso   1.00
C318   C     0.81691   0.33180   0.12956   0.00000  Uiso   1.00
H319   H     0.78442   0.01857   0.13875   0.00000  Uiso   1.00
H320   H     0.84578   0.01531   0.13722   0.00000  Uiso   1.00
C321   C     0.83370   0.32466   0.07735   0.00000  Uiso   1.00
H322   H     0.86721   0.30585   0.06670   0.00000  Uiso   1.00
H323   H     0.84119   0.02171   0.05800   0.00000  Uiso   1.00
H324   H     0.80542   0.30843   0.06815   0.00000  Uiso   1.00
C325   C     0.16651   0.57999   0.24939   0.00000  Uiso   1.00
C326   C     0.16693   0.41994   0.25058   0.00000  Uiso   1.00
C327   C     0.09856   0.46566   0.05760   0.00000  Uiso   1.00
C328   C     0.20677   0.43330   0.46295   0.00000  Uiso   1.00
C329   C     0.06564   0.46970   0.03425   0.00000  Uiso   1.00
C330   C     0.23731   0.42341   0.48815   0.00000  Uiso   1.00
C331   C     0.19552   0.64329   0.26960   0.00000  Uiso   1.00
C332   C     0.13660   0.35643   0.23215   0.00000  Uiso   1.00
C333   C     0.20004   0.35245   0.26640   0.00000  Uiso   1.00
C334   C     0.13795   0.64732   0.22845   0.00000  Uiso   1.00
C335   C     0.16802   0.37576   0.25010   0.00000  Uiso   1.00
C336   C     0.16599   0.62406   0.24939   0.00000  Uiso   1.00
C337   C     0.32130   0.47871   0.21745   0.00000  Uiso   1.00
C338   C     0.01228   0.52202   0.28192   0.00000  Uiso   1.00
C339   C     0.03583   0.47847   0.21765   0.00000  Uiso   1.00
C340   C     0.29773   0.52213   0.28178   0.00000  Uiso   1.00
C341   C     0.13707   0.49927   0.33829   0.00000  Uiso   1.00
C342   C     0.19616   0.49790   0.16215   0.00000  Uiso   1.00
C343   C     0.11921   0.49268   0.38932   0.00000  Uiso   1.00
C344   C     0.21138   0.48296   0.11456   0.00000  Uiso   1.00
C345   C     0.05072   0.48453   0.46145   0.00000  Uiso   1.00
C346   C     0.25944   0.43420   0.05748   0.00000  Uiso   1.00
C347   C     0.06930   0.49069   0.41307   0.00000  Uiso   1.00
C348   C     0.25076   0.45570   0.09877   0.00000  Uiso   1.00
C349   C     0.15123   0.48522   0.41419   0.00000  Uiso   1.00
C350   C     0.17978   0.48825   0.08944   0.00000  Uiso   1.00
C351   C     0.13245   0.46939   0.46045   0.00000  Uiso   1.00
C352   C     0.18362   0.46143   0.05303   0.00000  Uiso   1.00
C353   C     0.08238   0.47384   0.48544   0.00000  Uiso   1.00
C354   C     0.22693   0.43885   0.03302   0.00000  Uiso   1.00
C355   C     0.16266   0.45413   0.48454   0.00000  Uiso   1.00
C356   C     0.14796   0.46042   0.03233   0.00000  Uiso   1.00
H357   H     0.02778   0.47284   0.05455   0.00000  Uiso   1.00
H358   H     0.27040   0.40650   0.47133   0.00000  Uiso   1.00
H359   H     0.27507   0.45125   0.11821   0.00000  Uiso   1.00
H360   H     0.04433   0.49525   0.39436   0.00000  Uiso   1.00
H361   H     0.08537   0.46576   0.09531   0.00000  Uiso   1.00
H362   H     0.21704   0.42390   0.42717   0.00000  Uiso   1.00
H363   H     0.21721   0.62530   0.28576   0.00000  Uiso   1.00
H364   H     0.11303   0.37436   0.21827   0.00000  Uiso   1.00
H365   H     0.31273   0.46166   0.19141   0.00000  Uiso   1.00
H366   H     0.02106   0.53965   0.30743   0.00000  Uiso   1.00
H367   H     0.06340   0.46108   0.19190   0.00000  Uiso   1.00
H368   H     0.27045   0.54020   0.30688   0.00000  Uiso   1.00
N369   N     0.04759   0.50001   0.25001   0.00000  Uiso   1.00
N370   N     0.28574   0.49999   0.24999   0.00000  Uiso   1.00
O371   O     0.12846   0.56108   0.25001   0.00000  Uiso   1.00
O372   O     0.20488   0.43892   0.24999   0.00000  Uiso   1.00
O373   O     0.20490   0.56107   0.25000   0.00000  Uiso   1.00
O374   O     0.12843   0.43893   0.25000   0.00000  Uiso   1.00
O375   O     0.10661   0.50001   0.31613   0.00000  Uiso   1.00
O376   O     0.22672   0.49999   0.18387   0.00000  Uiso   1.00
O377   O     0.18305   0.50000   0.31612   0.00000  Uiso   1.00
O378   O     0.15028   0.50000   0.18388   0.00000  Uiso   1.00
Zn379  Zn    0.11562   0.50001   0.25000   0.00000  Uiso   1.00
Zn380  Zn    0.21771   0.49999   0.25000   0.00000  Uiso   1.00
C381   C     0.14957   0.52759   0.09538   0.00000  Uiso   1.00
H382   H     0.14311   0.53725   0.06282   0.00000  Uiso   1.00
H383   H     0.11446   0.52368   0.12401   0.00000  Uiso   1.00
H384   H     0.16974   0.55354   0.10285   0.00000  Uiso   1.00
C385   C     0.20233   0.50212   0.39559   0.00000  Uiso   1.00
H386   H     0.21705   0.50780   0.42370   0.00000  Uiso   1.00
H387   H     0.22672   0.48041   0.37061   0.00000  Uiso   1.00
H388   H     0.20260   0.53323   0.37869   0.00000  Uiso   1.00
O389   O     0.00139   0.48396   0.48458   0.00000  Uiso   1.00
C390   C     0.31437   0.52399   0.48407   0.00000  Uiso   1.00
H391   H     0.27609   0.51955   0.48734   0.00000  Uiso   1.00
H392   H     0.33134   0.54227   0.45098   0.00000  Uiso   1.00
C393   C     0.31597   0.54861   0.02556   0.00000  Uiso   1.00
H394   H     0.30257   0.52900   0.05794   0.00000  Uiso   1.00
H395   H     0.02043   0.55763   0.02000   0.00000  Uiso   1.00
C396   C     0.28471   0.58756   0.03189   0.00000  Uiso   1.00
H397   H     0.29752   0.60823   0.00029   0.00000  Uiso   1.00
H398   H     0.28633   0.60464   0.06228   0.00000  Uiso   1.00
H399   H     0.24671   0.57877   0.03836   0.00000  Uiso   1.00
O400   O     0.30195   0.41216   0.03903   0.00000  Uiso   1.00
C401   C     0.29837   0.37338   0.06299   0.00000  Uiso   1.00
H402   H     0.27840   0.35120   0.04923   0.00000  Uiso   1.00
H403   H     0.27939   0.37550   0.10134   0.00000  Uiso   1.00
C404   C     0.01567   0.35635   0.05581   0.00000  Uiso   1.00
H405   H     0.03507   0.37807   0.07069   0.00000  Uiso   1.00
H406   H     0.01265   0.65920   0.07478   0.00000  Uiso   1.00
C407   C     0.04499   0.35065   0.00440   0.00000  Uiso   1.00
H408   H     0.02610   0.66277   0.48853   0.00000  Uiso   1.00
H409   H     0.08068   0.33696   0.00119   0.00000  Uiso   1.00
H410   H     0.05090   0.38108   0.48508   0.00000  Uiso   1.00
O411   O     0.23440   0.37035   0.28113   0.00000  Uiso   1.00
C412   C     0.27744   0.37633   0.24237   0.00000  Uiso   1.00
H413   H     0.29976   0.39889   0.25262   0.00000  Uiso   1.00
H414   H     0.27049   0.39023   0.21136   0.00000  Uiso   1.00
C415   C     0.30693   0.33618   0.22861   0.00000  Uiso   1.00
H416   H     0.31624   0.65658   0.25862   0.00000  Uiso   1.00
H417   H     0.28626   0.64596   0.21770   0.00000  Uiso   1.00
C418   C     0.01946   0.34474   0.18742   0.00000  Uiso   1.00
H419   H     0.01071   0.35863   0.15754   0.00000  Uiso   1.00
H420   H     0.03892   0.64839   0.17631   0.00000  Uiso   1.00
H421   H     0.04273   0.36650   0.19745   0.00000  Uiso   1.00
O422   O     0.11058   0.62925   0.20561   0.00000  Uiso   1.00
C423   C     0.13905   0.62381   0.15826   0.00000  Uiso   1.00
H424   H     0.11759   0.60415   0.14357   0.00000  Uiso   1.00
H425   H     0.17310   0.60663   0.15479   0.00000  Uiso   1.00
C426   C     0.15024   0.66513   0.12956   0.00000  Uiso   1.00
H427   H     0.11776   0.35190   0.13875   0.00000  Uiso   1.00
H428   H     0.17911   0.34865   0.13722   0.00000  Uiso   1.00
C429   C     0.16704   0.65799   0.07735   0.00000  Uiso   1.00
H430   H     0.20054   0.63918   0.06670   0.00000  Uiso   1.00
H431   H     0.17452   0.35504   0.05800   0.00000  Uiso   1.00
H432   H     0.13875   0.64176   0.06815   0.00000  Uiso   1.00
C433   C     0.49985   0.57999   0.24939   0.00000  Uiso   1.00
C434   C     0.50026   0.41994   0.25058   0.00000  Uiso   1.00
C435   C     0.43189   0.46566   0.05760   0.00000  Uiso   1.00
C436   C     0.54011   0.43330   0.46295   0.00000  Uiso   1.00
C437   C     0.39897   0.46970   0.03425   0.00000  Uiso   1.00
C438   C     0.57064   0.42341   0.48815   0.00000  Uiso   1.00
C439   C     0.52886   0.64329   0.26960   0.00000  Uiso   1.00
C440   C     0.46993   0.35643   0.23215   0.00000  Uiso   1.00
C441   C     0.53337   0.35245   0.26640   0.00000  Uiso   1.00
C442   C     0.47128   0.64732   0.22845   0.00000  Uiso   1.00
C443   C     0.50136   0.37576   0.25010   0.00000  Uiso   1.00
C444   C     0.49933   0.62406   0.24939   0.00000  Uiso   1.00
C445   C     0.65463   0.47871   0.21745   0.00000  Uiso   1.00
C446   C     0.34561   0.52202   0.28192   0.00000  Uiso   1.00
C447   C     0.36917   0.47847   0.21765   0.00000  Uiso   1.00
C448   C     0.63107   0.52213   0.28178   0.00000  Uiso   1.00
C449   C     0.47040   0.49927   0.33829   0.00000  Uiso   1.00
C450   C     0.52950   0.49790   0.16215   0.00000  Uiso   1.00
C451   C     0.45255   0.49268   0.38932   0.00000  Uiso   1.00
C452   C     0.54471   0.48296   0.11456   0.00000  Uiso   1.00
C453   C     0.38405   0.48453   0.46145   0.00000  Uiso   1.00
C454   C     0.59277   0.43420   0.05748   0.00000  Uiso   1.00
C455   C     0.40263   0.49069   0.41307   0.00000  Uiso   1.00
C456   C     0.58410   0.45570   0.09877   0.00000  Uiso   1.00
C457   C     0.48456   0.48522   0.41419   0.00000  Uiso   1.00
C458   C     0.51311   0.48825   0.08944   0.00000  Uiso   1.00
C459   C     0.46578   0.46939   0.46045   0.00000  Uiso   1.00
C460   C     0.51695   0.46143   0.05303   0.00000  Uiso   1.00
C461   C     0.41571   0.47384   0.48544   0.00000  Uiso   1.00
C462   C     0.56027   0.43885   0.03302   0.00000  Uiso   1.00
C463   C     0.49599   0.45413   0.48454   0.00000  Uiso   1.00
C464   C     0.48129   0.46042   0.03233   0.00000  Uiso   1.00
H465   H     0.36111   0.47284   0.05455   0.00000  Uiso   1.00
H466   H     0.60374   0.40650   0.47133   0.00000  Uiso   1.00
H467   H     0.60840   0.45125   0.11821   0.00000  Uiso   1.00
H468   H     0.37767   0.49525   0.39436   0.00000  Uiso   1.00
H469   H     0.41870   0.46576   0.09531   0.00000  Uiso   1.00
H470   H     0.55037   0.42390   0.42717   0.00000  Uiso   1.00
H471   H     0.55054   0.62530   0.28576   0.00000  Uiso   1.00
H472   H     0.44637   0.37436   0.21827   0.00000  Uiso   1.00
H473   H     0.64606   0.46166   0.19141   0.00000  Uiso   1.00
H474   H     0.35439   0.53965   0.30743   0.00000  Uiso   1.00
H475   H     0.39673   0.46108   0.19190   0.00000  Uiso   1.00
H476   H     0.60378   0.54020   0.30688   0.00000  Uiso   1.00
N477   N     0.38093   0.50001   0.25001   0.00000  Uiso   1.00
N478   N     0.61907   0.49999   0.24999   0.00000  Uiso   1.00
O479   O     0.46179   0.56108   0.25001   0.00000  Uiso   1.00
O480   O     0.53821   0.43892   0.24999   0.00000  Uiso   1.00
O481   O     0.53823   0.56107   0.25000   0.00000  Uiso   1.00
O482   O     0.46177   0.43893   0.25000   0.00000  Uiso   1.00
O483   O     0.43994   0.50001   0.31613   0.00000  Uiso   1.00
O484   O     0.56006   0.49999   0.18387   0.00000  Uiso   1.00
O485   O     0.51639   0.50000   0.31612   0.00000  Uiso   1.00
O486   O     0.48361   0.50000   0.18388   0.00000  Uiso   1.00
Zn487  Zn    0.44896   0.50001   0.25000   0.00000  Uiso   1.00
Zn488  Zn    0.55104   0.49999   0.25000   0.00000  Uiso   1.00
C489   C     0.48290   0.52759   0.09538   0.00000  Uiso   1.00
H490   H     0.47644   0.53725   0.06282   0.00000  Uiso   1.00
H491   H     0.44780   0.52368   0.12401   0.00000  Uiso   1.00
H492   H     0.50307   0.55354   0.10285   0.00000  Uiso   1.00
C493   C     0.53567   0.50212   0.39559   0.00000  Uiso   1.00
H494   H     0.55038   0.50780   0.42370   0.00000  Uiso   1.00
H495   H     0.56006   0.48041   0.37061   0.00000  Uiso   1.00
H496   H     0.53593   0.53323   0.37869   0.00000  Uiso   1.00
O497   O     0.33472   0.48396   0.48458   0.00000  Uiso   1.00
C498   C     0.64770   0.52399   0.48407   0.00000  Uiso   1.00
H499   H     0.60942   0.51955   0.48734   0.00000  Uiso   1.00
H500   H     0.66467   0.54227   0.45098   0.00000  Uiso   1.00
C501   C     0.64931   0.54861   0.02556   0.00000  Uiso   1.00
H502   H     0.63591   0.52900   0.05794   0.00000  Uiso   1.00
H503   H     0.35376   0.55763   0.02000   0.00000  Uiso   1.00
C504   C     0.61804   0.58756   0.03189   0.00000  Uiso   1.00
H505   H     0.63085   0.60823   0.00029   0.00000  Uiso   1.00
H506   H     0.61966   0.60464   0.06228   0.00000  Uiso   1.00
H507   H     0.58004   0.57877   0.03836   0.00000  Uiso   1.00
O508   O     0.63528   0.41216   0.03903   0.00000  Uiso   1.00
C509   C     0.63171   0.37338   0.06299   0.00000  Uiso   1.00
H510   H     0.61174   0.35120   0.04923   0.00000  Uiso   1.00
H511   H     0.61272   0.37550   0.10134   0.00000  Uiso   1.00
C512   C     0.34900   0.35635   0.05581   0.00000  Uiso   1.00
H513   H     0.36840   0.37807   0.07069   0.00000  Uiso   1.00
H514   H     0.34599   0.65920   0.07478   0.00000  Uiso   1.00
C515   C     0.37832   0.35065   0.00440   0.00000  Uiso   1.00
H516   H     0.35943   0.66277   0.48853   0.00000  Uiso   1.00
H517   H     0.41401   0.33696   0.00119   0.00000  Uiso   1.00
H518   H     0.38424   0.38108   0.48508   0.00000  Uiso   1.00
O519   O     0.56774   0.37035   0.28113   0.00000  Uiso   1.00
C520   C     0.61077   0.37633   0.24237   0.00000  Uiso   1.00
H521   H     0.63309   0.39889   0.25262   0.00000  Uiso   1.00
H522   H     0.60383   0.39023   0.21136   0.00000  Uiso   1.00
C523   C     0.64027   0.33618   0.22861   0.00000  Uiso   1.00
H524   H     0.64957   0.65658   0.25862   0.00000  Uiso   1.00
H525   H     0.61960   0.64596   0.21770   0.00000  Uiso   1.00
C526   C     0.35279   0.34474   0.18742   0.00000  Uiso   1.00
H527   H     0.34404   0.35863   0.15754   0.00000  Uiso   1.00
H528   H     0.37225   0.64839   0.17631   0.00000  Uiso   1.00
H529   H     0.37606   0.36650   0.19745   0.00000  Uiso   1.00
O530   O     0.44392   0.62925   0.20561   0.00000  Uiso   1.00
C531   C     0.47238   0.62381   0.15826   0.00000  Uiso   1.00
H532   H     0.45092   0.60415   0.14357   0.00000  Uiso   1.00
H533   H     0.50644   0.60663   0.15479   0.00000  Uiso   1.00
C534   C     0.48358   0.66513   0.12956   0.00000  Uiso   1.00
H535   H     0.45109   0.35190   0.13875   0.00000  Uiso   1.00
H536   H     0.51244   0.34865   0.13722   0.00000  Uiso   1.00
C537   C     0.50037   0.65799   0.07735   0.00000  Uiso   1.00
H538   H     0.53387   0.63918   0.06670   0.00000  Uiso   1.00
H539   H     0.50785   0.35504   0.05800   0.00000  Uiso   1.00
H540   H     0.47208   0.64176   0.06815   0.00000  Uiso   1.00
C541   C     0.83318   0.57999   0.24939   0.00000  Uiso   1.00
C542   C     0.83359   0.41994   0.25058   0.00000  Uiso   1.00
C543   C     0.76522   0.46566   0.05760   0.00000  Uiso   1.00
C544   C     0.87344   0.43330   0.46295   0.00000  Uiso   1.00
C545   C     0.73230   0.46970   0.03425   0.00000  Uiso   1.00
C546   C     0.90398   0.42341   0.48815   0.00000  Uiso   1.00
C547   C     0.86219   0.64329   0.26960   0.00000  Uiso   1.00
C548   C     0.80326   0.35643   0.23215   0.00000  Uiso   1.00
C549   C     0.86670   0.35245   0.26640   0.00000  Uiso   1.00
C550   C     0.80461   0.64732   0.22845   0.00000  Uiso   1.00
C551   C     0.83469   0.37576   0.25010   0.00000  Uiso   1.00
C552   C     0.83266   0.62406   0.24939   0.00000  Uiso   1.00
C553   C     0.98797   0.47871   0.21745   0.00000  Uiso   1.00
C554   C     0.67894   0.52202   0.28192   0.00000  Uiso   1.00
C555   C     0.70250   0.47847   0.21765   0.00000  Uiso   1.00
C556   C     0.96440   0.52213   0.28178   0.00000  Uiso   1.00
C557   C     0.80373   0.49927   0.33829   0.00000  Uiso   1.00
C558   C     0.86283   0.49790   0.16215   0.00000  Uiso   1.00
C559   C     0.78588   0.49268   0.38932   0.00000  Uiso   1.00
C560   C     0.87804   0.48296   0.11456   0.00000  Uiso   1.00
C561   C     0.71738   0.48453   0.46145   0.00000  Uiso   1.00
C562   C     0.92611   0.43420   0.05748   0.00000  Uiso   1.00
C563   C     0.73597   0.49069   0.41307   0.00000  Uiso   1.00
C564   C     0.91743   0.45570   0.09877   0.00000  Uiso   1.00
C565   C     0.81789   0.48522   0.41419   0.00000  Uiso   1.00
C566   C     0.84645   0.48825   0.08944   0.00000  Uiso   1.00
C567   C     0.79911   0.46939   0.46045   0.00000  Uiso   1.00
C568   C     0.85028   0.46143   0.05303   0.00000  Uiso   1.00
C569   C     0.74904   0.47384   0.48544   0.00000  Uiso   1.00
C570   C     0.89360   0.43885   0.03302   0.00000  Uiso   1.00
C571   C     0.82933   0.45413   0.48454   0.00000  Uiso   1.00
C572   C     0.81463   0.46042   0.03233   0.00000  Uiso   1.00
H573   H     0.69445   0.47284   0.05455   0.00000  Uiso   1.00
H574   H     0.93707   0.40650   0.47133   0.00000  Uiso   1.00
H575   H     0.94173   0.45125   0.11821   0.00000  Uiso   1.00
H576   H     0.71100   0.49525   0.39436   0.00000  Uiso   1.00
H577   H     0.75204   0.46576   0.09531   0.00000  Uiso   1.00
H578   H     0.88371   0.42390   0.42717   0.00000  Uiso   1.00
H579   H     0.88387   0.62530   0.28576   0.00000  Uiso   1.00
H580   H     0.77970   0.37436   0.21827   0.00000  Uiso   1.00
H581   H     0.97939   0.46166   0.19141   0.00000  Uiso   1.00
H582   H     0.68773   0.53965   0.30743   0.00000  Uiso   1.00
H583   H     0.73006   0.46108   0.19190   0.00000  Uiso   1.00
H584   H     0.93712   0.54020   0.30688   0.00000  Uiso   1.00
N585   N     0.71426   0.50001   0.25001   0.00000  Uiso   1.00
N586   N     0.95241   0.49999   0.24999   0.00000  Uiso   1.00
O587   O     0.79512   0.56108   0.25001   0.00000  Uiso   1.00
O588   O     0.87154   0.43892   0.24999   0.00000  Uiso   1.00
O589   O     0.87157   0.56107   0.25000   0.00000  Uiso   1.00
O590   O     0.79510   0.43893   0.25000   0.00000  Uiso   1.00
O591   O     0.77328   0.50001   0.31613   0.00000  Uiso   1.00
O592   O     0.89339   0.49999   0.18387   0.00000  Uiso   1.00
O593   O     0.84972   0.50000   0.31612   0.00000  Uiso   1.00
O594   O     0.81695   0.50000   0.18388   0.00000  Uiso   1.00
Zn595  Zn    0.78229   0.50001   0.25000   0.00000  Uiso   1.00
Zn596  Zn    0.88438   0.49999   0.25000   0.00000  Uiso   1.00
C597   C     0.81624   0.52759   0.09538   0.00000  Uiso   1.00
H598   H     0.80977   0.53725   0.06282   0.00000  Uiso   1.00
H599   H     0.78113   0.52368   0.12401   0.00000  Uiso   1.00
H600   H     0.83641   0.55354   0.10285   0.00000  Uiso   1.00
C601   C     0.86900   0.50212   0.39559   0.00000  Uiso   1.00
H602   H     0.88372   0.50780   0.42370   0.00000  Uiso   1.00
H603   H     0.89339   0.48041   0.37061   0.00000  Uiso   1.00
H604   H     0.86926   0.53323   0.37869   0.00000  Uiso   1.00
O605   O     0.66806   0.48396   0.48458   0.00000  Uiso   1.00
C606   C     0.98103   0.52399   0.48407   0.00000  Uiso   1.00
H607   H     0.94276   0.51955   0.48734   0.00000  Uiso   1.00
H608   H     0.99800   0.54227   0.45098   0.00000  Uiso   1.00
C609   C     0.98264   0.54861   0.02556   0.00000  Uiso   1.00
H610   H     0.96924   0.52900   0.05794   0.00000  Uiso   1.00
H611   H     0.68710   0.55763   0.02000   0.00000  Uiso   1.00
C612   C     0.95137   0.58756   0.03189   0.00000  Uiso   1.00
H613   H     0.96419   0.60823   0.00029   0.00000  Uiso   1.00
H614   H     0.95299   0.60464   0.06228   0.00000  Uiso   1.00
H615   H     0.91338   0.57877   0.03836   0.00000  Uiso   1.00
O616   O     0.96861   0.41216   0.03903   0.00000  Uiso   1.00
C617   C     0.96504   0.37338   0.06299   0.00000  Uiso   1.00
H618   H     0.94507   0.35120   0.04923   0.00000  Uiso   1.00
H619   H     0.94606   0.37550   0.10134   0.00000  Uiso   1.00
C620   C     0.68234   0.35635   0.05581   0.00000  Uiso   1.00
H621   H     0.70173   0.37807   0.07069   0.00000  Uiso   1.00
H622   H     0.67932   0.65920   0.07478   0.00000  Uiso   1.00
C623   C     0.71165   0.35065   0.00440   0.00000  Uiso   1.00
H624   H     0.69277   0.66277   0.48853   0.00000  Uiso   1.00
H625   H     0.74735   0.33696   0.00119   0.00000  Uiso   1.00
H626   H     0.71757   0.38108   0.48508   0.00000  Uiso   1.00
O627   O     0.90107   0.37035   0.28113   0.00000  Uiso   1.00
C628   C     0.94411   0.37633   0.24237   0.00000  Uiso   1.00
H629   H     0.96642   0.39889   0.25262   0.00000  Uiso   1.00
H630   H     0.93716   0.39023   0.21136   0.00000  Uiso   1.00
C631   C     0.97360   0.33618   0.22861   0.00000  Uiso   1.00
H632   H     0.98290   0.65658   0.25862   0.00000  Uiso   1.00
H633   H     0.95293   0.64596   0.21770   0.00000  Uiso   1.00
C634   C     0.68612   0.34474   0.18742   0.00000  Uiso   1.00
H635   H     0.67737   0.35863   0.15754   0.00000  Uiso   1.00
H636   H     0.70559   0.64839   0.17631   0.00000  Uiso   1.00
H637   H     0.70940   0.36650   0.19745   0.00000  Uiso   1.00
O638   O     0.77725   0.62925   0.20561   0.00000  Uiso   1.00
C639   C     0.80571   0.62381   0.15826   0.00000  Uiso   1.00
H640   H     0.78425   0.60415   0.14357   0.00000  Uiso   1.00
H641   H     0.83977   0.60663   0.15479   0.00000  Uiso   1.00
C642   C     0.81691   0.66513   0.12956   0.00000  Uiso   1.00
H643   H     0.78442   0.35190   0.13875   0.00000  Uiso   1.00
H644   H     0.84578   0.34865   0.13722   0.00000  Uiso   1.00
C645   C     0.83370   0.65799   0.07735   0.00000  Uiso   1.00
H646   H     0.86721   0.63918   0.06670   0.00000  Uiso   1.00
H647   H     0.84119   0.35504   0.05800   0.00000  Uiso   1.00
H648   H     0.80542   0.64176   0.06815   0.00000  Uiso   1.00
C649   C     0.16651   0.91332   0.24939   0.00000  Uiso   1.00
C650   C     0.16693   0.75328   0.25058   0.00000  Uiso   1.00
C651   C     0.09856   0.79900   0.05760   0.00000  Uiso   1.00
C652   C     0.20677   0.76663   0.46295   0.00000  Uiso   1.00
C653   C     0.06564   0.80304   0.03425   0.00000  Uiso   1.00
C654   C     0.23731   0.75674   0.48815   0.00000  Uiso   1.00
C655   C     0.19552   0.97662   0.26960   0.00000  Uiso   1.00
C656   C     0.13660   0.68976   0.23215   0.00000  Uiso   1.00
C657   C     0.20004   0.68578   0.26640   0.00000  Uiso   1.00
C658   C     0.13795   0.98065   0.22845   0.00000  Uiso   1.00
C659   C     0.16802   0.70909   0.25010   0.00000  Uiso   1.00
C660   C     0.16599   0.95740   0.24939   0.00000  Uiso   1.00
C661   C     0.32130   0.81204   0.21745   0.00000  Uiso   1.00
C662   C     0.01228   0.85535   0.28192   0.00000  Uiso   1.00
C663   C     0.03583   0.81180   0.21765   0.00000  Uiso   1.00
C664   C     0.29773   0.85546   0.28178   0.00000  Uiso   1.00
C665   C     0.13707   0.83260   0.33829   0.00000  Uiso   1.00
C666   C     0.19616   0.83123   0.16215   0.00000  Uiso   1.00
C667   C     0.11921   0.82602   0.38932   0.00000  Uiso   1.00
C668   C     0.21138   0.81630   0.11456   0.00000  Uiso   1.00
C669   C     0.05072   0.81786   0.46145   0.00000  Uiso   1.00
C670   C     0.25944   0.76753   0.05748   0.00000  Uiso   1.00
C671   C     0.06930   0.82402   0.41307   0.00000  Uiso   1.00
C672   C     0.25076   0.78903   0.09877   0.00000  Uiso   1.00
C673   C     0.15123   0.81855   0.41419   0.00000  Uiso   1.00
C674   C     0.17978   0.82158   0.08944   0.00000  Uiso   1.00
C675   C     0.13245   0.80272   0.46045   0.00000  Uiso   1.00
C676   C     0.18362   0.79476   0.05303   0.00000  Uiso   1.00
C677   C     0.08238   0.80717   0.48544   0.00000  Uiso   1.00
C678   C     0.22693   0.77218   0.03302   0.00000  Uiso   1.00
C679   C     0.16266   0.78746   0.48454   0.00000  Uiso   1.00
C680   C     0.14796   0.79376   0.03233   0.00000  Uiso   1.00
H681   H     0.02778   0.80617   0.05455   0.00000  Uiso   1.00
H682   H     0.27040   0.73984   0.47133   0.00000  Uiso   1.00
H683   H     0.27507   0.78458   0.11821   0.00000  Uiso   1.00
H684   H     0.04433   0.82858   0.39436   0.00000  Uiso   1.00
H685   H     0.08537   0.79909   0.09531   0.00000  Uiso   1.00
H686   H     0.21704   0.75723   0.42717   0.00000  Uiso   1.00
H687   H     0.21721   0.95864   0.28576   0.00000  Uiso   1.00
H688   H     0.11303   0.70770   0.21827   0.00000  Uiso   1.00
H689   H     0.31273   0.79500   0.19141   0.00000  Uiso   1.00
H690   H     0.02106   0.87299   0.30743   0.00000  Uiso   1.00
H691   H     0.06340   0.79441   0.19190   0.00000  Uiso   1.00
H692   H     0.27045   0.87353   0.30688   0.00000  Uiso   1.00
N693   N     0.04759   0.83334   0.25001   0.00000  Uiso   1.00
N694   N     0.28574   0.83332   0.24999   0.00000  Uiso   1.00
O695   O     0.12846   0.89442   0.25001   0.00000  Uiso   1.00
O696   O     0.20488   0.77225   0.24999   0.00000  Uiso   1.00
O697   O     0.20490   0.89441   0.25000   0.00000  Uiso   1.00
O698   O     0.12843   0.77226   0.25000   0.00000  Uiso   1.00
O699   O     0.10661   0.83334   0.31613   0.00000  Uiso   1.00
O700   O     0.22672   0.83333   0.18387   0.00000  Uiso   1.00
O701   O     0.18305   0.83333   0.31612   0.00000  Uiso   1.00
O702   O     0.15028   0.83334   0.18388   0.00000  Uiso   1.00
Zn703  Zn    0.11562   0.83334   0.25000   0.00000  Uiso   1.00
Zn704  Zn    0.21771   0.83333   0.25000   0.00000  Uiso   1.00
C705   C     0.14957   0.86092   0.09538   0.00000  Uiso   1.00
H706   H     0.14311   0.87058   0.06282   0.00000  Uiso   1.00
H707   H     0.11446   0.85701   0.12401   0.00000  Uiso   1.00
H708   H     0.16974   0.88687   0.10285   0.00000  Uiso   1.00
C709   C     0.20233   0.83545   0.39559   0.00000  Uiso   1.00
H710   H     0.21705   0.84114   0.42370   0.00000  Uiso   1.00
H711   H     0.22672   0.81374   0.37061   0.00000  Uiso   1.00
H712   H     0.20260   0.86656   0.37869   0.00000  Uiso   1.00
O713   O     0.00139   0.81729   0.48458   0.00000  Uiso   1.00
C714   C     0.31437   0.85732   0.48407   0.00000  Uiso   1.00
H715   H     0.27609   0.85288   0.48734   0.00000  Uiso   1.00
H716   H     0.33134   0.87560   0.45098   0.00000  Uiso   1.00
C717   C     0.31597   0.88195   0.02556   0.00000  Uiso   1.00
H718   H     0.30257   0.86233   0.05794   0.00000  Uiso   1.00
H719   H     0.02043   0.89096   0.02000   0.00000  Uiso   1.00
C720   C     0.28471   0.92090   0.03189   0.00000  Uiso   1.00
H721   H     0.29752   0.94157   0.00029   0.00000  Uiso   1.00
H722   H     0.28633   0.93798   0.06228   0.00000  Uiso   1.00
H723   H     0.24671   0.91210   0.03836   0.00000  Uiso   1.00
O724   O     0.30195   0.74550   0.03903   0.00000  Uiso   1.00
C725   C     0.29837   0.70671   0.06299   0.00000  Uiso   1.00
H726   H     0.27840   0.68453   0.04923   0.00000  Uiso   1.00
H727   H     0.27939   0.70883   0.10134   0.00000  Uiso   1.00
C728   C     0.01567   0.68968   0.05581   0.00000  Uiso   1.00
H729   H     0.03507   0.71141   0.07069   0.00000  Uiso   1.00
H730   H     0.01265   0.99253   0.07478   0.00000  Uiso   1.00
C731   C     0.04499   0.68398   0.00440   0.00000  Uiso   1.00
H732   H     0.02610   0.99610   0.48853   0.00000  Uiso   1.00
H733   H     0.08068   0.67029   0.00119   0.00000  Uiso   1.00
H734   H     0.05090   0.71441   0.48508   0.00000  Uiso   1.00
O735   O     0.23440   0.70368   0.28113   0.00000  Uiso   1.00
C736   C     0.27744   0.70966   0.24237   0.00000  Uiso   1.00
H737   H     0.29976   0.73222   0.25262   0.00000  Uiso   1.00
H738   H     0.27049   0.72356   0.21136   0.00000  Uiso   1.00
C739   C     0.30693   0.66951   0.22861   0.00000  Uiso   1.00
H740   H     0.31624   0.98992   0.25862   0.00000  Uiso   1.00
H741   H     0.28626   0.97929   0.21770   0.00000  Uiso   1.00
C742   C     0.01946   0.67807   0.18742   0.00000  Uiso   1.00
H743   H     0.01071   0.69196   0.15754   0.00000  Uiso   1.00
H744   H     0.03892   0.98173   0.17631   0.00000  Uiso   1.00
H745   H     0.04273   0.69983   0.19745   0.00000  Uiso   1.00
O746   O     0.11058   0.96258   0.20561   0.00000  Uiso   1.00
C747   C     0.13905   0.95714   0.15826   0.00000  Uiso   1.00
H748   H     0.11759   0.93748   0.14357   0.00000  Uiso   1.00
H749   H     0.17310   0.93997   0.15479   0.00000  Uiso   1.00
C750   C     0.15024   0.99847   0.12956   0.00000  Uiso   1.00
H751   H     0.11776   0.68523   0.13875   0.00000  Uiso   1.00
H752   H     0.17911   0.68198   0.13722   0.00000  Uiso   1.00
C753   C     0.16704   0.99132   0.07735   0.00000  Uiso   1.00
H754   H     0.20054   0.97252   0.06670   0.00000  Uiso   1.00
H755   H     0.17452   0.68838   0.05800   0.00000  Uiso   1.00
H756   H     0.13875   0.97509   0.06815   0.00000  Uiso   1.00
C757   C     0.49985   0.91332   0.24939   0.00000  Uiso   1.00
C758   C     0.50026   0.75328   0.25058   0.00000  Uiso   1.00
C759   C     0.43189   0.79900   0.05760   0.00000  Uiso   1.00
C760   C     0.54011   0.76663   0.46295   0.00000  Uiso   1.00
C761   C     0.39897   0.80304   0.03425   0.00000  Uiso   1.00
C762   C     0.57064   0.75674   0.48815   0.00000  Uiso   1.00
C763   C     0.52886   0.97662   0.26960   0.00000  Uiso   1.00
C764   C     0.46993   0.68976   0.23215   0.00000  Uiso   1.00
C765   C     0.53337   0.68578   0.26640   0.00000  Uiso   1.00
C766   C     0.47128   0.98065   0.22845   0.00000  Uiso   1.00
C767   C     0.50136   0.70909   0.25010   0.00000  Uiso   1.00
C768   C     0.49933   0.95740   0.24939   0.00000  Uiso   1.00
C769   C     0.65463   0.81204   0.21745   0.00000  Uiso   1.00
C770   C     0.34561   0.85535   0.28192   0.00000  Uiso   1.00
C771   C     0.36917   0.81180   0.21765   0.00000  Uiso   1.00
C772   C     0.63107   0.85546   0.28178   0.00000  Uiso   1.00
C773   C     0.47040   0.83260   0.33829   0.00000  Uiso   1.00
C774   C     0.52950   0.83123   0.16215   0.00000  Uiso   1.00
C775   C     0.45255   0.82602   0.38932   0.00000  Uiso   1.00
C776   C     0.54471   0.81630   0.11456   0.00000  Uiso   1.00
C777   C     0.38405   0.81786   0.46145   0.00000  Uiso   1.00
C778   C     0.59277   0.76753   0.05748   0.00000  Uiso   1.00
C779   C     0.40263   0.82402   0.41307   0.00000  Uiso   1.00
C780   C     0.58410   0.78903   0.09877   0.00000  Uiso   1.00
C781   C     0.48456   0.81855   0.41419   0.00000  Uiso   1.00
C782   C     0.51311   0.82158   0.08944   0.00000  Uiso   1.00
C783   C     0.46578   0.80272   0.46045   0.00000  Uiso   1.00
C784   C     0.51695   0.79476   0.05303   0.00000  Uiso   1.00
C785   C     0.41571   0.80717   0.48544   0.00000  Uiso   1.00
C786   C     0.56027   0.77218   0.03302   0.00000  Uiso   1.00
C787   C     0.49599   0.78746   0.48454   0.00000  Uiso   1.00
C788   C     0.48129   0.79376   0.03233   0.00000  Uiso   1.00
H789   H     0.36111   0.80617   0.05455   0.00000  Uiso   1.00
H790   H     0.60374   0.73984   0.47133   0.00000  Uiso   1.00
H791   H     0.60840   0.78458   0.11821   0.00000  Uiso   1.00
H792   H     0.37767   0.82858   0.39436   0.00000  Uiso   1.00
H793   H     0.41870   0.79909   0.09531   0.00000  Uiso   1.00
H794   H     0.55037   0.75723   0.42717   0.00000  Uiso   1.00
H795   H     0.55054   0.95864   0.28576   0.00000  Uiso   1.00
H796   H     0.44637   0.70770   0.21827   0.00000  Uiso   1.00
H797   H     0.64606   0.79500   0.19141   0.00000  Uiso   1.00
H798   H     0.35439   0.87299   0.30743   0.00000  Uiso   1.00
H799   H     0.39673   0.79441   0.19190   0.00000  Uiso   1.00
H800   H     0.60378   0.87353   0.30688   0.00000  Uiso   1.00
N801   N     0.38093   0.83334   0.25001   0.00000  Uiso   1.00
N802   N     0.61907   0.83332   0.24999   0.00000  Uiso   1.00
O803   O     0.46179   0.89442   0.25001   0.00000  Uiso   1.00
O804   O     0.53821   0.77225   0.24999   0.00000  Uiso   1.00
O805   O     0.53823   0.89441   0.25000   0.00000  Uiso   1.00
O806   O     0.46177   0.77226   0.25000   0.00000  Uiso   1.00
O807   O     0.43994   0.83334   0.31613   0.00000  Uiso   1.00
O808   O     0.56006   0.83333   0.18387   0.00000  Uiso   1.00
O809   O     0.51639   0.83333   0.31612   0.00000  Uiso   1.00
O810   O     0.48361   0.83334   0.18388   0.00000  Uiso   1.00
Zn811  Zn    0.44896   0.83334   0.25000   0.00000  Uiso   1.00
Zn812  Zn    0.55104   0.83333   0.25000   0.00000  Uiso   1.00
C813   C     0.48290   0.86092   0.09538   0.00000  Uiso   1.00
H814   H     0.47644   0.87058   0.06282   0.00000  Uiso   1.00
H815   H     0.44780   0.85701   0.12401   0.00000  Uiso   1.00
H816   H     0.50307   0.88687   0.10285   0.00000  Uiso   1.00
C817   C     0.53567   0.83545   0.39559   0.00000  Uiso   1.00
H818   H     0.55038   0.84114   0.42370   0.00000  Uiso   1.00
H819   H     0.56006   0.81374   0.37061   0.00000  Uiso   1.00
H820   H     0.53593   0.86656   0.37869   0.00000  Uiso   1.00
O821   O     0.33472   0.81729   0.48458   0.00000  Uiso   1.00
C822   C     0.64770   0.85732   0.48407   0.00000  Uiso   1.00
H823   H     0.60942   0.85288   0.48734   0.00000  Uiso   1.00
H824   H     0.66467   0.87560   0.45098   0.00000  Uiso   1.00
C825   C     0.64931   0.88195   0.02556   0.00000  Uiso   1.00
H826   H     0.63591   0.86233   0.05794   0.00000  Uiso   1.00
H827   H     0.35376   0.89096   0.02000   0.00000  Uiso   1.00
C828   C     0.61804   0.92090   0.03189   0.00000  Uiso   1.00
H829   H     0.63085   0.94157   0.00029   0.00000  Uiso   1.00
H830   H     0.61966   0.93798   0.06228   0.00000  Uiso   1.00
H831   H     0.58004   0.91210   0.03836   0.00000  Uiso   1.00
O832   O     0.63528   0.74550   0.03903   0.00000  Uiso   1.00
C833   C     0.63171   0.70671   0.06299   0.00000  Uiso   1.00
H834   H     0.61174   0.68453   0.04923   0.00000  Uiso   1.00
H835   H     0.61272   0.70883   0.10134   0.00000  Uiso   1.00
C836   C     0.34900   0.68968   0.05581   0.00000  Uiso   1.00
H837   H     0.36840   0.71141   0.07069   0.00000  Uiso   1.00
H838   H     0.34599   0.99253   0.07478   0.00000  Uiso   1.00
C839   C     0.37832   0.68398   0.00440   0.00000  Uiso   1.00
H840   H     0.35943   0.99610   0.48853   0.00000  Uiso   1.00
H841   H     0.41401   0.67029   0.00119   0.00000  Uiso   1.00
H842   H     0.38424   0.71441   0.48508   0.00000  Uiso   1.00
O843   O     0.56774   0.70368   0.28113   0.00000  Uiso   1.00
C844   C     0.61077   0.70966   0.24237   0.00000  Uiso   1.00
H845   H     0.63309   0.73222   0.25262   0.00000  Uiso   1.00
H846   H     0.60383   0.72356   0.21136   0.00000  Uiso   1.00
C847   C     0.64027   0.66951   0.22861   0.00000  Uiso   1.00
H848   H     0.64957   0.98992   0.25862   0.00000  Uiso   1.00
H849   H     0.61960   0.97929   0.21770   0.00000  Uiso   1.00
C850   C     0.35279   0.67807   0.18742   0.00000  Uiso   1.00
H851   H     0.34404   0.69196   0.15754   0.00000  Uiso   1.00
H852   H     0.37225   0.98173   0.17631   0.00000  Uiso   1.00
H853   H     0.37606   0.69983   0.19745   0.00000  Uiso   1.00
O854   O     0.44392   0.96258   0.20561   0.00000  Uiso   1.00
C855   C     0.47238   0.95714   0.15826   0.00000  Uiso   1.00
H856   H     0.45092   0.93748   0.14357   0.00000  Uiso   1.00
H857   H     0.50644   0.93997   0.15479   0.00000  Uiso   1.00
C858   C     0.48358   0.99847   0.12956   0.00000  Uiso   1.00
H859   H     0.45109   0.68523   0.13875   0.00000  Uiso   1.00
H860   H     0.51244   0.68198   0.13722   0.00000  Uiso   1.00
C861   C     0.50037   0.99132   0.07735   0.00000  Uiso   1.00
H862   H     0.53387   0.97252   0.06670   0.00000  Uiso   1.00
H863   H     0.50785   0.68838   0.05800   0.00000  Uiso   1.00
H864   H     0.47208   0.97509   0.06815   0.00000  Uiso   1.00
C865   C     0.83318   0.91332   0.24939   0.00000  Uiso   1.00
C866   C     0.83359   0.75328   0.25058   0.00000  Uiso   1.00
C867   C     0.76522   0.79900   0.05760   0.00000  Uiso   1.00
C868   C     0.87344   0.76663   0.46295   0.00000  Uiso   1.00
C869   C     0.73230   0.80304   0.03425   0.00000  Uiso   1.00
C870   C     0.90398   0.75674   0.48815   0.00000  Uiso   1.00
C871   C     0.86219   0.97662   0.26960   0.00000  Uiso   1.00
C872   C     0.80326   0.68976   0.23215   0.00000  Uiso   1.00
C873   C     0.86670   0.68578   0.26640   0.00000  Uiso   1.00
C874   C     0.80461   0.98065   0.22845   0.00000  Uiso   1.00
C875   C     0.83469   0.70909   0.25010   0.00000  Uiso   1.00
C876   C     0.83266   0.95740   0.24939   0.00000  Uiso   1.00
C877   C     0.98797   0.81204   0.21745   0.00000  Uiso   1.00
C878   C     0.67894   0.85535   0.28192   0.00000  Uiso   1.00
C879   C     0.70250   0.81180   0.21765   0.00000  Uiso   1.00
C880   C     0.96440   0.85546   0.28178   0.00000  Uiso   1.00
C881   C     0.80373   0.83260   0.33829   0.00000  Uiso   1.00
C882   C     0.86283   0.83123   0.16215   0.00000  Uiso   1.00
C883   C     0.78588   0.82602   0.38932   0.00000  Uiso   1.00
C884   C     0.87804   0.81630   0.11456   0.00000  Uiso   1.00
C885   C     0.71738   0.81786   0.46145   0.00000  Uiso   1.00
C886   C     0.92611   0.76753   0.05748   0.00000  Uiso   1.00
C887   C     0.73597   0.82402   0.41307   0.00000  Uiso   1.00
C888   C     0.91743   0.78903   0.09877   0.00000  Uiso   1.00
C889   C     0.81789   0.81855   0.41419   0.00000  Uiso   1.00
C890   C     0.84645   0.82158   0.08944   0.00000  Uiso   1.00
C891   C     0.79911   0.80272   0.46045   0.00000  Uiso   1.00
C892   C     0.85028   0.79476   0.05303   0.00000  Uiso   1.00
C893   C     0.74904   0.80717   0.48544   0.00000  Uiso   1.00
C894   C     0.89360   0.77218   0.03302   0.00000  Uiso   1.00
C895   C     0.82933   0.78746   0.48454   0.00000  Uiso   1.00
C896   C     0.81463   0.79376   0.03233   0.00000  Uiso   1.00
H897   H     0.69445   0.80617   0.05455   0.00000  Uiso   1.00
H898   H     0.93707   0.73984   0.47133   0.00000  Uiso   1.00
H899   H     0.94173   0.78458   0.11821   0.00000  Uiso   1.00
H900   H     0.71100   0.82858   0.39436   0.00000  Uiso   1.00
H901   H     0.75204   0.79909   0.09531   0.00000  Uiso   1.00
H902   H     0.88371   0.75723   0.42717   0.00000  Uiso   1.00
H903   H     0.88387   0.95864   0.28576   0.00000  Uiso   1.00
H904   H     0.77970   0.70770   0.21827   0.00000  Uiso   1.00
H905   H     0.97939   0.79500   0.19141   0.00000  Uiso   1.00
H906   H     0.68773   0.87299   0.30743   0.00000  Uiso   1.00
H907   H     0.73006   0.79441   0.19190   0.00000  Uiso   1.00
H908   H     0.93712   0.87353   0.30688   0.00000  Uiso   1.00
N909   N     0.71426   0.83334   0.25001   0.00000  Uiso   1.00
N910   N     0.95241   0.83332   0.24999   0.00000  Uiso   1.00
O911   O     0.79512   0.89442   0.25001   0.00000  Uiso   1.00
O912   O     0.87154   0.77225   0.24999   0.00000  Uiso   1.00
O913   O     0.87157   0.89441   0.25000   0.00000  Uiso   1.00
O914   O     0.79510   0.77226   0.25000   0.00000  Uiso   1.00
O915   O     0.77328   0.83334   0.31613   0.00000  Uiso   1.00
O916   O     0.89339   0.83333   0.18387   0.00000  Uiso   1.00
O917   O     0.84972   0.83333   0.31612   0.00000  Uiso   1.00
O918   O     0.81695   0.83334   0.18388   0.00000  Uiso   1.00
Zn919  Zn    0.78229   0.83334   0.25000   0.00000  Uiso   1.00
Zn920  Zn    0.88438   0.83333   0.25000   0.00000  Uiso   1.00
C921   C     0.81624   0.86092   0.09538   0.00000  Uiso   1.00
H922   H     0.80977   0.87058   0.06282   0.00000  Uiso   1.00
H923   H     0.78113   0.85701   0.12401   0.00000  Uiso   1.00
H924   H     0.83641   0.88687   0.10285   0.00000  Uiso   1.00
C925   C     0.86900   0.83545   0.39559   0.00000  Uiso   1.00
H926   H     0.88372   0.84114   0.42370   0.00000  Uiso   1.00
H927   H     0.89339   0.81374   0.37061   0.00000  Uiso   1.00
H928   H     0.86926   0.86656   0.37869   0.00000  Uiso   1.00
O929   O     0.66806   0.81729   0.48458   0.00000  Uiso   1.00
C930   C     0.98103   0.85732   0.48407   0.00000  Uiso   1.00
H931   H     0.94276   0.85288   0.48734   0.00000  Uiso   1.00
H932   H     0.99800   0.87560   0.45098   0.00000  Uiso   1.00
C933   C     0.98264   0.88195   0.02556   0.00000  Uiso   1.00
H934   H     0.96924   0.86233   0.05794   0.00000  Uiso   1.00
H935   H     0.68710   0.89096   0.02000   0.00000  Uiso   1.00
C936   C     0.95137   0.92090   0.03189   0.00000  Uiso   1.00
H937   H     0.96419   0.94157   0.00029   0.00000  Uiso   1.00
H938   H     0.95299   0.93798   0.06228   0.00000  Uiso   1.00
H939   H     0.91338   0.91210   0.03836   0.00000  Uiso   1.00
O940   O     0.96861   0.74550   0.03903   0.00000  Uiso   1.00
C941   C     0.96504   0.70671   0.06299   0.00000  Uiso   1.00
H942   H     0.94507   0.68453   0.04923   0.00000  Uiso   1.00
H943   H     0.94606   0.70883   0.10134   0.00000  Uiso   1.00
C944   C     0.68234   0.68968   0.05581   0.00000  Uiso   1.00
H945   H     0.70173   0.71141   0.07069   0.00000  Uiso   1.00
H946   H     0.67932   0.99253   0.07478   0.00000  Uiso   1.00
C947   C     0.71165   0.68398   0.00440   0.00000  Uiso   1.00
H948   H     0.69277   0.99610   0.48853   0.00000  Uiso   1.00
H949   H     0.74735   0.67029   0.00119   0.00000  Uiso   1.00
H950   H     0.71757   0.71441   0.48508   0.00000  Uiso   1.00
O951   O     0.90107   0.70368   0.28113   0.00000  Uiso   1.00
C952   C     0.94411   0.70966   0.24237   0.00000  Uiso   1.00
H953   H     0.96642   0.73222   0.25262   0.00000  Uiso   1.00
H954   H     0.93716   0.72356   0.21136   0.00000  Uiso   1.00
C955   C     0.97360   0.66951   0.22861   0.00000  Uiso   1.00
H956   H     0.98290   0.98992   0.25862   0.00000  Uiso   1.00
H957   H     0.95293   0.97929   0.21770   0.00000  Uiso   1.00
C958   C     0.68612   0.67807   0.18742   0.00000  Uiso   1.00
H959   H     0.67737   0.69196   0.15754   0.00000  Uiso   1.00
H960   H     0.70559   0.98173   0.17631   0.00000  Uiso   1.00
H961   H     0.70940   0.69983   0.19745   0.00000  Uiso   1.00
O962   O     0.77725   0.96258   0.20561   0.00000  Uiso   1.00
C963   C     0.80571   0.95714   0.15826   0.00000  Uiso   1.00
H964   H     0.78425   0.93748   0.14357   0.00000  Uiso   1.00
H965   H     0.83977   0.93997   0.15479   0.00000  Uiso   1.00
C966   C     0.81691   0.99847   0.12956   0.00000  Uiso   1.00
H967   H     0.78442   0.68523   0.13875   0.00000  Uiso   1.00
H968   H     0.84578   0.68198   0.13722   0.00000  Uiso   1.00
C969   C     0.83370   0.99132   0.07735   0.00000  Uiso   1.00
H970   H     0.86721   0.97252   0.06670   0.00000  Uiso   1.00
H971   H     0.84119   0.68838   0.05800   0.00000  Uiso   1.00
H972   H     0.80542   0.97509   0.06815   0.00000  Uiso   1.00
C973   C     0.16651   0.24665   0.74939   0.00000  Uiso   1.00
C974   C     0.16693   0.08661   0.75058   0.00000  Uiso   1.00
C975   C     0.09856   0.13233   0.55760   0.00000  Uiso   1.00
C976   C     0.20677   0.09997   0.96295   0.00000  Uiso   1.00
C977   C     0.06564   0.13637   0.53425   0.00000  Uiso   1.00
C978   C     0.23731   0.09007   0.98815   0.00000  Uiso   1.00
C979   C     0.19552   0.30996   0.76960   0.00000  Uiso   1.00
C980   C     0.13660   0.02309   0.73215   0.00000  Uiso   1.00
C981   C     0.20004   0.01911   0.76640   0.00000  Uiso   1.00
C982   C     0.13795   0.31398   0.72845   0.00000  Uiso   1.00
C983   C     0.16802   0.04243   0.75010   0.00000  Uiso   1.00
C984   C     0.16599   0.29073   0.74939   0.00000  Uiso   1.00
C985   C     0.32130   0.14537   0.71745   0.00000  Uiso   1.00
C986   C     0.01228   0.18868   0.78192   0.00000  Uiso   1.00
C987   C     0.03583   0.14513   0.71765   0.00000  Uiso   1.00
C988   C     0.29773   0.18880   0.78178   0.00000  Uiso   1.00
C989   C     0.13707   0.16593   0.83829   0.00000  Uiso   1.00
C990   C     0.19616   0.16457   0.66215   0.00000  Uiso   1.00
C991   C     0.11921   0.15935   0.88932   0.00000  Uiso   1.00
C992   C     0.21138   0.14963   0.61456   0.00000  Uiso   1.00
C993   C     0.05072   0.15120   0.96145   0.00000  Uiso   1.00
C994   C     0.25944   0.10086   0.55748   0.00000  Uiso   1.00
C995   C     0.06930   0.15736   0.91307   0.00000  Uiso   1.00
C996   C     0.25076   0.12236   0.59877   0.00000  Uiso   1.00
C997   C     0.15123   0.15188   0.91419   0.00000  Uiso   1.00
C998   C     0.17978   0.15492   0.58944   0.00000  Uiso   1.00
C999   C     0.13245   0.13605   0.96045   0.00000  Uiso   1.00
C1000  C     0.18362   0.12810   0.55303   0.00000  Uiso   1.00
C1001  C     0.08238   0.14051   0.98544   0.00000  Uiso   1.00
C1002  C     0.22693   0.10552   0.53302   0.00000  Uiso   1.00
C1003  C     0.16266   0.12080   0.98454   0.00000  Uiso   1.00
C1004  C     0.14796   0.12709   0.53233   0.00000  Uiso   1.00
H1005  H     0.02778   0.13950   0.55455   0.00000  Uiso   1.00
H1006  H     0.27040   0.07317   0.97133   0.00000  Uiso   1.00
H1007  H     0.27507   0.11792   0.61821   0.00000  Uiso   1.00
H1008  H     0.04433   0.16191   0.89436   0.00000  Uiso   1.00
H1009  H     0.08537   0.13243   0.59531   0.00000  Uiso   1.00
H1010  H     0.21704   0.09056   0.92717   0.00000  Uiso   1.00
H1011  H     0.21721   0.29197   0.78576   0.00000  Uiso   1.00
H1012  H     0.11303   0.04103   0.71827   0.00000  Uiso   1.00
H1013  H     0.31273   0.12833   0.69141   0.00000  Uiso   1.00
H1014  H     0.02106   0.20632   0.80743   0.00000  Uiso   1.00
H1015  H     0.06340   0.12774   0.69190   0.00000  Uiso   1.00
H1016  H     0.27045   0.20686   0.80688   0.00000  Uiso   1.00
N1017  N     0.04759   0.16668   0.75001   0.00000  Uiso   1.00
N1018  N     0.28574   0.16666   0.74999   0.00000  Uiso   1.00
O1019  O     0.12846   0.22775   0.75001   0.00000  Uiso   1.00
O1020  O     0.20488   0.10558   0.74999   0.00000  Uiso   1.00
O1021  O     0.20490   0.22774   0.75000   0.00000  Uiso   1.00
O1022  O     0.12843   0.10559   0.75000   0.00000  Uiso   1.00
O1023  O     0.10661   0.16667   0.81613   0.00000  Uiso   1.00
O1024  O     0.22672   0.16666   0.68387   0.00000  Uiso   1.00
O1025  O     0.18305   0.16666   0.81612   0.00000  Uiso   1.00
O1026  O     0.15028   0.16667   0.68388   0.00000  Uiso   1.00
Zn1027 Zn    0.11562   0.16667   0.75000   0.00000  Uiso   1.00
Zn1028 Zn    0.21771   0.16666   0.75000   0.00000  Uiso   1.00
C1029  C     0.14957   0.19426   0.59538   0.00000  Uiso   1.00
H1030  H     0.14311   0.20391   0.56282   0.00000  Uiso   1.00
H1031  H     0.11446   0.19035   0.62401   0.00000  Uiso   1.00
H1032  H     0.16974   0.22021   0.60285   0.00000  Uiso   1.00
C1033  C     0.20233   0.16878   0.89559   0.00000  Uiso   1.00
H1034  H     0.21705   0.17447   0.92370   0.00000  Uiso   1.00
H1035  H     0.22672   0.14707   0.87061   0.00000  Uiso   1.00
H1036  H     0.20260   0.19989   0.87869   0.00000  Uiso   1.00
O1037  O     0.00139   0.15063   0.98458   0.00000  Uiso   1.00
C1038  C     0.31437   0.19066   0.98407   0.00000  Uiso   1.00
H1039  H     0.27609   0.18621   0.98734   0.00000  Uiso   1.00
H1040  H     0.33134   0.20893   0.95098   0.00000  Uiso   1.00
C1041  C     0.31597   0.21528   0.52556   0.00000  Uiso   1.00
H1042  H     0.30257   0.19567   0.55794   0.00000  Uiso   1.00
H1043  H     0.02043   0.22429   0.52000   0.00000  Uiso   1.00
C1044  C     0.28471   0.25423   0.53189   0.00000  Uiso   1.00
H1045  H     0.29752   0.27490   0.50029   0.00000  Uiso   1.00
H1046  H     0.28633   0.27131   0.56228   0.00000  Uiso   1.00
H1047  H     0.24671   0.24543   0.53836   0.00000  Uiso   1.00
O1048  O     0.30195   0.07883   0.53903   0.00000  Uiso   1.00
C1049  C     0.29837   0.04004   0.56299   0.00000  Uiso   1.00
H1050  H     0.27840   0.01787   0.54923   0.00000  Uiso   1.00
H1051  H     0.27939   0.04217   0.60134   0.00000  Uiso   1.00
C1052  C     0.01567   0.02302   0.55581   0.00000  Uiso   1.00
H1053  H     0.03507   0.04474   0.57069   0.00000  Uiso   1.00
H1054  H     0.01265   0.32587   0.57478   0.00000  Uiso   1.00
C1055  C     0.04499   0.01731   0.50440   0.00000  Uiso   1.00
H1056  H     0.02610   0.32944   0.98853   0.00000  Uiso   1.00
H1057  H     0.08068   0.00363   0.50119   0.00000  Uiso   1.00
H1058  H     0.05090   0.04774   0.98508   0.00000  Uiso   1.00
O1059  O     0.23440   0.03701   0.78113   0.00000  Uiso   1.00
C1060  C     0.27744   0.04299   0.74237   0.00000  Uiso   1.00
H1061  H     0.29976   0.06555   0.75262   0.00000  Uiso   1.00
H1062  H     0.27049   0.05689   0.71136   0.00000  Uiso   1.00
C1063  C     0.30693   0.00285   0.72861   0.00000  Uiso   1.00
H1064  H     0.31624   0.32325   0.75862   0.00000  Uiso   1.00
H1065  H     0.28626   0.31262   0.71770   0.00000  Uiso   1.00
C1066  C     0.01946   0.01140   0.68742   0.00000  Uiso   1.00
H1067  H     0.01071   0.02529   0.65754   0.00000  Uiso   1.00
H1068  H     0.03892   0.31506   0.67631   0.00000  Uiso   1.00
H1069  H     0.04273   0.03316   0.69745   0.00000  Uiso   1.00
O1070  O     0.11058   0.29591   0.70561   0.00000  Uiso   1.00
C1071  C     0.13905   0.29048   0.65826   0.00000  Uiso   1.00
H1072  H     0.11759   0.27082   0.64357   0.00000  Uiso   1.00
H1073  H     0.17310   0.27330   0.65479   0.00000  Uiso   1.00
C1074  C     0.15024   0.33180   0.62956   0.00000  Uiso   1.00
H1075  H     0.11776   0.01857   0.63875   0.00000  Uiso   1.00
H1076  H     0.17911   0.01531   0.63722   0.00000  Uiso   1.00
C1077  C     0.16704   0.32466   0.57735   0.00000  Uiso   1.00
H1078  H     0.20054   0.30585   0.56670   0.00000  Uiso   1.00
H1079  H     0.17452   0.02171   0.55800   0.00000  Uiso   1.00
H1080  H     0.13875   0.30843   0.56815   0.00000  Uiso   1.00
C1081  C     0.49985   0.24665   0.74939   0.00000  Uiso   1.00
C1082  C     0.50026   0.08661   0.75058   0.00000  Uiso   1.00
C1083  C     0.43189   0.13233   0.55760   0.00000  Uiso   1.00
C1084  C     0.54011   0.09997   0.96295   0.00000  Uiso   1.00
C1085  C     0.39897   0.13637   0.53425   0.00000  Uiso   1.00
C1086  C     0.57064   0.09007   0.98815   0.00000  Uiso   1.00
C1087  C     0.52886   0.30996   0.76960   0.00000  Uiso   1.00
C1088  C     0.46993   0.02309   0.73215   0.00000  Uiso   1.00
C1089  C     0.53337   0.01911   0.76640   0.00000  Uiso   1.00
C1090  C     0.47128   0.31398   0.72845   0.00000  Uiso   1.00
C1091  C     0.50136   0.04243   0.75010   0.00000  Uiso   1.00
C1092  C     0.49933   0.29073   0.74939   0.00000  Uiso   1.00
C1093  C     0.65463   0.14537   0.71745   0.00000  Uiso   1.00
C1094  C     0.34561   0.18868   0.78192   0.00000  Uiso   1.00
C1095  C     0.36917   0.14513   0.71765   0.00000  Uiso   1.00
C1096  C     0.63107   0.18880   0.78178   0.00000  Uiso   1.00
C1097  C     0.47040   0.16593   0.83829   0.00000  Uiso   1.00
C1098  C     0.52950   0.16457   0.66215   0.00000  Uiso   1.00
C1099  C     0.45255   0.15935   0.88932   0.00000  Uiso   1.00
C1100  C     0.54471   0.14963   0.61456   0.00000  Uiso   1.00
C1101  C     0.38405   0.15120   0.96145   0.00000  Uiso   1.00
C1102  C     0.59277   0.10086   0.55748   0.00000  Uiso   1.00
C1103  C     0.40263   0.15736   0.91307   0.00000  Uiso   1.00
C1104  C     0.58410   0.12236   0.59877   0.00000  Uiso   1.00
C1105  C     0.48456   0.15188   0.91419   0.00000  Uiso   1.00
C1106  C     0.51311   0.15492   0.58944   0.00000  Uiso   1.00
C1107  C     0.46578   0.13605   0.96045   0.00000  Uiso   1.00
C1108  C     0.51695   0.12810   0.55303   0.00000  Uiso   1.00
C1109  C     0.41571   0.14051   0.98544   0.00000  Uiso   1.00
C1110  C     0.56027   0.10552   0.53302   0.00000  Uiso   1.00
C1111  C     0.49599   0.12080   0.98454   0.00000  Uiso   1.00
C1112  C     0.48129   0.12709   0.53233   0.00000  Uiso   1.00
H1113  H     0.36111   0.13950   0.55455   0.00000  Uiso   1.00
H1114  H     0.60374   0.07317   0.97133   0.00000  Uiso   1.00
H1115  H     0.60840   0.11792   0.61821   0.00000  Uiso   1.00
H1116  H     0.37767   0.16191   0.89436   0.00000  Uiso   1.00
H1117  H     0.41870   0.13243   0.59531   0.00000  Uiso   1.00
H1118  H     0.55037   0.09056   0.92717   0.00000  Uiso   1.00
H1119  H     0.55054   0.29197   0.78576   0.00000  Uiso   1.00
H1120  H     0.44637   0.04103   0.71827   0.00000  Uiso   1.00
H1121  H     0.64606   0.12833   0.69141   0.00000  Uiso   1.00
H1122  H     0.35439   0.20632   0.80743   0.00000  Uiso   1.00
H1123  H     0.39673   0.12774   0.69190   0.00000  Uiso   1.00
H1124  H     0.60378   0.20686   0.80688   0.00000  Uiso   1.00
N1125  N     0.38093   0.16668   0.75001   0.00000  Uiso   1.00
N1126  N     0.61907   0.16666   0.74999   0.00000  Uiso   1.00
O1127  O     0.46179   0.22775   0.75001   0.00000  Uiso   1.00
O1128  O     0.53821   0.10558   0.74999   0.00000  Uiso   1.00
O1129  O     0.53823   0.22774   0.75000   0.00000  Uiso   1.00
O1130  O     0.46177   0.10559   0.75000   0.00000  Uiso   1.00
O1131  O     0.43994   0.16667   0.81613   0.00000  Uiso   1.00
O1132  O     0.56006   0.16666   0.68387   0.00000  Uiso   1.00
O1133  O     0.51639   0.16666   0.81612   0.00000  Uiso   1.00
O1134  O     0.48361   0.16667   0.68388   0.00000  Uiso   1.00
Zn1135 Zn    0.44896   0.16667   0.75000   0.00000  Uiso   1.00
Zn1136 Zn    0.55104   0.16666   0.75000   0.00000  Uiso   1.00
C1137  C     0.48290   0.19426   0.59538   0.00000  Uiso   1.00
H1138  H     0.47644   0.20391   0.56282   0.00000  Uiso   1.00
H1139  H     0.44780   0.19035   0.62401   0.00000  Uiso   1.00
H1140  H     0.50307   0.22021   0.60285   0.00000  Uiso   1.00
C1141  C     0.53567   0.16878   0.89559   0.00000  Uiso   1.00
H1142  H     0.55038   0.17447   0.92370   0.00000  Uiso   1.00
H1143  H     0.56006   0.14707   0.87061   0.00000  Uiso   1.00
H1144  H     0.53593   0.19989   0.87869   0.00000  Uiso   1.00
O1145  O     0.33472   0.15063   0.98458   0.00000  Uiso   1.00
C1146  C     0.64770   0.19066   0.98407   0.00000  Uiso   1.00
H1147  H     0.60942   0.18621   0.98734   0.00000  Uiso   1.00
H1148  H     0.66467   0.20893   0.95098   0.00000  Uiso   1.00
C1149  C     0.64931   0.21528   0.52556   0.00000  Uiso   1.00
H1150  H     0.63591   0.19567   0.55794   0.00000  Uiso   1.00
H1151  H     0.35376   0.22429   0.52000   0.00000  Uiso   1.00
C1152  C     0.61804   0.25423   0.53189   0.00000  Uiso   1.00
H1153  H     0.63085   0.27490   0.50029   0.00000  Uiso   1.00
H1154  H     0.61966   0.27131   0.56228   0.00000  Uiso   1.00
H1155  H     0.58004   0.24543   0.53836   0.00000  Uiso   1.00
O1156  O     0.63528   0.07883   0.53903   0.00000  Uiso   1.00
C1157  C     0.63171   0.04004   0.56299   0.00000  Uiso   1.00
H1158  H     0.61174   0.01787   0.54923   0.00000  Uiso   1.00
H1159  H     0.61272   0.04217   0.60134   0.00000  Uiso   1.00
C1160  C     0.34900   0.02302   0.55581   0.00000  Uiso   1.00
H1161  H     0.36840   0.04474   0.57069   0.00000  Uiso   1.00
H1162  H     0.34599   0.32587   0.57478   0.00000  Uiso   1.00
C1163  C     0.37832   0.01731   0.50440   0.00000  Uiso   1.00
H1164  H     0.35943   0.32944   0.98853   0.00000  Uiso   1.00
H1165  H     0.41401   0.00363   0.50119   0.00000  Uiso   1.00
H1166  H     0.38424   0.04774   0.98508   0.00000  Uiso   1.00
O1167  O     0.56774   0.03701   0.78113   0.00000  Uiso   1.00
C1168  C     0.61077   0.04299   0.74237   0.00000  Uiso   1.00
H1169  H     0.63309   0.06555   0.75262   0.00000  Uiso   1.00
H1170  H     0.60383   0.05689   0.71136   0.00000  Uiso   1.00
C1171  C     0.64027   0.00285   0.72861   0.00000  Uiso   1.00
H1172  H     0.64957   0.32325   0.75862   0.00000  Uiso   1.00
H1173  H     0.61960   0.31262   0.71770   0.00000  Uiso   1.00
C1174  C     0.35279   0.01140   0.68742   0.00000  Uiso   1.00
H1175  H     0.34404   0.02529   0.65754   0.00000  Uiso   1.00
H1176  H     0.37225   0.31506   0.67631   0.00000  Uiso   1.00
H1177  H     0.37606   0.03316   0.69745   0.00000  Uiso   1.00
O1178  O     0.44392   0.29591   0.70561   0.00000  Uiso   1.00
C1179  C     0.47238   0.29048   0.65826   0.00000  Uiso   1.00
H1180  H     0.45092   0.27082   0.64357   0.00000  Uiso   1.00
H1181  H     0.50644   0.27330   0.65479   0.00000  Uiso   1.00
C1182  C     0.48358   0.33180   0.62956   0.00000  Uiso   1.00
H1183  H     0.45109   0.01857   0.63875   0.00000  Uiso   1.00
H1184  H     0.51244   0.01531   0.63722   0.00000  Uiso   1.00
C1185  C     0.50037   0.32466   0.57735   0.00000  Uiso   1.00
H1186  H     0.53387   0.30585   0.56670   0.00000  Uiso   1.00
H1187  H     0.50785   0.02171   0.55800   0.00000  Uiso   1.00
H1188  H     0.47208   0.30843   0.56815   0.00000  Uiso   1.00
C1189  C     0.83318   0.24665   0.74939   0.00000  Uiso   1.00
C1190  C     0.83359   0.08661   0.75058   0.00000  Uiso   1.00
C1191  C     0.76522   0.13233   0.55760   0.00000  Uiso   1.00
C1192  C     0.87344   0.09997   0.96295   0.00000  Uiso   1.00
C1193  C     0.73230   0.13637   0.53425   0.00000  Uiso   1.00
C1194  C     0.90398   0.09007   0.98815   0.00000  Uiso   1.00
C1195  C     0.86219   0.30996   0.76960   0.00000  Uiso   1.00
C1196  C     0.80326   0.02309   0.73215   0.00000  Uiso   1.00
C1197  C     0.86670   0.01911   0.76640   0.00000  Uiso   1.00
C1198  C     0.80461   0.31398   0.72845   0.00000  Uiso   1.00
C1199  C     0.83469   0.04243   0.75010   0.00000  Uiso   1.00
C1200  C     0.83266   0.29073   0.74939   0.00000  Uiso   1.00
C1201  C     0.98797   0.14537   0.71745   0.00000  Uiso   1.00
C1202  C     0.67894   0.18868   0.78192   0.00000  Uiso   1.00
C1203  C     0.70250   0.14513   0.71765   0.00000  Uiso   1.00
C1204  C     0.96440   0.18880   0.78178   0.00000  Uiso   1.00
C1205  C     0.80373   0.16593   0.83829   0.00000  Uiso   1.00
C1206  C     0.86283   0.16457   0.66215   0.00000  Uiso   1.00
C1207  C     0.78588   0.15935   0.88932   0.00000  Uiso   1.00
C1208  C     0.87804   0.14963   0.61456   0.00000  Uiso   1.00
C1209  C     0.71738   0.15120   0.96145   0.00000  Uiso   1.00
C1210  C     0.92611   0.10086   0.55748   0.00000  Uiso   1.00
C1211  C     0.73597   0.15736   0.91307   0.00000  Uiso   1.00
C1212  C     0.91743   0.12236   0.59877   0.00000  Uiso   1.00
C1213  C     0.81789   0.15188   0.91419   0.00000  Uiso   1.00
C1214  C     0.84645   0.15492   0.58944   0.00000  Uiso   1.00
C1215  C     0.79911   0.13605   0.96045   0.00000  Uiso   1.00
C1216  C     0.85028   0.12810   0.55303   0.00000  Uiso   1.00
C1217  C     0.74904   0.14051   0.98544   0.00000  Uiso   1.00
C1218  C     0.89360   0.10552   0.53302   0.00000  Uiso   1.00
C1219  C     0.82933   0.12080   0.98454   0.00000  Uiso   1.00
C1220  C     0.81463   0.12709   0.53233   0.00000  Uiso   1.00
H1221  H     0.69445   0.13950   0.55455   0.00000  Uiso   1.00
H1222  H     0.93707   0.07317   0.97133   0.00000  Uiso   1.00
H1223  H     0.94173   0.11792   0.61821   0.00000  Uiso   1.00
H1224  H     0.71100   0.16191   0.89436   0.00000  Uiso   1.00
H1225  H     0.75204   0.13243   0.59531   0.00000  Uiso   1.00
H1226  H     0.88371   0.09056   0.92717   0.00000  Uiso   1.00
H1227  H     0.88387   0.29197   0.78576   0.00000  Uiso   1.00
H1228  H     0.77970   0.04103   0.71827   0.00000  Uiso   1.00
H1229  H     0.97939   0.12833   0.69141   0.00000  Uiso   1.00
H1230  H     0.68773   0.20632   0.80743   0.00000  Uiso   1.00
H1231  H     0.73006   0.12774   0.69190   0.00000  Uiso   1.00
H1232  H     0.93712   0.20686   0.80688   0.00000  Uiso   1.00
N1233  N     0.71426   0.16668   0.75001   0.00000  Uiso   1.00
N1234  N     0.95241   0.16666   0.74999   0.00000  Uiso   1.00
O1235  O     0.79512   0.22775   0.75001   0.00000  Uiso   1.00
O1236  O     0.87154   0.10558   0.74999   0.00000  Uiso   1.00
O1237  O     0.87157   0.22774   0.75000   0.00000  Uiso   1.00
O1238  O     0.79510   0.10559   0.75000   0.00000  Uiso   1.00
O1239  O     0.77328   0.16667   0.81613   0.00000  Uiso   1.00
O1240  O     0.89339   0.16666   0.68387   0.00000  Uiso   1.00
O1241  O     0.84972   0.16666   0.81612   0.00000  Uiso   1.00
O1242  O     0.81695   0.16667   0.68388   0.00000  Uiso   1.00
Zn1243 Zn    0.78229   0.16667   0.75000   0.00000  Uiso   1.00
Zn1244 Zn    0.88438   0.16666   0.75000   0.00000  Uiso   1.00
C1245  C     0.81624   0.19426   0.59538   0.00000  Uiso   1.00
H1246  H     0.80977   0.20391   0.56282   0.00000  Uiso   1.00
H1247  H     0.78113   0.19035   0.62401   0.00000  Uiso   1.00
H1248  H     0.83641   0.22021   0.60285   0.00000  Uiso   1.00
C1249  C     0.86900   0.16878   0.89559   0.00000  Uiso   1.00
H1250  H     0.88372   0.17447   0.92370   0.00000  Uiso   1.00
H1251  H     0.89339   0.14707   0.87061   0.00000  Uiso   1.00
H1252  H     0.86926   0.19989   0.87869   0.00000  Uiso   1.00
O1253  O     0.66806   0.15063   0.98458   0.00000  Uiso   1.00
C1254  C     0.98103   0.19066   0.98407   0.00000  Uiso   1.00
H1255  H     0.94276   0.18621   0.98734   0.00000  Uiso   1.00
H1256  H     0.99800   0.20893   0.95098   0.00000  Uiso   1.00
C1257  C     0.98264   0.21528   0.52556   0.00000  Uiso   1.00
H1258  H     0.96924   0.19567   0.55794   0.00000  Uiso   1.00
H1259  H     0.68710   0.22429   0.52000   0.00000  Uiso   1.00
C1260  C     0.95137   0.25423   0.53189   0.00000  Uiso   1.00
H1261  H     0.96419   0.27490   0.50029   0.00000  Uiso   1.00
H1262  H     0.95299   0.27131   0.56228   0.00000  Uiso   1.00
H1263  H     0.91338   0.24543   0.53836   0.00000  Uiso   1.00
O1264  O     0.96861   0.07883   0.53903   0.00000  Uiso   1.00
C1265  C     0.96504   0.04004   0.56299   0.00000  Uiso   1.00
H1266  H     0.94507   0.01787   0.54923   0.00000  Uiso   1.00
H1267  H     0.94606   0.04217   0.60134   0.00000  Uiso   1.00
C1268  C     0.68234   0.02302   0.55581   0.00000  Uiso   1.00
H1269  H     0.70173   0.04474   0.57069   0.00000  Uiso   1.00
H1270  H     0.67932   0.32587   0.57478   0.00000  Uiso   1.00
C1271  C     0.71165   0.01731   0.50440   0.00000  Uiso   1.00
H1272  H     0.69277   0.32944   0.98853   0.00000  Uiso   1.00
H1273  H     0.74735   0.00363   0.50119   0.00000  Uiso   1.00
H1274  H     0.71757   0.04774   0.98508   0.00000  Uiso   1.00
O1275  O     0.90107   0.03701   0.78113   0.00000  Uiso   1.00
C1276  C     0.94411   0.04299   0.74237   0.00000  Uiso   1.00
H1277  H     0.96642   0.06555   0.75262   0.00000  Uiso   1.00
H1278  H     0.93716   0.05689   0.71136   0.00000  Uiso   1.00
C1279  C     0.97360   0.00285   0.72861   0.00000  Uiso   1.00
H1280  H     0.98290   0.32325   0.75862   0.00000  Uiso   1.00
H1281  H     0.95293   0.31262   0.71770   0.00000  Uiso   1.00
C1282  C     0.68612   0.01140   0.68742   0.00000  Uiso   1.00
H1283  H     0.67737   0.02529   0.65754   0.00000  Uiso   1.00
H1284  H     0.70559   0.31506   0.67631   0.00000  Uiso   1.00
H1285  H     0.70940   0.03316   0.69745   0.00000  Uiso   1.00
O1286  O     0.77725   0.29591   0.70561   0.00000  Uiso   1.00
C1287  C     0.80571   0.29048   0.65826   0.00000  Uiso   1.00
H1288  H     0.78425   0.27082   0.64357   0.00000  Uiso   1.00
H1289  H     0.83977   0.27330   0.65479   0.00000  Uiso   1.00
C1290  C     0.81691   0.33180   0.62956   0.00000  Uiso   1.00
H1291  H     0.78442   0.01857   0.63875   0.00000  Uiso   1.00
H1292  H     0.84578   0.01531   0.63722   0.00000  Uiso   1.00
C1293  C     0.83370   0.32466   0.57735   0.00000  Uiso   1.00
H1294  H     0.86721   0.30585   0.56670   0.00000  Uiso   1.00
H1295  H     0.84119   0.02171   0.55800   0.00000  Uiso   1.00
H1296  H     0.80542   0.30843   0.56815   0.00000  Uiso   1.00
C1297  C     0.16651   0.57999   0.74939   0.00000  Uiso   1.00
C1298  C     0.16693   0.41994   0.75058   0.00000  Uiso   1.00
C1299  C     0.09856   0.46566   0.55760   0.00000  Uiso   1.00
C1300  C     0.20677   0.43330   0.96295   0.00000  Uiso   1.00
C1301  C     0.06564   0.46970   0.53425   0.00000  Uiso   1.00
C1302  C     0.23731   0.42341   0.98815   0.00000  Uiso   1.00
C1303  C     0.19552   0.64329   0.76960   0.00000  Uiso   1.00
C1304  C     0.13660   0.35643   0.73215   0.00000  Uiso   1.00
C1305  C     0.20004   0.35245   0.76640   0.00000  Uiso   1.00
C1306  C     0.13795   0.64732   0.72845   0.00000  Uiso   1.00
C1307  C     0.16802   0.37576   0.75010   0.00000  Uiso   1.00
C1308  C     0.16599   0.62406   0.74939   0.00000  Uiso   1.00
C1309  C     0.32130   0.47871   0.71745   0.00000  Uiso   1.00
C1310  C     0.01228   0.52202   0.78192   0.00000  Uiso   1.00
C1311  C     0.03583   0.47847   0.71765   0.00000  Uiso   1.00
C1312  C     0.29773   0.52213   0.78178   0.00000  Uiso   1.00
C1313  C     0.13707   0.49927   0.83829   0.00000  Uiso   1.00
C1314  C     0.19616   0.49790   0.66215   0.00000  Uiso   1.00
C1315  C     0.11921   0.49268   0.88932   0.00000  Uiso   1.00
C1316  C     0.21138   0.48296   0.61456   0.00000  Uiso   1.00
C1317  C     0.05072   0.48453   0.96145   0.00000  Uiso   1.00
C1318  C     0.25944   0.43420   0.55748   0.00000  Uiso   1.00
C1319  C     0.06930   0.49069   0.91307   0.00000  Uiso   1.00
C1320  C     0.25076   0.45570   0.59877   0.00000  Uiso   1.00
C1321  C     0.15123   0.48522   0.91419   0.00000  Uiso   1.00
C1322  C     0.17978   0.48825   0.58944   0.00000  Uiso   1.00
C1323  C     0.13245   0.46939   0.96045   0.00000  Uiso   1.00
C1324  C     0.18362   0.46143   0.55303   0.00000  Uiso   1.00
C1325  C     0.08238   0.47384   0.98544   0.00000  Uiso   1.00
C1326  C     0.22693   0.43885   0.53302   0.00000  Uiso   1.00
C1327  C     0.16266   0.45413   0.98454   0.00000  Uiso   1.00
C1328  C     0.14796   0.46042   0.53233   0.00000  Uiso   1.00
H1329  H     0.02778   0.47284   0.55455   0.00000  Uiso   1.00
H1330  H     0.27040   0.40650   0.97133   0.00000  Uiso   1.00
H1331  H     0.27507   0.45125   0.61821   0.00000  Uiso   1.00
H1332  H     0.04433   0.49525   0.89436   0.00000  Uiso   1.00
H1333  H     0.08537   0.46576   0.59531   0.00000  Uiso   1.00
H1334  H     0.21704   0.42390   0.92717   0.00000  Uiso   1.00
H1335  H     0.21721   0.62530   0.78576   0.00000  Uiso   1.00
H1336  H     0.11303   0.37436   0.71827   0.00000  Uiso   1.00
H1337  H     0.31273   0.46166   0.69141   0.00000  Uiso   1.00
H1338  H     0.02106   0.53965   0.80743   0.00000  Uiso   1.00
H1339  H     0.06340   0.46108   0.69190   0.00000  Uiso   1.00
H1340  H     0.27045   0.54020   0.80688   0.00000  Uiso   1.00
N1341  N     0.04759   0.50001   0.75001   0.00000  Uiso   1.00
N1342  N     0.28574   0.49999   0.74999   0.00000  Uiso   1.00
O1343  O     0.12846   0.56108   0.75001   0.00000  Uiso   1.00
O1344  O     0.20488   0.43892   0.74999   0.00000  Uiso   1.00
O1345  O     0.20490   0.56107   0.75000   0.00000  Uiso   1.00
O1346  O     0.12843   0.43893   0.75000   0.00000  Uiso   1.00
O1347  O     0.10661   0.50001   0.81613   0.00000  Uiso   1.00
O1348  O     0.22672   0.49999   0.68387   0.00000  Uiso   1.00
O1349  O     0.18305   0.50000   0.81612   0.00000  Uiso   1.00
O1350  O     0.15028   0.50000   0.68388   0.00000  Uiso   1.00
Zn1351 Zn    0.11562   0.50001   0.75000   0.00000  Uiso   1.00
Zn1352 Zn    0.21771   0.49999   0.75000   0.00000  Uiso   1.00
C1353  C     0.14957   0.52759   0.59538   0.00000  Uiso   1.00
H1354  H     0.14311   0.53725   0.56282   0.00000  Uiso   1.00
H1355  H     0.11446   0.52368   0.62401   0.00000  Uiso   1.00
H1356  H     0.16974   0.55354   0.60285   0.00000  Uiso   1.00
C1357  C     0.20233   0.50212   0.89559   0.00000  Uiso   1.00
H1358  H     0.21705   0.50780   0.92370   0.00000  Uiso   1.00
H1359  H     0.22672   0.48041   0.87061   0.00000  Uiso   1.00
H1360  H     0.20260   0.53323   0.87869   0.00000  Uiso   1.00
O1361  O     0.00139   0.48396   0.98458   0.00000  Uiso   1.00
C1362  C     0.31437   0.52399   0.98407   0.00000  Uiso   1.00
H1363  H     0.27609   0.51955   0.98734   0.00000  Uiso   1.00
H1364  H     0.33134   0.54227   0.95098   0.00000  Uiso   1.00
C1365  C     0.31597   0.54861   0.52556   0.00000  Uiso   1.00
H1366  H     0.30257   0.52900   0.55794   0.00000  Uiso   1.00
H1367  H     0.02043   0.55763   0.52000   0.00000  Uiso   1.00
C1368  C     0.28471   0.58756   0.53189   0.00000  Uiso   1.00
H1369  H     0.29752   0.60823   0.50029   0.00000  Uiso   1.00
H1370  H     0.28633   0.60464   0.56228   0.00000  Uiso   1.00
H1371  H     0.24671   0.57877   0.53836   0.00000  Uiso   1.00
O1372  O     0.30195   0.41216   0.53903   0.00000  Uiso   1.00
C1373  C     0.29837   0.37338   0.56299   0.00000  Uiso   1.00
H1374  H     0.27840   0.35120   0.54923   0.00000  Uiso   1.00
H1375  H     0.27939   0.37550   0.60134   0.00000  Uiso   1.00
C1376  C     0.01567   0.35635   0.55581   0.00000  Uiso   1.00
H1377  H     0.03507   0.37807   0.57069   0.00000  Uiso   1.00
H1378  H     0.01265   0.65920   0.57478   0.00000  Uiso   1.00
C1379  C     0.04499   0.35065   0.50440   0.00000  Uiso   1.00
H1380  H     0.02610   0.66277   0.98853   0.00000  Uiso   1.00
H1381  H     0.08068   0.33696   0.50119   0.00000  Uiso   1.00
H1382  H     0.05090   0.38108   0.98508   0.00000  Uiso   1.00
O1383  O     0.23440   0.37035   0.78113   0.00000  Uiso   1.00
C1384  C     0.27744   0.37633   0.74237   0.00000  Uiso   1.00
H1385  H     0.29976   0.39889   0.75262   0.00000  Uiso   1.00
H1386  H     0.27049   0.39023   0.71136   0.00000  Uiso   1.00
C1387  C     0.30693   0.33618   0.72861   0.00000  Uiso   1.00
H1388  H     0.31624   0.65658   0.75862   0.00000  Uiso   1.00
H1389  H     0.28626   0.64596   0.71770   0.00000  Uiso   1.00
C1390  C     0.01946   0.34474   0.68742   0.00000  Uiso   1.00
H1391  H     0.01071   0.35863   0.65754   0.00000  Uiso   1.00
H1392  H     0.03892   0.64839   0.67631   0.00000  Uiso   1.00
H1393  H     0.04273   0.36650   0.69745   0.00000  Uiso   1.00
O1394  O     0.11058   0.62925   0.70561   0.00000  Uiso   1.00
C1395  C     0.13905   0.62381   0.65826   0.00000  Uiso   1.00
H1396  H     0.11759   0.60415   0.64357   0.00000  Uiso   1.00
H1397  H     0.17310   0.60663   0.65479   0.00000  Uiso   1.00
C1398  C     0.15024   0.66513   0.62956   0.00000  Uiso   1.00
H1399  H     0.11776   0.35190   0.63875   0.00000  Uiso   1.00
H1400  H     0.17911   0.34865   0.63722   0.00000  Uiso   1.00
C1401  C     0.16704   0.65799   0.57735   0.00000  Uiso   1.00
H1402  H     0.20054   0.63918   0.56670   0.00000  Uiso   1.00
H1403  H     0.17452   0.35504   0.55800   0.00000  Uiso   1.00
H1404  H     0.13875   0.64176   0.56815   0.00000  Uiso   1.00
C1405  C     0.49985   0.57999   0.74939   0.00000  Uiso   1.00
C1406  C     0.50026   0.41994   0.75058   0.00000  Uiso   1.00
C1407  C     0.43189   0.46566   0.55760   0.00000  Uiso   1.00
C1408  C     0.54011   0.43330   0.96295   0.00000  Uiso   1.00
C1409  C     0.39897   0.46970   0.53425   0.00000  Uiso   1.00
C1410  C     0.57064   0.42341   0.98815   0.00000  Uiso   1.00
C1411  C     0.52886   0.64329   0.76960   0.00000  Uiso   1.00
C1412  C     0.46993   0.35643   0.73215   0.00000  Uiso   1.00
C1413  C     0.53337   0.35245   0.76640   0.00000  Uiso   1.00
C1414  C     0.47128   0.64732   0.72845   0.00000  Uiso   1.00
C1415  C     0.50136   0.37576   0.75010   0.00000  Uiso   1.00
C1416  C     0.49933   0.62406   0.74939   0.00000  Uiso   1.00
C1417  C     0.65463   0.47871   0.71745   0.00000  Uiso   1.00
C1418  C     0.34561   0.52202   0.78192   0.00000  Uiso   1.00
C1419  C     0.36917   0.47847   0.71765   0.00000  Uiso   1.00
C1420  C     0.63107   0.52213   0.78178   0.00000  Uiso   1.00
C1421  C     0.47040   0.49927   0.83829   0.00000  Uiso   1.00
C1422  C     0.52950   0.49790   0.66215   0.00000  Uiso   1.00
C1423  C     0.45255   0.49268   0.88932   0.00000  Uiso   1.00
C1424  C     0.54471   0.48296   0.61456   0.00000  Uiso   1.00
C1425  C     0.38405   0.48453   0.96145   0.00000  Uiso   1.00
C1426  C     0.59277   0.43420   0.55748   0.00000  Uiso   1.00
C1427  C     0.40263   0.49069   0.91307   0.00000  Uiso   1.00
C1428  C     0.58410   0.45570   0.59877   0.00000  Uiso   1.00
C1429  C     0.48456   0.48522   0.91419   0.00000  Uiso   1.00
C1430  C     0.51311   0.48825   0.58944   0.00000  Uiso   1.00
C1431  C     0.46578   0.46939   0.96045   0.00000  Uiso   1.00
C1432  C     0.51695   0.46143   0.55303   0.00000  Uiso   1.00
C1433  C     0.41571   0.47384   0.98544   0.00000  Uiso   1.00
C1434  C     0.56027   0.43885   0.53302   0.00000  Uiso   1.00
C1435  C     0.49599   0.45413   0.98454   0.00000  Uiso   1.00
C1436  C     0.48129   0.46042   0.53233   0.00000  Uiso   1.00
H1437  H     0.36111   0.47284   0.55455   0.00000  Uiso   1.00
H1438  H     0.60374   0.40650   0.97133   0.00000  Uiso   1.00
H1439  H     0.60840   0.45125   0.61821   0.00000  Uiso   1.00
H1440  H     0.37767   0.49525   0.89436   0.00000  Uiso   1.00
H1441  H     0.41870   0.46576   0.59531   0.00000  Uiso   1.00
H1442  H     0.55037   0.42390   0.92717   0.00000  Uiso   1.00
H1443  H     0.55054   0.62530   0.78576   0.00000  Uiso   1.00
H1444  H     0.44637   0.37436   0.71827   0.00000  Uiso   1.00
H1445  H     0.64606   0.46166   0.69141   0.00000  Uiso   1.00
H1446  H     0.35439   0.53965   0.80743   0.00000  Uiso   1.00
H1447  H     0.39673   0.46108   0.69190   0.00000  Uiso   1.00
H1448  H     0.60378   0.54020   0.80688   0.00000  Uiso   1.00
N1449  N     0.38093   0.50001   0.75001   0.00000  Uiso   1.00
N1450  N     0.61907   0.49999   0.74999   0.00000  Uiso   1.00
O1451  O     0.46179   0.56108   0.75001   0.00000  Uiso   1.00
O1452  O     0.53821   0.43892   0.74999   0.00000  Uiso   1.00
O1453  O     0.53823   0.56107   0.75000   0.00000  Uiso   1.00
O1454  O     0.46177   0.43893   0.75000   0.00000  Uiso   1.00
O1455  O     0.43994   0.50001   0.81613   0.00000  Uiso   1.00
O1456  O     0.56006   0.49999   0.68387   0.00000  Uiso   1.00
O1457  O     0.51639   0.50000   0.81612   0.00000  Uiso   1.00
O1458  O     0.48361   0.50000   0.68388   0.00000  Uiso   1.00
Zn1459 Zn    0.44896   0.50001   0.75000   0.00000  Uiso   1.00
Zn1460 Zn    0.55104   0.49999   0.75000   0.00000  Uiso   1.00
C1461  C     0.48290   0.52759   0.59538   0.00000  Uiso   1.00
H1462  H     0.47644   0.53725   0.56282   0.00000  Uiso   1.00
H1463  H     0.44780   0.52368   0.62401   0.00000  Uiso   1.00
H1464  H     0.50307   0.55354   0.60285   0.00000  Uiso   1.00
C1465  C     0.53567   0.50212   0.89559   0.00000  Uiso   1.00
H1466  H     0.55038   0.50780   0.92370   0.00000  Uiso   1.00
H1467  H     0.56006   0.48041   0.87061   0.00000  Uiso   1.00
H1468  H     0.53593   0.53323   0.87869   0.00000  Uiso   1.00
O1469  O     0.33472   0.48396   0.98458   0.00000  Uiso   1.00
C1470  C     0.64770   0.52399   0.98407   0.00000  Uiso   1.00
H1471  H     0.60942   0.51955   0.98734   0.00000  Uiso   1.00
H1472  H     0.66467   0.54227   0.95098   0.00000  Uiso   1.00
C1473  C     0.64931   0.54861   0.52556   0.00000  Uiso   1.00
H1474  H     0.63591   0.52900   0.55794   0.00000  Uiso   1.00
H1475  H     0.35376   0.55763   0.52000   0.00000  Uiso   1.00
C1476  C     0.61804   0.58756   0.53189   0.00000  Uiso   1.00
H1477  H     0.63085   0.60823   0.50029   0.00000  Uiso   1.00
H1478  H     0.61966   0.60464   0.56228   0.00000  Uiso   1.00
H1479  H     0.58004   0.57877   0.53836   0.00000  Uiso   1.00
O1480  O     0.63528   0.41216   0.53903   0.00000  Uiso   1.00
C1481  C     0.63171   0.37338   0.56299   0.00000  Uiso   1.00
H1482  H     0.61174   0.35120   0.54923   0.00000  Uiso   1.00
H1483  H     0.61272   0.37550   0.60134   0.00000  Uiso   1.00
C1484  C     0.34900   0.35635   0.55581   0.00000  Uiso   1.00
H1485  H     0.36840   0.37807   0.57069   0.00000  Uiso   1.00
H1486  H     0.34599   0.65920   0.57478   0.00000  Uiso   1.00
C1487  C     0.37832   0.35065   0.50440   0.00000  Uiso   1.00
H1488  H     0.35943   0.66277   0.98853   0.00000  Uiso   1.00
H1489  H     0.41401   0.33696   0.50119   0.00000  Uiso   1.00
H1490  H     0.38424   0.38108   0.98508   0.00000  Uiso   1.00
O1491  O     0.56774   0.37035   0.78113   0.00000  Uiso   1.00
C1492  C     0.61077   0.37633   0.74237   0.00000  Uiso   1.00
H1493  H     0.63309   0.39889   0.75262   0.00000  Uiso   1.00
H1494  H     0.60383   0.39023   0.71136   0.00000  Uiso   1.00
C1495  C     0.64027   0.33618   0.72861   0.00000  Uiso   1.00
H1496  H     0.64957   0.65658   0.75862   0.00000  Uiso   1.00
H1497  H     0.61960   0.64596   0.71770   0.00000  Uiso   1.00
C1498  C     0.35279   0.34474   0.68742   0.00000  Uiso   1.00
H1499  H     0.34404   0.35863   0.65754   0.00000  Uiso   1.00
H1500  H     0.37225   0.64839   0.67631   0.00000  Uiso   1.00
H1501  H     0.37606   0.36650   0.69745   0.00000  Uiso   1.00
O1502  O     0.44392   0.62925   0.70561   0.00000  Uiso   1.00
C1503  C     0.47238   0.62381   0.65826   0.00000  Uiso   1.00
H1504  H     0.45092   0.60415   0.64357   0.00000  Uiso   1.00
H1505  H     0.50644   0.60663   0.65479   0.00000  Uiso   1.00
C1506  C     0.48358   0.66513   0.62956   0.00000  Uiso   1.00
H1507  H     0.45109   0.35190   0.63875   0.00000  Uiso   1.00
H1508  H     0.51244   0.34865   0.63722   0.00000  Uiso   1.00
C1509  C     0.50037   0.65799   0.57735   0.00000  Uiso   1.00
H1510  H     0.53387   0.63918   0.56670   0.00000  Uiso   1.00
H1511  H     0.50785   0.35504   0.55800   0.00000  Uiso   1.00
H1512  H     0.47208   0.64176   0.56815   0.00000  Uiso   1.00
C1513  C     0.83318   0.57999   0.74939   0.00000  Uiso   1.00
C1514  C     0.83359   0.41994   0.75058   0.00000  Uiso   1.00
C1515  C     0.76522   0.46566   0.55760   0.00000  Uiso   1.00
C1516  C     0.87344   0.43330   0.96295   0.00000  Uiso   1.00
C1517  C     0.73230   0.46970   0.53425   0.00000  Uiso   1.00
C1518  C     0.90398   0.42341   0.98815   0.00000  Uiso   1.00
C1519  C     0.86219   0.64329   0.76960   0.00000  Uiso   1.00
C1520  C     0.80326   0.35643   0.73215   0.00000  Uiso   1.00
C1521  C     0.86670   0.35245   0.76640   0.00000  Uiso   1.00
C1522  C     0.80461   0.64732   0.72845   0.00000  Uiso   1.00
C1523  C     0.83469   0.37576   0.75010   0.00000  Uiso   1.00
C1524  C     0.83266   0.62406   0.74939   0.00000  Uiso   1.00
C1525  C     0.98797   0.47871   0.71745   0.00000  Uiso   1.00
C1526  C     0.67894   0.52202   0.78192   0.00000  Uiso   1.00
C1527  C     0.70250   0.47847   0.71765   0.00000  Uiso   1.00
C1528  C     0.96440   0.52213   0.78178   0.00000  Uiso   1.00
C1529  C     0.80373   0.49927   0.83829   0.00000  Uiso   1.00
C1530  C     0.86283   0.49790   0.66215   0.00000  Uiso   1.00
C1531  C     0.78588   0.49268   0.88932   0.00000  Uiso   1.00
C1532  C     0.87804   0.48296   0.61456   0.00000  Uiso   1.00
C1533  C     0.71738   0.48453   0.96145   0.00000  Uiso   1.00
C1534  C     0.92611   0.43420   0.55748   0.00000  Uiso   1.00
C1535  C     0.73597   0.49069   0.91307   0.00000  Uiso   1.00
C1536  C     0.91743   0.45570   0.59877   0.00000  Uiso   1.00
C1537  C     0.81789   0.48522   0.91419   0.00000  Uiso   1.00
C1538  C     0.84645   0.48825   0.58944   0.00000  Uiso   1.00
C1539  C     0.79911   0.46939   0.96045   0.00000  Uiso   1.00
C1540  C     0.85028   0.46143   0.55303   0.00000  Uiso   1.00
C1541  C     0.74904   0.47384   0.98544   0.00000  Uiso   1.00
C1542  C     0.89360   0.43885   0.53302   0.00000  Uiso   1.00
C1543  C     0.82933   0.45413   0.98454   0.00000  Uiso   1.00
C1544  C     0.81463   0.46042   0.53233   0.00000  Uiso   1.00
H1545  H     0.69445   0.47284   0.55455   0.00000  Uiso   1.00
H1546  H     0.93707   0.40650   0.97133   0.00000  Uiso   1.00
H1547  H     0.94173   0.45125   0.61821   0.00000  Uiso   1.00
H1548  H     0.71100   0.49525   0.89436   0.00000  Uiso   1.00
H1549  H     0.75204   0.46576   0.59531   0.00000  Uiso   1.00
H1550  H     0.88371   0.42390   0.92717   0.00000  Uiso   1.00
H1551  H     0.88387   0.62530   0.78576   0.00000  Uiso   1.00
H1552  H     0.77970   0.37436   0.71827   0.00000  Uiso   1.00
H1553  H     0.97939   0.46166   0.69141   0.00000  Uiso   1.00
H1554  H     0.68773   0.53965   0.80743   0.00000  Uiso   1.00
H1555  H     0.73006   0.46108   0.69190   0.00000  Uiso   1.00
H1556  H     0.93712   0.54020   0.80688   0.00000  Uiso   1.00
N1557  N     0.71426   0.50001   0.75001   0.00000  Uiso   1.00
N1558  N     0.95241   0.49999   0.74999   0.00000  Uiso   1.00
O1559  O     0.79512   0.56108   0.75001   0.00000  Uiso   1.00
O1560  O     0.87154   0.43892   0.74999   0.00000  Uiso   1.00
O1561  O     0.87157   0.56107   0.75000   0.00000  Uiso   1.00
O1562  O     0.79510   0.43893   0.75000   0.00000  Uiso   1.00
O1563  O     0.77328   0.50001   0.81613   0.00000  Uiso   1.00
O1564  O     0.89339   0.49999   0.68387   0.00000  Uiso   1.00
O1565  O     0.84972   0.50000   0.81612   0.00000  Uiso   1.00
O1566  O     0.81695   0.50000   0.68388   0.00000  Uiso   1.00
Zn1567 Zn    0.78229   0.50001   0.75000   0.00000  Uiso   1.00
Zn1568 Zn    0.88438   0.49999   0.75000   0.00000  Uiso   1.00
C1569  C     0.81624   0.52759   0.59538   0.00000  Uiso   1.00
H1570  H     0.80977   0.53725   0.56282   0.00000  Uiso   1.00
H1571  H     0.78113   0.52368   0.62401   0.00000  Uiso   1.00
H1572  H     0.83641   0.55354   0.60285   0.00000  Uiso   1.00
C1573  C     0.86900   0.50212   0.89559   0.00000  Uiso   1.00
H1574  H     0.88372   0.50780   0.92370   0.00000  Uiso   1.00
H1575  H     0.89339   0.48041   0.87061   0.00000  Uiso   1.00
H1576  H     0.86926   0.53323   0.87869   0.00000  Uiso   1.00
O1577  O     0.66806   0.48396   0.98458   0.00000  Uiso   1.00
C1578  C     0.98103   0.52399   0.98407   0.00000  Uiso   1.00
H1579  H     0.94276   0.51955   0.98734   0.00000  Uiso   1.00
H1580  H     0.99800   0.54227   0.95098   0.00000  Uiso   1.00
C1581  C     0.98264   0.54861   0.52556   0.00000  Uiso   1.00
H1582  H     0.96924   0.52900   0.55794   0.00000  Uiso   1.00
H1583  H     0.68710   0.55763   0.52000   0.00000  Uiso   1.00
C1584  C     0.95137   0.58756   0.53189   0.00000  Uiso   1.00
H1585  H     0.96419   0.60823   0.50029   0.00000  Uiso   1.00
H1586  H     0.95299   0.60464   0.56228   0.00000  Uiso   1.00
H1587  H     0.91338   0.57877   0.53836   0.00000  Uiso   1.00
O1588  O     0.96861   0.41216   0.53903   0.00000  Uiso   1.00
C1589  C     0.96504   0.37338   0.56299   0.00000  Uiso   1.00
H1590  H     0.94507   0.35120   0.54923   0.00000  Uiso   1.00
H1591  H     0.94606   0.37550   0.60134   0.00000  Uiso   1.00
C1592  C     0.68234   0.35635   0.55581   0.00000  Uiso   1.00
H1593  H     0.70173   0.37807   0.57069   0.00000  Uiso   1.00
H1594  H     0.67932   0.65920   0.57478   0.00000  Uiso   1.00
C1595  C     0.71165   0.35065   0.50440   0.00000  Uiso   1.00
H1596  H     0.69277   0.66277   0.98853   0.00000  Uiso   1.00
H1597  H     0.74735   0.33696   0.50119   0.00000  Uiso   1.00
H1598  H     0.71757   0.38108   0.98508   0.00000  Uiso   1.00
O1599  O     0.90107   0.37035   0.78113   0.00000  Uiso   1.00
C1600  C     0.94411   0.37633   0.74237   0.00000  Uiso   1.00
H1601  H     0.96642   0.39889   0.75262   0.00000  Uiso   1.00
H1602  H     0.93716   0.39023   0.71136   0.00000  Uiso   1.00
C1603  C     0.97360   0.33618   0.72861   0.00000  Uiso   1.00
H1604  H     0.98290   0.65658   0.75862   0.00000  Uiso   1.00
H1605  H     0.95293   0.64596   0.71770   0.00000  Uiso   1.00
C1606  C     0.68612   0.34474   0.68742   0.00000  Uiso   1.00
H1607  H     0.67737   0.35863   0.65754   0.00000  Uiso   1.00
H1608  H     0.70559   0.64839   0.67631   0.00000  Uiso   1.00
H1609  H     0.70940   0.36650   0.69745   0.00000  Uiso   1.00
O1610  O     0.77725   0.62925   0.70561   0.00000  Uiso   1.00
C1611  C     0.80571   0.62381   0.65826   0.00000  Uiso   1.00
H1612  H     0.78425   0.60415   0.64357   0.00000  Uiso   1.00
H1613  H     0.83977   0.60663   0.65479   0.00000  Uiso   1.00
C1614  C     0.81691   0.66513   0.62956   0.00000  Uiso   1.00
H1615  H     0.78442   0.35190   0.63875   0.00000  Uiso   1.00
H1616  H     0.84578   0.34865   0.63722   0.00000  Uiso   1.00
C1617  C     0.83370   0.65799   0.57735   0.00000  Uiso   1.00
H1618  H     0.86721   0.63918   0.56670   0.00000  Uiso   1.00
H1619  H     0.84119   0.35504   0.55800   0.00000  Uiso   1.00
H1620  H     0.80542   0.64176   0.56815   0.00000  Uiso   1.00
C1621  C     0.16651   0.91332   0.74939   0.00000  Uiso   1.00
C1622  C     0.16693   0.75328   0.75058   0.00000  Uiso   1.00
C1623  C     0.09856   0.79900   0.55760   0.00000  Uiso   1.00
C1624  C     0.20677   0.76663   0.96295   0.00000  Uiso   1.00
C1625  C     0.06564   0.80304   0.53425   0.00000  Uiso   1.00
C1626  C     0.23731   0.75674   0.98815   0.00000  Uiso   1.00
C1627  C     0.19552   0.97662   0.76960   0.00000  Uiso   1.00
C1628  C     0.13660   0.68976   0.73215   0.00000  Uiso   1.00
C1629  C     0.20004   0.68578   0.76640   0.00000  Uiso   1.00
C1630  C     0.13795   0.98065   0.72845   0.00000  Uiso   1.00
C1631  C     0.16802   0.70909   0.75010   0.00000  Uiso   1.00
C1632  C     0.16599   0.95740   0.74939   0.00000  Uiso   1.00
C1633  C     0.32130   0.81204   0.71745   0.00000  Uiso   1.00
C1634  C     0.01228   0.85535   0.78192   0.00000  Uiso   1.00
C1635  C     0.03583   0.81180   0.71765   0.00000  Uiso   1.00
C1636  C     0.29773   0.85546   0.78178   0.00000  Uiso   1.00
C1637  C     0.13707   0.83260   0.83829   0.00000  Uiso   1.00
C1638  C     0.19616   0.83123   0.66215   0.00000  Uiso   1.00
C1639  C     0.11921   0.82602   0.88932   0.00000  Uiso   1.00
C1640  C     0.21138   0.81630   0.61456   0.00000  Uiso   1.00
C1641  C     0.05072   0.81786   0.96145   0.00000  Uiso   1.00
C1642  C     0.25944   0.76753   0.55748   0.00000  Uiso   1.00
C1643  C     0.06930   0.82402   0.91307   0.00000  Uiso   1.00
C1644  C     0.25076   0.78903   0.59877   0.00000  Uiso   1.00
C1645  C     0.15123   0.81855   0.91419   0.00000  Uiso   1.00
C1646  C     0.17978   0.82158   0.58944   0.00000  Uiso   1.00
C1647  C     0.13245   0.80272   0.96045   0.00000  Uiso   1.00
C1648  C     0.18362   0.79476   0.55303   0.00000  Uiso   1.00
C1649  C     0.08238   0.80717   0.98544   0.00000  Uiso   1.00
C1650  C     0.22693   0.77218   0.53302   0.00000  Uiso   1.00
C1651  C     0.16266   0.78746   0.98454   0.00000  Uiso   1.00
C1652  C     0.14796   0.79376   0.53233   0.00000  Uiso   1.00
H1653  H     0.02778   0.80617   0.55455   0.00000  Uiso   1.00
H1654  H     0.27040   0.73984   0.97133   0.00000  Uiso   1.00
H1655  H     0.27507   0.78458   0.61821   0.00000  Uiso   1.00
H1656  H     0.04433   0.82858   0.89436   0.00000  Uiso   1.00
H1657  H     0.08537   0.79909   0.59531   0.00000  Uiso   1.00
H1658  H     0.21704   0.75723   0.92717   0.00000  Uiso   1.00
H1659  H     0.21721   0.95864   0.78576   0.00000  Uiso   1.00
H1660  H     0.11303   0.70770   0.71827   0.00000  Uiso   1.00
H1661  H     0.31273   0.79500   0.69141   0.00000  Uiso   1.00
H1662  H     0.02106   0.87299   0.80743   0.00000  Uiso   1.00
H1663  H     0.06340   0.79441   0.69190   0.00000  Uiso   1.00
H1664  H     0.27045   0.87353   0.80688   0.00000  Uiso   1.00
N1665  N     0.04759   0.83334   0.75001   0.00000  Uiso   1.00
N1666  N     0.28574   0.83332   0.74999   0.00000  Uiso   1.00
O1667  O     0.12846   0.89442   0.75001   0.00000  Uiso   1.00
O1668  O     0.20488   0.77225   0.74999   0.00000  Uiso   1.00
O1669  O     0.20490   0.89441   0.75000   0.00000  Uiso   1.00
O1670  O     0.12843   0.77226   0.75000   0.00000  Uiso   1.00
O1671  O     0.10661   0.83334   0.81613   0.00000  Uiso   1.00
O1672  O     0.22672   0.83333   0.68387   0.00000  Uiso   1.00
O1673  O     0.18305   0.83333   0.81612   0.00000  Uiso   1.00
O1674  O     0.15028   0.83334   0.68388   0.00000  Uiso   1.00
Zn1675 Zn    0.11562   0.83334   0.75000   0.00000  Uiso   1.00
Zn1676 Zn    0.21771   0.83333   0.75000   0.00000  Uiso   1.00
C1677  C     0.14957   0.86092   0.59538   0.00000  Uiso   1.00
H1678  H     0.14311   0.87058   0.56282   0.00000  Uiso   1.00
H1679  H     0.11446   0.85701   0.62401   0.00000  Uiso   1.00
H1680  H     0.16974   0.88687   0.60285   0.00000  Uiso   1.00
C1681  C     0.20233   0.83545   0.89559   0.00000  Uiso   1.00
H1682  H     0.21705   0.84114   0.92370   0.00000  Uiso   1.00
H1683  H     0.22672   0.81374   0.87061   0.00000  Uiso   1.00
H1684  H     0.20260   0.86656   0.87869   0.00000  Uiso   1.00
O1685  O     0.00139   0.81729   0.98458   0.00000  Uiso   1.00
C1686  C     0.31437   0.85732   0.98407   0.00000  Uiso   1.00
H1687  H     0.27609   0.85288   0.98734   0.00000  Uiso   1.00
H1688  H     0.33134   0.87560   0.95098   0.00000  Uiso   1.00
C1689  C     0.31597   0.88195   0.52556   0.00000  Uiso   1.00
H1690  H     0.30257   0.86233   0.55794   0.00000  Uiso   1.00
H1691  H     0.02043   0.89096   0.52000   0.00000  Uiso   1.00
C1692  C     0.28471   0.92090   0.53189   0.00000  Uiso   1.00
H1693  H     0.29752   0.94157   0.50029   0.00000  Uiso   1.00
H1694  H     0.28633   0.93798   0.56228   0.00000  Uiso   1.00
H1695  H     0.24671   0.91210   0.53836   0.00000  Uiso   1.00
O1696  O     0.30195   0.74550   0.53903   0.00000  Uiso   1.00
C1697  C     0.29837   0.70671   0.56299   0.00000  Uiso   1.00
H1698  H     0.27840   0.68453   0.54923   0.00000  Uiso   1.00
H1699  H     0.27939   0.70883   0.60134   0.00000  Uiso   1.00
C1700  C     0.01567   0.68968   0.55581   0.00000  Uiso   1.00
H1701  H     0.03507   0.71141   0.57069   0.00000  Uiso   1.00
H1702  H     0.01265   0.99253   0.57478   0.00000  Uiso   1.00
C1703  C     0.04499   0.68398   0.50440   0.00000  Uiso   1.00
H1704  H     0.02610   0.99610   0.98853   0.00000  Uiso   1.00
H1705  H     0.08068   0.67029   0.50119   0.00000  Uiso   1.00
H1706  H     0.05090   0.71441   0.98508   0.00000  Uiso   1.00
O1707  O     0.23440   0.70368   0.78113   0.00000  Uiso   1.00
C1708  C     0.27744   0.70966   0.74237   0.00000  Uiso   1.00
H1709  H     0.29976   0.73222   0.75262   0.00000  Uiso   1.00
H1710  H     0.27049   0.72356   0.71136   0.00000  Uiso   1.00
C1711  C     0.30693   0.66951   0.72861   0.00000  Uiso   1.00
H1712  H     0.31624   0.98992   0.75862   0.00000  Uiso   1.00
H1713  H     0.28626   0.97929   0.71770   0.00000  Uiso   1.00
C1714  C     0.01946   0.67807   0.68742   0.00000  Uiso   1.00
H1715  H     0.01071   0.69196   0.65754   0.00000  Uiso   1.00
H1716  H     0.03892   0.98173   0.67631   0.00000  Uiso   1.00
H1717  H     0.04273   0.69983   0.69745   0.00000  Uiso   1.00
O1718  O     0.11058   0.96258   0.70561   0.00000  Uiso   1.00
C1719  C     0.13905   0.95714   0.65826   0.00000  Uiso   1.00
H1720  H     0.11759   0.93748   0.64357   0.00000  Uiso   1.00
H1721  H     0.17310   0.93997   0.65479   0.00000  Uiso   1.00
C1722  C     0.15024   0.99847   0.62956   0.00000  Uiso   1.00
H1723  H     0.11776   0.68523   0.63875   0.00000  Uiso   1.00
H1724  H     0.17911   0.68198   0.63722   0.00000  Uiso   1.00
C1725  C     0.16704   0.99132   0.57735   0.00000  Uiso   1.00
H1726  H     0.20054   0.97252   0.56670   0.00000  Uiso   1.00
H1727  H     0.17452   0.68838   0.55800   0.00000  Uiso   1.00
H1728  H     0.13875   0.97509   0.56815   0.00000  Uiso   1.00
C1729  C     0.49985   0.91332   0.74939   0.00000  Uiso   1.00
C1730  C     0.50026   0.75328   0.75058   0.00000  Uiso   1.00
C1731  C     0.43189   0.79900   0.55760   0.00000  Uiso   1.00
C1732  C     0.54011   0.76663   0.96295   0.00000  Uiso   1.00
C1733  C     0.39897   0.80304   0.53425   0.00000  Uiso   1.00
C1734  C     0.57064   0.75674   0.98815   0.00000  Uiso   1.00
C1735  C     0.52886   0.97662   0.76960   0.00000  Uiso   1.00
C1736  C     0.46993   0.68976   0.73215   0.00000  Uiso   1.00
C1737  C     0.53337   0.68578   0.76640   0.00000  Uiso   1.00
C1738  C     0.47128   0.98065   0.72845   0.00000  Uiso   1.00
C1739  C     0.50136   0.70909   0.75010   0.00000  Uiso   1.00
C1740  C     0.49933   0.95740   0.74939   0.00000  Uiso   1.00
C1741  C     0.65463   0.81204   0.71745   0.00000  Uiso   1.00
C1742  C     0.34561   0.85535   0.78192   0.00000  Uiso   1.00
C1743  C     0.36917   0.81180   0.71765   0.00000  Uiso   1.00
C1744  C     0.63107   0.85546   0.78178   0.00000  Uiso   1.00
C1745  C     0.47040   0.83260   0.83829   0.00000  Uiso   1.00
C1746  C     0.52950   0.83123   0.66215   0.00000  Uiso   1.00
C1747  C     0.45255   0.82602   0.88932   0.00000  Uiso   1.00
C1748  C     0.54471   0.81630   0.61456   0.00000  Uiso   1.00
C1749  C     0.38405   0.81786   0.96145   0.00000  Uiso   1.00
C1750  C     0.59277   0.76753   0.55748   0.00000  Uiso   1.00
C1751  C     0.40263   0.82402   0.91307   0.00000  Uiso   1.00
C1752  C     0.58410   0.78903   0.59877   0.00000  Uiso   1.00
C1753  C     0.48456   0.81855   0.91419   0.00000  Uiso   1.00
C1754  C     0.51311   0.82158   0.58944   0.00000  Uiso   1.00
C1755  C     0.46578   0.80272   0.96045   0.00000  Uiso   1.00
C1756  C     0.51695   0.79476   0.55303   0.00000  Uiso   1.00
C1757  C     0.41571   0.80717   0.98544   0.00000  Uiso   1.00
C1758  C     0.56027   0.77218   0.53302   0.00000  Uiso   1.00
C1759  C     0.49599   0.78746   0.98454   0.00000  Uiso   1.00
C1760  C     0.48129   0.79376   0.53233   0.00000  Uiso   1.00
H1761  H     0.36111   0.80617   0.55455   0.00000  Uiso   1.00
H1762  H     0.60374   0.73984   0.97133   0.00000  Uiso   1.00
H1763  H     0.60840   0.78458   0.61821   0.00000  Uiso   1.00
H1764  H     0.37767   0.82858   0.89436   0.00000  Uiso   1.00
H1765  H     0.41870   0.79909   0.59531   0.00000  Uiso   1.00
H1766  H     0.55037   0.75723   0.92717   0.00000  Uiso   1.00
H1767  H     0.55054   0.95864   0.78576   0.00000  Uiso   1.00
H1768  H     0.44637   0.70770   0.71827   0.00000  Uiso   1.00
H1769  H     0.64606   0.79500   0.69141   0.00000  Uiso   1.00
H1770  H     0.35439   0.87299   0.80743   0.00000  Uiso   1.00
H1771  H     0.39673   0.79441   0.69190   0.00000  Uiso   1.00
H1772  H     0.60378   0.87353   0.80688   0.00000  Uiso   1.00
N1773  N     0.38093   0.83334   0.75001   0.00000  Uiso   1.00
N1774  N     0.61907   0.83332   0.74999   0.00000  Uiso   1.00
O1775  O     0.46179   0.89442   0.75001   0.00000  Uiso   1.00
O1776  O     0.53821   0.77225   0.74999   0.00000  Uiso   1.00
O1777  O     0.53823   0.89441   0.75000   0.00000  Uiso   1.00
O1778  O     0.46177   0.77226   0.75000   0.00000  Uiso   1.00
O1779  O     0.43994   0.83334   0.81613   0.00000  Uiso   1.00
O1780  O     0.56006   0.83333   0.68387   0.00000  Uiso   1.00
O1781  O     0.51639   0.83333   0.81612   0.00000  Uiso   1.00
O1782  O     0.48361   0.83334   0.68388   0.00000  Uiso   1.00
Zn1783 Zn    0.44896   0.83334   0.75000   0.00000  Uiso   1.00
Zn1784 Zn    0.55104   0.83333   0.75000   0.00000  Uiso   1.00
C1785  C     0.48290   0.86092   0.59538   0.00000  Uiso   1.00
H1786  H     0.47644   0.87058   0.56282   0.00000  Uiso   1.00
H1787  H     0.44780   0.85701   0.62401   0.00000  Uiso   1.00
H1788  H     0.50307   0.88687   0.60285   0.00000  Uiso   1.00
C1789  C     0.53567   0.83545   0.89559   0.00000  Uiso   1.00
H1790  H     0.55038   0.84114   0.92370   0.00000  Uiso   1.00
H1791  H     0.56006   0.81374   0.87061   0.00000  Uiso   1.00
H1792  H     0.53593   0.86656   0.87869   0.00000  Uiso   1.00
O1793  O     0.33472   0.81729   0.98458   0.00000  Uiso   1.00
C1794  C     0.64770   0.85732   0.98407   0.00000  Uiso   1.00
H1795  H     0.60942   0.85288   0.98734   0.00000  Uiso   1.00
H1796  H     0.66467   0.87560   0.95098   0.00000  Uiso   1.00
C1797  C     0.64931   0.88195   0.52556   0.00000  Uiso   1.00
H1798  H     0.63591   0.86233   0.55794   0.00000  Uiso   1.00
H1799  H     0.35376   0.89096   0.52000   0.00000  Uiso   1.00
C1800  C     0.61804   0.92090   0.53189   0.00000  Uiso   1.00
H1801  H     0.63085   0.94157   0.50029   0.00000  Uiso   1.00
H1802  H     0.61966   0.93798   0.56228   0.00000  Uiso   1.00
H1803  H     0.58004   0.91210   0.53836   0.00000  Uiso   1.00
O1804  O     0.63528   0.74550   0.53903   0.00000  Uiso   1.00
C1805  C     0.63171   0.70671   0.56299   0.00000  Uiso   1.00
H1806  H     0.61174   0.68453   0.54923   0.00000  Uiso   1.00
H1807  H     0.61272   0.70883   0.60134   0.00000  Uiso   1.00
C1808  C     0.34900   0.68968   0.55581   0.00000  Uiso   1.00
H1809  H     0.36840   0.71141   0.57069   0.00000  Uiso   1.00
H1810  H     0.34599   0.99253   0.57478   0.00000  Uiso   1.00
C1811  C     0.37832   0.68398   0.50440   0.00000  Uiso   1.00
H1812  H     0.35943   0.99610   0.98853   0.00000  Uiso   1.00
H1813  H     0.41401   0.67029   0.50119   0.00000  Uiso   1.00
H1814  H     0.38424   0.71441   0.98508   0.00000  Uiso   1.00
O1815  O     0.56774   0.70368   0.78113   0.00000  Uiso   1.00
C1816  C     0.61077   0.70966   0.74237   0.00000  Uiso   1.00
H1817  H     0.63309   0.73222   0.75262   0.00000  Uiso   1.00
H1818  H     0.60383   0.72356   0.71136   0.00000  Uiso   1.00
C1819  C     0.64027   0.66951   0.72861   0.00000  Uiso   1.00
H1820  H     0.64957   0.98992   0.75862   0.00000  Uiso   1.00
H1821  H     0.61960   0.97929   0.71770   0.00000  Uiso   1.00
C1822  C     0.35279   0.67807   0.68742   0.00000  Uiso   1.00
H1823  H     0.34404   0.69196   0.65754   0.00000  Uiso   1.00
H1824  H     0.37225   0.98173   0.67631   0.00000  Uiso   1.00
H1825  H     0.37606   0.69983   0.69745   0.00000  Uiso   1.00
O1826  O     0.44392   0.96258   0.70561   0.00000  Uiso   1.00
C1827  C     0.47238   0.95714   0.65826   0.00000  Uiso   1.00
H1828  H     0.45092   0.93748   0.64357   0.00000  Uiso   1.00
H1829  H     0.50644   0.93997   0.65479   0.00000  Uiso   1.00
C1830  C     0.48358   0.99847   0.62956   0.00000  Uiso   1.00
H1831  H     0.45109   0.68523   0.63875   0.00000  Uiso   1.00
H1832  H     0.51244   0.68198   0.63722   0.00000  Uiso   1.00
C1833  C     0.50037   0.99132   0.57735   0.00000  Uiso   1.00
H1834  H     0.53387   0.97252   0.56670   0.00000  Uiso   1.00
H1835  H     0.50785   0.68838   0.55800   0.00000  Uiso   1.00
H1836  H     0.47208   0.97509   0.56815   0.00000  Uiso   1.00
C1837  C     0.83318   0.91332   0.74939   0.00000  Uiso   1.00
C1838  C     0.83359   0.75328   0.75058   0.00000  Uiso   1.00
C1839  C     0.76522   0.79900   0.55760   0.00000  Uiso   1.00
C1840  C     0.87344   0.76663   0.96295   0.00000  Uiso   1.00
C1841  C     0.73230   0.80304   0.53425   0.00000  Uiso   1.00
C1842  C     0.90398   0.75674   0.98815   0.00000  Uiso   1.00
C1843  C     0.86219   0.97662   0.76960   0.00000  Uiso   1.00
C1844  C     0.80326   0.68976   0.73215   0.00000  Uiso   1.00
C1845  C     0.86670   0.68578   0.76640   0.00000  Uiso   1.00
C1846  C     0.80461   0.98065   0.72845   0.00000  Uiso   1.00
C1847  C     0.83469   0.70909   0.75010   0.00000  Uiso   1.00
C1848  C     0.83266   0.95740   0.74939   0.00000  Uiso   1.00
C1849  C     0.98797   0.81204   0.71745   0.00000  Uiso   1.00
C1850  C     0.67894   0.85535   0.78192   0.00000  Uiso   1.00
C1851  C     0.70250   0.81180   0.71765   0.00000  Uiso   1.00
C1852  C     0.96440   0.85546   0.78178   0.00000  Uiso   1.00
C1853  C     0.80373   0.83260   0.83829   0.00000  Uiso   1.00
C1854  C     0.86283   0.83123   0.66215   0.00000  Uiso   1.00
C1855  C     0.78588   0.82602   0.88932   0.00000  Uiso   1.00
C1856  C     0.87804   0.81630   0.61456   0.00000  Uiso   1.00
C1857  C     0.71738   0.81786   0.96145   0.00000  Uiso   1.00
C1858  C     0.92611   0.76753   0.55748   0.00000  Uiso   1.00
C1859  C     0.73597   0.82402   0.91307   0.00000  Uiso   1.00
C1860  C     0.91743   0.78903   0.59877   0.00000  Uiso   1.00
C1861  C     0.81789   0.81855   0.91419   0.00000  Uiso   1.00
C1862  C     0.84645   0.82158   0.58944   0.00000  Uiso   1.00
C1863  C     0.79911   0.80272   0.96045   0.00000  Uiso   1.00
C1864  C     0.85028   0.79476   0.55303   0.00000  Uiso   1.00
C1865  C     0.74904   0.80717   0.98544   0.00000  Uiso   1.00
C1866  C     0.89360   0.77218   0.53302   0.00000  Uiso   1.00
C1867  C     0.82933   0.78746   0.98454   0.00000  Uiso   1.00
C1868  C     0.81463   0.79376   0.53233   0.00000  Uiso   1.00
H1869  H     0.69445   0.80617   0.55455   0.00000  Uiso   1.00
H1870  H     0.93707   0.73984   0.97133   0.00000  Uiso   1.00
H1871  H     0.94173   0.78458   0.61821   0.00000  Uiso   1.00
H1872  H     0.71100   0.82858   0.89436   0.00000  Uiso   1.00
H1873  H     0.75204   0.79909   0.59531   0.00000  Uiso   1.00
H1874  H     0.88371   0.75723   0.92717   0.00000  Uiso   1.00
H1875  H     0.88387   0.95864   0.78576   0.00000  Uiso   1.00
H1876  H     0.77970   0.70770   0.71827   0.00000  Uiso   1.00
H1877  H     0.97939   0.79500   0.69141   0.00000  Uiso   1.00
H1878  H     0.68773   0.87299   0.80743   0.00000  Uiso   1.00
H1879  H     0.73006   0.79441   0.69190   0.00000  Uiso   1.00
H1880  H     0.93712   0.87353   0.80688   0.00000  Uiso   1.00
N1881  N     0.71426   0.83334   0.75001   0.00000  Uiso   1.00
N1882  N     0.95241   0.83332   0.74999   0.00000  Uiso   1.00
O1883  O     0.79512   0.89442   0.75001   0.00000  Uiso   1.00
O1884  O     0.87154   0.77225   0.74999   0.00000  Uiso   1.00
O1885  O     0.87157   0.89441   0.75000   0.00000  Uiso   1.00
O1886  O     0.79510   0.77226   0.75000   0.00000  Uiso   1.00
O1887  O     0.77328   0.83334   0.81613   0.00000  Uiso   1.00
O1888  O     0.89339   0.83333   0.68387   0.00000  Uiso   1.00
O1889  O     0.84972   0.83333   0.81612   0.00000  Uiso   1.00
O1890  O     0.81695   0.83334   0.68388   0.00000  Uiso   1.00
Zn1891 Zn    0.78229   0.83334   0.75000   0.00000  Uiso   1.00
Zn1892 Zn    0.88438   0.83333   0.75000   0.00000  Uiso   1.00
C1893  C     0.81624   0.86092   0.59538   0.00000  Uiso   1.00
H1894  H     0.80977   0.87058   0.56282   0.00000  Uiso   1.00
H1895  H     0.78113   0.85701   0.62401   0.00000  Uiso   1.00
H1896  H     0.83641   0.88687   0.60285   0.00000  Uiso   1.00
C1897  C     0.86900   0.83545   0.89559   0.00000  Uiso   1.00
H1898  H     0.88372   0.84114   0.92370   0.00000  Uiso   1.00
H1899  H     0.89339   0.81374   0.87061   0.00000  Uiso   1.00
H1900  H     0.86926   0.86656   0.87869   0.00000  Uiso   1.00
O1901  O     0.66806   0.81729   0.98458   0.00000  Uiso   1.00
C1902  C     0.98103   0.85732   0.98407   0.00000  Uiso   1.00
H1903  H     0.94276   0.85288   0.98734   0.00000  Uiso   1.00
H1904  H     0.99800   0.87560   0.95098   0.00000  Uiso   1.00
C1905  C     0.98264   0.88195   0.52556   0.00000  Uiso   1.00
H1906  H     0.96924   0.86233   0.55794   0.00000  Uiso   1.00
H1907  H     0.68710   0.89096   0.52000   0.00000  Uiso   1.00
C1908  C     0.95137   0.92090   0.53189   0.00000  Uiso   1.00
H1909  H     0.96419   0.94157   0.50029   0.00000  Uiso   1.00
H1910  H     0.95299   0.93798   0.56228   0.00000  Uiso   1.00
H1911  H     0.91338   0.91210   0.53836   0.00000  Uiso   1.00
O1912  O     0.96861   0.74550   0.53903   0.00000  Uiso   1.00
C1913  C     0.96504   0.70671   0.56299   0.00000  Uiso   1.00
H1914  H     0.94507   0.68453   0.54923   0.00000  Uiso   1.00
H1915  H     0.94606   0.70883   0.60134   0.00000  Uiso   1.00
C1916  C     0.68234   0.68968   0.55581   0.00000  Uiso   1.00
H1917  H     0.70173   0.71141   0.57069   0.00000  Uiso   1.00
H1918  H     0.67932   0.99253   0.57478   0.00000  Uiso   1.00
C1919  C     0.71165   0.68398   0.50440   0.00000  Uiso   1.00
H1920  H     0.69277   0.99610   0.98853   0.00000  Uiso   1.00
H1921  H     0.74735   0.67029   0.50119   0.00000  Uiso   1.00
H1922  H     0.71757   0.71441   0.98508   0.00000  Uiso   1.00
O1923  O     0.90107   0.70368   0.78113   0.00000  Uiso   1.00
C1924  C     0.94411   0.70966   0.74237   0.00000  Uiso   1.00
H1925  H     0.96642   0.73222   0.75262   0.00000  Uiso   1.00
H1926  H     0.93716   0.72356   0.71136   0.00000  Uiso   1.00
C1927  C     0.97360   0.66951   0.72861   0.00000  Uiso   1.00
H1928  H     0.98290   0.98992   0.75862   0.00000  Uiso   1.00
H1929  H     0.95293   0.97929   0.71770   0.00000  Uiso   1.00
C1930  C     0.68612   0.67807   0.68742   0.00000  Uiso   1.00
H1931  H     0.67737   0.69196   0.65754   0.00000  Uiso   1.00
H1932  H     0.70559   0.98173   0.67631   0.00000  Uiso   1.00
H1933  H     0.70940   0.69983   0.69745   0.00000  Uiso   1.00
O1934  O     0.77725   0.96258   0.70561   0.00000  Uiso   1.00
C1935  C     0.80571   0.95714   0.65826   0.00000  Uiso   1.00
H1936  H     0.78425   0.93748   0.64357   0.00000  Uiso   1.00
H1937  H     0.83977   0.93997   0.65479   0.00000  Uiso   1.00
C1938  C     0.81691   0.99847   0.62956   0.00000  Uiso   1.00
H1939  H     0.78442   0.68523   0.63875   0.00000  Uiso   1.00
H1940  H     0.84578   0.68198   0.63722   0.00000  Uiso   1.00
C1941  C     0.83370   0.99132   0.57735   0.00000  Uiso   1.00
H1942  H     0.86721   0.97252   0.56670   0.00000  Uiso   1.00
H1943  H     0.84119   0.68838   0.55800   0.00000  Uiso   1.00
H1944  H     0.80542   0.97509   0.56815   0.00000  Uiso   1.00
loop_
_geom_bond_atom_site_label_1
_geom_bond_atom_site_label_2
_geom_bond_distance
_geom_bond_site_symmetry_2
_ccdc_geom_bond_type
C1     C12     1.418   .     S
C1     O47     1.280   .     A
C1     O49     1.284   .     A
C2     O50     1.288   .     A
C2     C11     1.422   .     S
C2     O48     1.279   .     A
C3     C32     1.408   .     A
C3     H37     1.083   .     S
C3     C5      1.393   .     A
C4     H38     1.082   .     S
C4     C6      1.401   .     A
C4     C31     1.412   .     A
C5     H33     1.081   .     S
C5     C1001   1.404   1_554 S
C6     H34     1.083   .     S
C6     C1002   1.405   .     S
C7     C12     1.392   .     A
C7     H39     1.085   .     S
C7     C333    1.372   .     S
C8     C11     1.393   .     A
C8     H40     1.083   .     S
C8     C658    1.373   1_545 S
C9     C11     1.408   .     A
C9     O87     1.383   .     S
C9     C655    1.372   1_545 S
C10    O98     1.381   .     S
C10    C12     1.404   .     A
C10    C332    1.373   .     S
C13    H41     1.082   .     S
C13    N46     1.366   .     A
C13    C123    1.416   .     S
C14    H42     1.082   .     S
C14    N45     1.366   .     A
C14    C232    1.416   1_455 S
C15    N45     1.367   .     A
C15    H43     1.082   .     S
C15    C229    1.416   1_455 S
C16    H44     1.080   .     S
C16    N46     1.366   .     A
C16    C122    1.416   .     S
C17    O51     1.299   .     A
C17    O53     1.293   .     A
C17    C19     1.474   .     S
C18    O52     1.295   .     A
C18    C20     1.463   .     S
C18    O54     1.290   .     A
C19    C23     1.403   .     A
C19    C25     1.416   .     A
C20    C24     1.403   .     A
C20    C26     1.403   .     A
C21    O65     1.384   .     S
C21    C29     1.406   .     A
C21    C23     1.398   .     A
C22    O76     1.382   .     S
C22    C24     1.402   .     A
C22    C30     1.409   .     A
C23    H36     1.083   .     S
C24    H35     1.084   .     S
C25    C61     1.521   .     S
C25    C27     1.410   .     A
C26    C28     1.404   .     A
C26    C57     1.517   .     S
C27    C29     1.420   .     A
C27    C31     1.412   .     A
C28    C32     1.404   .     A
C28    C30     1.415   .     A
C29    C977    1.404   .     S
C30    C978    1.405   1_554 S
C31    C1004   1.395   .     S
C32    C1003   1.395   1_554 S
N45    Zn55    2.010   .     S
N46    Zn56    2.010   .     S
O47    Zn55    2.007   .     S
O48    Zn56    2.007   .     S
O49    Zn56    1.996   .     S
O50    Zn55    1.996   .     S
O51    Zn55    1.946   .     S
O52    Zn56    1.946   .     S
O53    Zn56    1.927   .     S
O54    Zn55    1.927   .     S
C57    H59     1.109   .     S
C57    H60     1.107   .     S
C57    H58     1.110   .     S
C61    H62     1.109   .     S
C61    H64     1.110   .     S
C61    H63     1.110   .     S
O65    C282    1.415   1_455 S
C66    H68     1.114   .     S
C66    H67     1.111   .     S
C66    O173    1.415   .     S
C66    C1041   1.532   .     S
C69    H70     1.110   .     S
C69    C72     1.523   .     S
C69    C1038   1.532   1_554 S
C69    H179    1.111   .     S
H71    C285    1.111   1_455 S
C72    H75     1.110   .     S
C72    H74     1.110   .     S
C72    H73     1.110   .     S
O76    C77     1.413   .     S
C77    H78     1.112   .     S
C77    H79     1.116   .     S
C77    C188    1.531   .     S
C80    C83     1.527   .     S
C80    H81     1.112   .     S
C80    C293    1.531   1_455 S
C80    H730    1.112   1_545 S
H82    C404    1.112   .     S
C83    H85     1.110   .     S
C83    H1704   1.110   1_544 S
C83    H1058   1.111   1_554 S
H84    C1379   1.110   .     S
H86    C1055   1.111   .     S
O87    C88     1.419   .     S
C88    C91     1.534   .     S
C88    H90     1.116   .     S
C88    H89     1.109   .     S
C91    H740    1.111   1_545 S
C91    H741    1.108   1_545 S
C91    C202    1.521   .     S
H92    C415    1.111   .     S
H93    C415    1.108   .     S
C94    H97     1.109   .     S
C94    H95     1.110   .     S
C94    C307    1.521   1_455 S
C94    H744    1.108   1_545 S
H96    C418    1.108   .     S
O98    C99     1.417   .     S
C99    C102    1.544   .     S
C99    H100    1.109   .     S
C99    H101    1.115   .     S
C102   C105    1.524   .     S
C102   H427    1.107   .     S
C102   H428    1.111   .     S
H103   C750    1.107   1_545 S
H104   C750    1.111   1_545 S
C105   H108    1.111   .     S
C105   H106    1.107   .     S
C105   H431    1.110   .     S
H107   C753    1.110   1_545 S
C109   C120    1.418   .     S
C109   O155    1.280   .     A
C109   O157    1.284   .     A
C110   O158    1.288   .     A
C110   C119    1.422   .     S
C110   O156    1.279   .     A
C111   C140    1.408   .     A
C111   H145    1.083   .     S
C111   C113    1.393   .     A
C112   H146    1.082   .     S
C112   C114    1.401   .     A
C112   C139    1.412   .     A
C113   H141    1.081   .     S
C113   C1109   1.404   1_554 S
C114   H142    1.083   .     S
C114   C1110   1.405   .     S
C115   C120    1.392   .     A
C115   H147    1.085   .     S
C115   C441    1.372   .     S
C116   C119    1.393   .     A
C116   H148    1.083   .     S
C116   C766    1.373   1_545 S
C117   C119    1.408   .     A
C117   O195    1.383   .     S
C117   C763    1.372   1_545 S
C118   O206    1.381   .     S
C118   C120    1.404   .     A
C118   C440    1.373   .     S
C121   H149    1.082   .     S
C121   N154    1.366   .     A
C121   C231    1.416   .     S
C122   H150    1.082   .     S
C122   N153    1.366   .     A
C123   N153    1.367   .     A
C123   H151    1.082   .     S
C124   H152    1.080   .     S
C124   N154    1.366   .     A
C124   C230    1.416   .     S
C125   O159    1.299   .     A
C125   O161    1.293   .     A
C125   C127    1.474   .     S
C126   O160    1.295   .     A
C126   C128    1.463   .     S
C126   O162    1.290   .     A
C127   C131    1.403   .     A
C127   C133    1.416   .     A
C128   C132    1.403   .     A
C128   C134    1.403   .     A
C129   O173    1.384   .     S
C129   C137    1.406   .     A
C129   C131    1.398   .     A
C130   O184    1.382   .     S
C130   C132    1.402   .     A
C130   C138    1.409   .     A
C131   H144    1.083   .     S
C132   H143    1.084   .     S
C133   C169    1.521   .     S
C133   C135    1.410   .     A
C134   C136    1.404   .     A
C134   C165    1.517   .     S
C135   C137    1.420   .     A
C135   C139    1.412   .     A
C136   C140    1.404   .     A
C136   C138    1.415   .     A
C137   C1085   1.404   .     S
C138   C1086   1.405   1_554 S
C139   C1112   1.395   .     S
C140   C1111   1.395   1_554 S
N153   Zn163   2.010   .     S
N154   Zn164   2.010   .     S
O155   Zn163   2.007   .     S
O156   Zn164   2.007   .     S
O157   Zn164   1.996   .     S
O158   Zn163   1.996   .     S
O159   Zn163   1.946   .     S
O160   Zn164   1.946   .     S
O161   Zn164   1.927   .     S
O162   Zn163   1.927   .     S
C165   H167    1.109   .     S
C165   H168    1.107   .     S
C165   H166    1.110   .     S
C169   H170    1.109   .     S
C169   H172    1.110   .     S
C169   H171    1.110   .     S
C174   H176    1.114   .     S
C174   H175    1.111   .     S
C174   O281    1.415   .     S
C174   C1149   1.532   .     S
C177   H178    1.110   .     S
C177   C180    1.523   .     S
C177   C1146   1.532   1_554 S
C177   H287    1.111   .     S
C180   H183    1.110   .     S
C180   H182    1.110   .     S
C180   H181    1.110   .     S
O184   C185    1.413   .     S
C185   H186    1.112   .     S
C185   H187    1.116   .     S
C185   C296    1.531   .     S
C188   C191    1.527   .     S
C188   H189    1.112   .     S
C188   H838    1.112   1_545 S
H190   C512    1.112   .     S
C191   H193    1.110   .     S
C191   H1812   1.110   1_544 S
C191   H1166   1.111   1_554 S
H192   C1487   1.110   .     S
H194   C1163   1.111   .     S
O195   C196    1.419   .     S
C196   C199    1.534   .     S
C196   H198    1.116   .     S
C196   H197    1.109   .     S
C199   H848    1.111   1_545 S
C199   H849    1.108   1_545 S
C199   C310    1.521   .     S
H200   C523    1.111   .     S
H201   C523    1.108   .     S
C202   H205    1.109   .     S
C202   H203    1.110   .     S
C202   H852    1.108   1_545 S
H204   C526    1.108   .     S
O206   C207    1.417   .     S
C207   C210    1.544   .     S
C207   H208    1.109   .     S
C207   H209    1.115   .     S
C210   C213    1.524   .     S
C210   H535    1.107   .     S
C210   H536    1.111   .     S
H211   C858    1.107   1_545 S
H212   C858    1.111   1_545 S
C213   H216    1.111   .     S
C213   H214    1.107   .     S
C213   H539    1.110   .     S
H215   C861    1.110   1_545 S
C217   C228    1.418   .     S
C217   O263    1.280   .     A
C217   O265    1.284   .     A
C218   O266    1.288   .     A
C218   C227    1.422   .     S
C218   O264    1.279   .     A
C219   C248    1.408   .     A
C219   H253    1.083   .     S
C219   C221    1.393   .     A
C220   H254    1.082   .     S
C220   C222    1.401   .     A
C220   C247    1.412   .     A
C221   H249    1.081   .     S
C221   C1217   1.404   1_554 S
C222   H250    1.083   .     S
C222   C1218   1.405   .     S
C223   C228    1.392   .     A
C223   H255    1.085   .     S
C223   C549    1.372   .     S
C224   C227    1.393   .     A
C224   H256    1.083   .     S
C224   C874    1.373   1_545 S
C225   C227    1.408   .     A
C225   O303    1.383   .     S
C225   C871    1.372   1_545 S
C226   O314    1.381   .     S
C226   C228    1.404   .     A
C226   C548    1.373   .     S
C229   H257    1.082   .     S
C229   N262    1.366   .     A
C229   C15     1.416   1_655 S
C230   H258    1.082   .     S
C230   N261    1.366   .     A
C231   N261    1.367   .     A
C231   H259    1.082   .     S
C232   H260    1.080   .     S
C232   N262    1.366   .     A
C232   C14     1.416   1_655 S
C233   O267    1.299   .     A
C233   O269    1.293   .     A
C233   C235    1.474   .     S
C234   O268    1.295   .     A
C234   C236    1.463   .     S
C234   O270    1.290   .     A
C235   C239    1.403   .     A
C235   C241    1.416   .     A
C236   C240    1.403   .     A
C236   C242    1.403   .     A
C237   O281    1.384   .     S
C237   C245    1.406   .     A
C237   C239    1.398   .     A
C238   O292    1.382   .     S
C238   C240    1.402   .     A
C238   C246    1.409   .     A
C239   H252    1.083   .     S
C240   H251    1.084   .     S
C241   C277    1.521   .     S
C241   C243    1.410   .     A
C242   C244    1.404   .     A
C242   C273    1.517   .     S
C243   C245    1.420   .     A
C243   C247    1.412   .     A
C244   C248    1.404   .     A
C244   C246    1.415   .     A
C245   C1193   1.404   .     S
C246   C1194   1.405   1_554 S
C247   C1220   1.395   .     S
C248   C1219   1.395   1_554 S
N261   Zn271   2.010   .     S
N262   Zn272   2.010   .     S
O263   Zn271   2.007   .     S
O264   Zn272   2.007   .     S
O265   Zn272   1.996   .     S
O266   Zn271   1.996   .     S
O267   Zn271   1.946   .     S
O268   Zn272   1.946   .     S
O269   Zn272   1.927   .     S
O270   Zn271   1.927   .     S
C273   H275    1.109   .     S
C273   H276    1.107   .     S
C273   H274    1.110   .     S
C277   H278    1.109   .     S
C277   H280    1.110   .     S
C277   H279    1.110   .     S
C282   H284    1.114   .     S
C282   H283    1.111   .     S
C282   O65     1.415   1_655 S
C282   C1257   1.532   .     S
C285   H286    1.110   .     S
C285   C288    1.523   .     S
C285   C1254   1.532   1_554 S
C285   H71     1.111   1_655 S
C288   H291    1.110   .     S
C288   H290    1.110   .     S
C288   H289    1.110   .     S
O292   C293    1.413   .     S
C293   H294    1.112   .     S
C293   H295    1.116   .     S
C293   C80     1.531   1_655 S
C296   C299    1.527   .     S
C296   H297    1.112   .     S
C296   H946    1.112   1_545 S
H298   C620    1.112   .     S
C299   H301    1.110   .     S
C299   H1920   1.110   1_544 S
C299   H1274   1.111   1_554 S
H300   C1595   1.110   .     S
H302   C1271   1.111   .     S
O303   C304    1.419   .     S
C304   C307    1.534   .     S
C304   H306    1.116   .     S
C304   H305    1.109   .     S
C307   H956    1.111   1_545 S
C307   H957    1.108   1_545 S
C307   C94     1.521   1_655 S
H308   C631    1.111   .     S
H309   C631    1.108   .     S
C310   H313    1.109   .     S
C310   H311    1.110   .     S
C310   H960    1.108   1_545 S
H312   C634    1.108   .     S
O314   C315    1.417   .     S
C315   C318    1.544   .     S
C315   H316    1.109   .     S
C315   H317    1.115   .     S
C318   C321    1.524   .     S
C318   H643    1.107   .     S
C318   H644    1.111   .     S
H319   C966    1.107   1_545 S
H320   C966    1.111   1_545 S
C321   H324    1.111   .     S
C321   H322    1.107   .     S
C321   H647    1.110   .     S
H323   C969    1.110   1_545 S
C325   C336    1.418   .     S
C325   O371    1.280   .     A
C325   O373    1.284   .     A
C326   O374    1.288   .     A
C326   C335    1.422   .     S
C326   O372    1.279   .     A
C327   C356    1.408   .     A
C327   H361    1.083   .     S
C327   C329    1.393   .     A
C328   H362    1.082   .     S
C328   C330    1.401   .     A
C328   C355    1.412   .     A
C329   H357    1.081   .     S
C329   C1325   1.404   1_554 S
C330   H358    1.083   .     S
C330   C1326   1.405   .     S
C331   C336    1.392   .     A
C331   H363    1.085   .     S
C331   C657    1.372   .     S
C332   C335    1.393   .     A
C332   H364    1.083   .     S
C333   C335    1.408   .     A
C333   O411    1.383   .     S
C334   O422    1.381   .     S
C334   C336    1.404   .     A
C334   C656    1.373   .     S
C337   H365    1.082   .     S
C337   N370    1.366   .     A
C337   C447    1.416   .     S
C338   H366    1.082   .     S
C338   N369    1.366   .     A
C338   C556    1.416   1_455 S
C339   N369    1.367   .     A
C339   H367    1.082   .     S
C339   C553    1.416   1_455 S
C340   H368    1.080   .     S
C340   N370    1.366   .     A
C340   C446    1.416   .     S
C341   O375    1.299   .     A
C341   O377    1.293   .     A
C341   C343    1.474   .     S
C342   O376    1.295   .     A
C342   C344    1.463   .     S
C342   O378    1.290   .     A
C343   C347    1.403   .     A
C343   C349    1.416   .     A
C344   C348    1.403   .     A
C344   C350    1.403   .     A
C345   O389    1.384   .     S
C345   C353    1.406   .     A
C345   C347    1.398   .     A
C346   O400    1.382   .     S
C346   C348    1.402   .     A
C346   C354    1.409   .     A
C347   H360    1.083   .     S
C348   H359    1.084   .     S
C349   C385    1.521   .     S
C349   C351    1.410   .     A
C350   C352    1.404   .     A
C350   C381    1.517   .     S
C351   C353    1.420   .     A
C351   C355    1.412   .     A
C352   C356    1.404   .     A
C352   C354    1.415   .     A
C353   C1301   1.404   .     S
C354   C1302   1.405   1_554 S
C355   C1328   1.395   .     S
C356   C1327   1.395   1_554 S
N369   Zn379   2.010   .     S
N370   Zn380   2.010   .     S
O371   Zn379   2.007   .     S
O372   Zn380   2.007   .     S
O373   Zn380   1.996   .     S
O374   Zn379   1.996   .     S
O375   Zn379   1.946   .     S
O376   Zn380   1.946   .     S
O377   Zn380   1.927   .     S
O378   Zn379   1.927   .     S
C381   H383    1.109   .     S
C381   H384    1.107   .     S
C381   H382    1.110   .     S
C385   H386    1.109   .     S
C385   H388    1.110   .     S
C385   H387    1.110   .     S
O389   C606    1.415   1_455 S
C390   H392    1.114   .     S
C390   H391    1.111   .     S
C390   O497    1.415   .     S
C390   C1365   1.532   .     S
C393   H394    1.110   .     S
C393   C396    1.523   .     S
C393   C1362   1.532   1_554 S
C393   H503    1.111   .     S
H395   C609    1.111   1_455 S
C396   H399    1.110   .     S
C396   H398    1.110   .     S
C396   H397    1.110   .     S
O400   C401    1.413   .     S
C401   H402    1.112   .     S
C401   H403    1.116   .     S
C401   C512    1.531   .     S
C404   C407    1.527   .     S
C404   H405    1.112   .     S
C404   C617    1.531   1_455 S
H406   C728    1.112   .     S
C407   H409    1.110   .     S
C407   H1056   1.110   1_554 S
C407   H1382   1.111   1_554 S
H408   C1703   1.110   .     S
H410   C1379   1.111   .     S
O411   C412    1.419   .     S
C412   C415    1.534   .     S
C412   H414    1.116   .     S
C412   H413    1.109   .     S
C415   C526    1.521   .     S
H416   C739    1.111   .     S
H417   C739    1.108   .     S
C418   H421    1.109   .     S
C418   H419    1.110   .     S
C418   C631    1.521   1_455 S
H420   C742    1.108   .     S
O422   C423    1.417   .     S
C423   C426    1.544   .     S
C423   H424    1.109   .     S
C423   H425    1.115   .     S
C426   C429    1.524   .     S
C426   H751    1.107   .     S
C426   H752    1.111   .     S
C429   H432    1.111   .     S
C429   H430    1.107   .     S
C429   H755    1.110   .     S
C433   C444    1.418   .     S
C433   O479    1.280   .     A
C433   O481    1.284   .     A
C434   O482    1.288   .     A
C434   C443    1.422   .     S
C434   O480    1.279   .     A
C435   C464    1.408   .     A
C435   H469    1.083   .     S
C435   C437    1.393   .     A
C436   H470    1.082   .     S
C436   C438    1.401   .     A
C436   C463    1.412   .     A
C437   H465    1.081   .     S
C437   C1433   1.404   1_554 S
C438   H466    1.083   .     S
C438   C1434   1.405   .     S
C439   C444    1.392   .     A
C439   H471    1.085   .     S
C439   C765    1.372   .     S
C440   C443    1.393   .     A
C440   H472    1.083   .     S
C441   C443    1.408   .     A
C441   O519    1.383   .     S
C442   O530    1.381   .     S
C442   C444    1.404   .     A
C442   C764    1.373   .     S
C445   H473    1.082   .     S
C445   N478    1.366   .     A
C445   C555    1.416   .     S
C446   H474    1.082   .     S
C446   N477    1.366   .     A
C447   N477    1.367   .     A
C447   H475    1.082   .     S
C448   H476    1.080   .     S
C448   N478    1.366   .     A
C448   C554    1.416   .     S
C449   O483    1.299   .     A
C449   O485    1.293   .     A
C449   C451    1.474   .     S
C450   O484    1.295   .     A
C450   C452    1.463   .     S
C450   O486    1.290   .     A
C451   C455    1.403   .     A
C451   C457    1.416   .     A
C452   C456    1.403   .     A
C452   C458    1.403   .     A
C453   O497    1.384   .     S
C453   C461    1.406   .     A
C453   C455    1.398   .     A
C454   O508    1.382   .     S
C454   C456    1.402   .     A
C454   C462    1.409   .     A
C455   H468    1.083   .     S
C456   H467    1.084   .     S
C457   C493    1.521   .     S
C457   C459    1.410   .     A
C458   C460    1.404   .     A
C458   C489    1.517   .     S
C459   C461    1.420   .     A
C459   C463    1.412   .     A
C460   C464    1.404   .     A
C460   C462    1.415   .     A
C461   C1409   1.404   .     S
C462   C1410   1.405   1_554 S
C463   C1436   1.395   .     S
C464   C1435   1.395   1_554 S
N477   Zn487   2.010   .     S
N478   Zn488   2.010   .     S
O479   Zn487   2.007   .     S
O480   Zn488   2.007   .     S
O481   Zn488   1.996   .     S
O482   Zn487   1.996   .     S
O483   Zn487   1.946   .     S
O484   Zn488   1.946   .     S
O485   Zn488   1.927   .     S
O486   Zn487   1.927   .     S
C489   H491    1.109   .     S
C489   H492    1.107   .     S
C489   H490    1.110   .     S
C493   H494    1.109   .     S
C493   H496    1.110   .     S
C493   H495    1.110   .     S
C498   H500    1.114   .     S
C498   H499    1.111   .     S
C498   O605    1.415   .     S
C498   C1473   1.532   .     S
C501   H502    1.110   .     S
C501   C504    1.523   .     S
C501   C1470   1.532   1_554 S
C501   H611    1.111   .     S
C504   H507    1.110   .     S
C504   H506    1.110   .     S
C504   H505    1.110   .     S
O508   C509    1.413   .     S
C509   H510    1.112   .     S
C509   H511    1.116   .     S
C509   C620    1.531   .     S
C512   C515    1.527   .     S
C512   H513    1.112   .     S
H514   C836    1.112   .     S
C515   H517    1.110   .     S
C515   H1164   1.110   1_554 S
C515   H1490   1.111   1_554 S
H516   C1811   1.110   .     S
H518   C1487   1.111   .     S
O519   C520    1.419   .     S
C520   C523    1.534   .     S
C520   H522    1.116   .     S
C520   H521    1.109   .     S
C523   C634    1.521   .     S
H524   C847    1.111   .     S
H525   C847    1.108   .     S
C526   H529    1.109   .     S
C526   H527    1.110   .     S
H528   C850    1.108   .     S
O530   C531    1.417   .     S
C531   C534    1.544   .     S
C531   H532    1.109   .     S
C531   H533    1.115   .     S
C534   C537    1.524   .     S
C534   H859    1.107   .     S
C534   H860    1.111   .     S
C537   H540    1.111   .     S
C537   H538    1.107   .     S
C537   H863    1.110   .     S
C541   C552    1.418   .     S
C541   O587    1.280   .     A
C541   O589    1.284   .     A
C542   O590    1.288   .     A
C542   C551    1.422   .     S
C542   O588    1.279   .     A
C543   C572    1.408   .     A
C543   H577    1.083   .     S
C543   C545    1.393   .     A
C544   H578    1.082   .     S
C544   C546    1.401   .     A
C544   C571    1.412   .     A
C545   H573    1.081   .     S
C545   C1541   1.404   1_554 S
C546   H574    1.083   .     S
C546   C1542   1.405   .     S
C547   C552    1.392   .     A
C547   H579    1.085   .     S
C547   C873    1.372   .     S
C548   C551    1.393   .     A
C548   H580    1.083   .     S
C549   C551    1.408   .     A
C549   O627    1.383   .     S
C550   O638    1.381   .     S
C550   C552    1.404   .     A
C550   C872    1.373   .     S
C553   H581    1.082   .     S
C553   N586    1.366   .     A
C553   C339    1.416   1_655 S
C554   H582    1.082   .     S
C554   N585    1.366   .     A
C555   N585    1.367   .     A
C555   H583    1.082   .     S
C556   H584    1.080   .     S
C556   N586    1.366   .     A
C556   C338    1.416   1_655 S
C557   O591    1.299   .     A
C557   O593    1.293   .     A
C557   C559    1.474   .     S
C558   O592    1.295   .     A
C558   C560    1.463   .     S
C558   O594    1.290   .     A
C559   C563    1.403   .     A
C559   C565    1.416   .     A
C560   C564    1.403   .     A
C560   C566    1.403   .     A
C561   O605    1.384   .     S
C561   C569    1.406   .     A
C561   C563    1.398   .     A
C562   O616    1.382   .     S
C562   C564    1.402   .     A
C562   C570    1.409   .     A
C563   H576    1.083   .     S
C564   H575    1.084   .     S
C565   C601    1.521   .     S
C565   C567    1.410   .     A
C566   C568    1.404   .     A
C566   C597    1.517   .     S
C567   C569    1.420   .     A
C567   C571    1.412   .     A
C568   C572    1.404   .     A
C568   C570    1.415   .     A
C569   C1517   1.404   .     S
C570   C1518   1.405   1_554 S
C571   C1544   1.395   .     S
C572   C1543   1.395   1_554 S
N585   Zn595   2.010   .     S
N586   Zn596   2.010   .     S
O587   Zn595   2.007   .     S
O588   Zn596   2.007   .     S
O589   Zn596   1.996   .     S
O590   Zn595   1.996   .     S
O591   Zn595   1.946   .     S
O592   Zn596   1.946   .     S
O593   Zn596   1.927   .     S
O594   Zn595   1.927   .     S
C597   H599    1.109   .     S
C597   H600    1.107   .     S
C597   H598    1.110   .     S
C601   H602    1.109   .     S
C601   H604    1.110   .     S
C601   H603    1.110   .     S
C606   H608    1.114   .     S
C606   H607    1.111   .     S
C606   O389    1.415   1_655 S
C606   C1581   1.532   .     S
C609   H610    1.110   .     S
C609   C612    1.523   .     S
C609   C1578   1.532   1_554 S
C609   H395    1.111   1_655 S
C612   H615    1.110   .     S
C612   H614    1.110   .     S
C612   H613    1.110   .     S
O616   C617    1.413   .     S
C617   H618    1.112   .     S
C617   H619    1.116   .     S
C617   C404    1.531   1_655 S
C620   C623    1.527   .     S
C620   H621    1.112   .     S
H622   C944    1.112   .     S
C623   H625    1.110   .     S
C623   H1272   1.110   1_554 S
C623   H1598   1.111   1_554 S
H624   C1919   1.110   .     S
H626   C1595   1.111   .     S
O627   C628    1.419   .     S
C628   C631    1.534   .     S
C628   H630    1.116   .     S
C628   H629    1.109   .     S
C631   C418    1.521   1_655 S
H632   C955    1.111   .     S
H633   C955    1.108   .     S
C634   H637    1.109   .     S
C634   H635    1.110   .     S
H636   C958    1.108   .     S
O638   C639    1.417   .     S
C639   C642    1.544   .     S
C639   H640    1.109   .     S
C639   H641    1.115   .     S
C642   C645    1.524   .     S
C642   H967    1.107   .     S
C642   H968    1.111   .     S
C645   H648    1.111   .     S
C645   H646    1.107   .     S
C645   H971    1.110   .     S
C649   C660    1.418   .     S
C649   O695    1.280   .     A
C649   O697    1.284   .     A
C650   O698    1.288   .     A
C650   C659    1.422   .     S
C650   O696    1.279   .     A
C651   C680    1.408   .     A
C651   H685    1.083   .     S
C651   C653    1.393   .     A
C652   H686    1.082   .     S
C652   C654    1.401   .     A
C652   C679    1.412   .     A
C653   H681    1.081   .     S
C653   C1649   1.404   1_554 S
C654   H682    1.083   .     S
C654   C1650   1.405   .     S
C655   C660    1.392   .     A
C655   H687    1.085   .     S
C655   C9      1.372   1_565 S
C656   C659    1.393   .     A
C656   H688    1.083   .     S
C657   C659    1.408   .     A
C657   O735    1.383   .     S
C658   O746    1.381   .     S
C658   C660    1.404   .     A
C658   C8      1.373   1_565 S
C661   H689    1.082   .     S
C661   N694    1.366   .     A
C661   C771    1.416   .     S
C662   H690    1.082   .     S
C662   N693    1.366   .     A
C662   C880    1.416   1_455 S
C663   N693    1.367   .     A
C663   H691    1.082   .     S
C663   C877    1.416   1_455 S
C664   H692    1.080   .     S
C664   N694    1.366   .     A
C664   C770    1.416   .     S
C665   O699    1.299   .     A
C665   O701    1.293   .     A
C665   C667    1.474   .     S
C666   O700    1.295   .     A
C666   C668    1.463   .     S
C666   O702    1.290   .     A
C667   C671    1.403   .     A
C667   C673    1.416   .     A
C668   C672    1.403   .     A
C668   C674    1.403   .     A
C669   O713    1.384   .     S
C669   C677    1.406   .     A
C669   C671    1.398   .     A
C670   O724    1.382   .     S
C670   C672    1.402   .     A
C670   C678    1.409   .     A
C671   H684    1.083   .     S
C672   H683    1.084   .     S
C673   C709    1.521   .     S
C673   C675    1.410   .     A
C674   C676    1.404   .     A
C674   C705    1.517   .     S
C675   C677    1.420   .     A
C675   C679    1.412   .     A
C676   C680    1.404   .     A
C676   C678    1.415   .     A
C677   C1625   1.404   .     S
C678   C1626   1.405   1_554 S
C679   C1652   1.395   .     S
C680   C1651   1.395   1_554 S
N693   Zn703   2.010   .     S
N694   Zn704   2.010   .     S
O695   Zn703   2.007   .     S
O696   Zn704   2.007   .     S
O697   Zn704   1.996   .     S
O698   Zn703   1.996   .     S
O699   Zn703   1.946   .     S
O700   Zn704   1.946   .     S
O701   Zn704   1.927   .     S
O702   Zn703   1.927   .     S
C705   H707    1.109   .     S
C705   H708    1.107   .     S
C705   H706    1.110   .     S
C709   H710    1.109   .     S
C709   H712    1.110   .     S
C709   H711    1.110   .     S
O713   C930    1.415   1_455 S
C714   H716    1.114   .     S
C714   H715    1.111   .     S
C714   O821    1.415   .     S
C714   C1689   1.532   .     S
C717   H718    1.110   .     S
C717   C720    1.523   .     S
C717   C1686   1.532   1_554 S
C717   H827    1.111   .     S
H719   C933    1.111   1_455 S
C720   H723    1.110   .     S
C720   H722    1.110   .     S
C720   H721    1.110   .     S
O724   C725    1.413   .     S
C725   H726    1.112   .     S
C725   H727    1.116   .     S
C725   C836    1.531   .     S
C728   C731    1.527   .     S
C728   H729    1.112   .     S
C728   C941    1.531   1_455 S
H730   C80     1.112   1_565 S
C731   H733    1.110   .     S
C731   H1380   1.110   1_554 S
C731   H1706   1.111   1_554 S
H732   C1055   1.110   1_565 S
H734   C1703   1.111   .     S
O735   C736    1.419   .     S
C736   C739    1.534   .     S
C736   H738    1.116   .     S
C736   H737    1.109   .     S
C739   C850    1.521   .     S
H740   C91     1.111   1_565 S
H741   C91     1.108   1_565 S
C742   H745    1.109   .     S
C742   H743    1.110   .     S
C742   C955    1.521   1_455 S
H744   C94     1.108   1_565 S
O746   C747    1.417   .     S
C747   C750    1.544   .     S
C747   H748    1.109   .     S
C747   H749    1.115   .     S
C750   C753    1.524   .     S
C750   H103    1.107   1_565 S
C750   H104    1.111   1_565 S
C753   H756    1.111   .     S
C753   H754    1.107   .     S
C753   H107    1.110   1_565 S
C757   C768    1.418   .     S
C757   O803    1.280   .     A
C757   O805    1.284   .     A
C758   O806    1.288   .     A
C758   C767    1.422   .     S
C758   O804    1.279   .     A
C759   C788    1.408   .     A
C759   H793    1.083   .     S
C759   C761    1.393   .     A
C760   H794    1.082   .     S
C760   C762    1.401   .     A
C760   C787    1.412   .     A
C761   H789    1.081   .     S
C761   C1757   1.404   1_554 S
C762   H790    1.083   .     S
C762   C1758   1.405   .     S
C763   C768    1.392   .     A
C763   H795    1.085   .     S
C763   C117    1.372   1_565 S
C764   C767    1.393   .     A
C764   H796    1.083   .     S
C765   C767    1.408   .     A
C765   O843    1.383   .     S
C766   O854    1.381   .     S
C766   C768    1.404   .     A
C766   C116    1.373   1_565 S
C769   H797    1.082   .     S
C769   N802    1.366   .     A
C769   C879    1.416   .     S
C770   H798    1.082   .     S
C770   N801    1.366   .     A
C771   N801    1.367   .     A
C771   H799    1.082   .     S
C772   H800    1.080   .     S
C772   N802    1.366   .     A
C772   C878    1.416   .     S
C773   O807    1.299   .     A
C773   O809    1.293   .     A
C773   C775    1.474   .     S
C774   O808    1.295   .     A
C774   C776    1.463   .     S
C774   O810    1.290   .     A
C775   C779    1.403   .     A
C775   C781    1.416   .     A
C776   C780    1.403   .     A
C776   C782    1.403   .     A
C777   O821    1.384   .     S
C777   C785    1.406   .     A
C777   C779    1.398   .     A
C778   O832    1.382   .     S
C778   C780    1.402   .     A
C778   C786    1.409   .     A
C779   H792    1.083   .     S
C780   H791    1.084   .     S
C781   C817    1.521   .     S
C781   C783    1.410   .     A
C782   C784    1.404   .     A
C782   C813    1.517   .     S
C783   C785    1.420   .     A
C783   C787    1.412   .     A
C784   C788    1.404   .     A
C784   C786    1.415   .     A
C785   C1733   1.404   .     S
C786   C1734   1.405   1_554 S
C787   C1760   1.395   .     S
C788   C1759   1.395   1_554 S
N801   Zn811   2.010   .     S
N802   Zn812   2.010   .     S
O803   Zn811   2.007   .     S
O804   Zn812   2.007   .     S
O805   Zn812   1.996   .     S
O806   Zn811   1.996   .     S
O807   Zn811   1.946   .     S
O808   Zn812   1.946   .     S
O809   Zn812   1.927   .     S
O810   Zn811   1.927   .     S
C813   H815    1.109   .     S
C813   H816    1.107   .     S
C813   H814    1.110   .     S
C817   H818    1.109   .     S
C817   H820    1.110   .     S
C817   H819    1.110   .     S
C822   H824    1.114   .     S
C822   H823    1.111   .     S
C822   O929    1.415   .     S
C822   C1797   1.532   .     S
C825   H826    1.110   .     S
C825   C828    1.523   .     S
C825   C1794   1.532   1_554 S
C825   H935    1.111   .     S
C828   H831    1.110   .     S
C828   H830    1.110   .     S
C828   H829    1.110   .     S
O832   C833    1.413   .     S
C833   H834    1.112   .     S
C833   H835    1.116   .     S
C833   C944    1.531   .     S
C836   C839    1.527   .     S
C836   H837    1.112   .     S
H838   C188    1.112   1_565 S
C839   H841    1.110   .     S
C839   H1488   1.110   1_554 S
C839   H1814   1.111   1_554 S
H840   C1163   1.110   1_565 S
H842   C1811   1.111   .     S
O843   C844    1.419   .     S
C844   C847    1.534   .     S
C844   H846    1.116   .     S
C844   H845    1.109   .     S
C847   C958    1.521   .     S
H848   C199    1.111   1_565 S
H849   C199    1.108   1_565 S
C850   H853    1.109   .     S
C850   H851    1.110   .     S
H852   C202    1.108   1_565 S
O854   C855    1.417   .     S
C855   C858    1.544   .     S
C855   H856    1.109   .     S
C855   H857    1.115   .     S
C858   C861    1.524   .     S
C858   H211    1.107   1_565 S
C858   H212    1.111   1_565 S
C861   H864    1.111   .     S
C861   H862    1.107   .     S
C861   H215    1.110   1_565 S
C865   C876    1.418   .     S
C865   O911    1.280   .     A
C865   O913    1.284   .     A
C866   O914    1.288   .     A
C866   C875    1.422   .     S
C866   O912    1.279   .     A
C867   C896    1.408   .     A
C867   H901    1.083   .     S
C867   C869    1.393   .     A
C868   H902    1.082   .     S
C868   C870    1.401   .     A
C868   C895    1.412   .     A
C869   H897    1.081   .     S
C869   C1865   1.404   1_554 S
C870   H898    1.083   .     S
C870   C1866   1.405   .     S
C871   C876    1.392   .     A
C871   H903    1.085   .     S
C871   C225    1.372   1_565 S
C872   C875    1.393   .     A
C872   H904    1.083   .     S
C873   C875    1.408   .     A
C873   O951    1.383   .     S
C874   O962    1.381   .     S
C874   C876    1.404   .     A
C874   C224    1.373   1_565 S
C877   H905    1.082   .     S
C877   N910    1.366   .     A
C877   C663    1.416   1_655 S
C878   H906    1.082   .     S
C878   N909    1.366   .     A
C879   N909    1.367   .     A
C879   H907    1.082   .     S
C880   H908    1.080   .     S
C880   N910    1.366   .     A
C880   C662    1.416   1_655 S
C881   O915    1.299   .     A
C881   O917    1.293   .     A
C881   C883    1.474   .     S
C882   O916    1.295   .     A
C882   C884    1.463   .     S
C882   O918    1.290   .     A
C883   C887    1.403   .     A
C883   C889    1.416   .     A
C884   C888    1.403   .     A
C884   C890    1.403   .     A
C885   O929    1.384   .     S
C885   C893    1.406   .     A
C885   C887    1.398   .     A
C886   O940    1.382   .     S
C886   C888    1.402   .     A
C886   C894    1.409   .     A
C887   H900    1.083   .     S
C888   H899    1.084   .     S
C889   C925    1.521   .     S
C889   C891    1.410   .     A
C890   C892    1.404   .     A
C890   C921    1.517   .     S
C891   C893    1.420   .     A
C891   C895    1.412   .     A
C892   C896    1.404   .     A
C892   C894    1.415   .     A
C893   C1841   1.404   .     S
C894   C1842   1.405   1_554 S
C895   C1868   1.395   .     S
C896   C1867   1.395   1_554 S
N909   Zn919   2.010   .     S
N910   Zn920   2.010   .     S
O911   Zn919   2.007   .     S
O912   Zn920   2.007   .     S
O913   Zn920   1.996   .     S
O914   Zn919   1.996   .     S
O915   Zn919   1.946   .     S
O916   Zn920   1.946   .     S
O917   Zn920   1.927   .     S
O918   Zn919   1.927   .     S
C921   H923    1.109   .     S
C921   H924    1.107   .     S
C921   H922    1.110   .     S
C925   H926    1.109   .     S
C925   H928    1.110   .     S
C925   H927    1.110   .     S
C930   H932    1.114   .     S
C930   H931    1.111   .     S
C930   O713    1.415   1_655 S
C930   C1905   1.532   .     S
C933   H934    1.110   .     S
C933   C936    1.523   .     S
C933   C1902   1.532   1_554 S
C933   H719    1.111   1_655 S
C936   H939    1.110   .     S
C936   H938    1.110   .     S
C936   H937    1.110   .     S
O940   C941    1.413   .     S
C941   H942    1.112   .     S
C941   H943    1.116   .     S
C941   C728    1.531   1_655 S
C944   C947    1.527   .     S
C944   H945    1.112   .     S
H946   C296    1.112   1_565 S
C947   H949    1.110   .     S
C947   H1596   1.110   1_554 S
C947   H1922   1.111   1_554 S
H948   C1271   1.110   1_565 S
H950   C1919   1.111   .     S
O951   C952    1.419   .     S
C952   C955    1.534   .     S
C952   H954    1.116   .     S
C952   H953    1.109   .     S
C955   C742    1.521   1_655 S
H956   C307    1.111   1_565 S
H957   C307    1.108   1_565 S
C958   H961    1.109   .     S
C958   H959    1.110   .     S
H960   C310    1.108   1_565 S
O962   C963    1.417   .     S
C963   C966    1.544   .     S
C963   H964    1.109   .     S
C963   H965    1.115   .     S
C966   C969    1.524   .     S
C966   H319    1.107   1_565 S
C966   H320    1.111   1_565 S
C969   H972    1.111   .     S
C969   H970    1.107   .     S
C969   H323    1.110   1_565 S
C973   C984    1.418   .     S
C973   O1019   1.280   .     A
C973   O1021   1.284   .     A
C974   O1022   1.288   .     A
C974   C983    1.422   .     S
C974   O1020   1.279   .     A
C975   C1004   1.408   .     A
C975   H1009   1.083   .     S
C975   C977    1.393   .     A
C976   H1010   1.082   .     S
C976   C978    1.401   .     A
C976   C1003   1.412   .     A
C977   H1005   1.081   .     S
C978   H1006   1.083   .     S
C978   C30     1.405   1_556 S
C979   C984    1.392   .     A
C979   H1011   1.085   .     S
C979   C1305   1.372   .     S
C980   C983    1.393   .     A
C980   H1012   1.083   .     S
C980   C1630   1.373   1_545 S
C981   C983    1.408   .     A
C981   O1059   1.383   .     S
C981   C1627   1.372   1_545 S
C982   O1070   1.381   .     S
C982   C984    1.404   .     A
C982   C1304   1.373   .     S
C985   H1013   1.082   .     S
C985   N1018   1.366   .     A
C985   C1095   1.416   .     S
C986   H1014   1.082   .     S
C986   N1017   1.366   .     A
C986   C1204   1.416   1_455 S
C987   N1017   1.367   .     A
C987   H1015   1.082   .     S
C987   C1201   1.416   1_455 S
C988   H1016   1.080   .     S
C988   N1018   1.366   .     A
C988   C1094   1.416   .     S
C989   O1023   1.299   .     A
C989   O1025   1.293   .     A
C989   C991    1.474   .     S
C990   O1024   1.295   .     A
C990   C992    1.463   .     S
C990   O1026   1.290   .     A
C991   C995    1.403   .     A
C991   C997    1.416   .     A
C992   C996    1.403   .     A
C992   C998    1.403   .     A
C993   O1037   1.384   .     S
C993   C1001   1.406   .     A
C993   C995    1.398   .     A
C994   O1048   1.382   .     S
C994   C996    1.402   .     A
C994   C1002   1.409   .     A
C995   H1008   1.083   .     S
C996   H1007   1.084   .     S
C997   C1033   1.521   .     S
C997   C999    1.410   .     A
C998   C1000   1.404   .     A
C998   C1029   1.517   .     S
C999   C1001   1.420   .     A
C999   C1003   1.412   .     A
C1000  C1004   1.404   .     A
C1000  C1002   1.415   .     A
C1001  C5      1.404   1_556 S
C1003  C32     1.395   1_556 S
N1017  Zn1027  2.010   .     S
N1018  Zn1028  2.010   .     S
O1019  Zn1027  2.007   .     S
O1020  Zn1028  2.007   .     S
O1021  Zn1028  1.996   .     S
O1022  Zn1027  1.996   .     S
O1023  Zn1027  1.946   .     S
O1024  Zn1028  1.946   .     S
O1025  Zn1028  1.927   .     S
O1026  Zn1027  1.927   .     S
C1029  H1031   1.109   .     S
C1029  H1032   1.107   .     S
C1029  H1030   1.110   .     S
C1033  H1034   1.109   .     S
C1033  H1036   1.110   .     S
C1033  H1035   1.110   .     S
O1037  C1254   1.415   1_455 S
C1038  H1040   1.114   .     S
C1038  H1039   1.111   .     S
C1038  O1145   1.415   .     S
C1038  C69     1.532   1_556 S
C1041  H1042   1.110   .     S
C1041  C1044   1.523   .     S
C1041  H1151   1.111   .     S
H1043  C1257   1.111   1_455 S
C1044  H1047   1.110   .     S
C1044  H1046   1.110   .     S
C1044  H1045   1.110   .     S
O1048  C1049   1.413   .     S
C1049  H1050   1.112   .     S
C1049  H1051   1.116   .     S
C1049  C1160   1.531   .     S
C1052  C1055   1.527   .     S
C1052  H1053   1.112   .     S
C1052  C1265   1.531   1_455 S
C1052  H1702   1.112   1_545 S
H1054  C1376   1.112   .     S
C1055  H1057   1.110   .     S
C1055  H732    1.110   1_545 S
H1056  C407    1.110   1_556 S
H1058  C83     1.111   1_556 S
O1059  C1060   1.419   .     S
C1060  C1063   1.534   .     S
C1060  H1062   1.116   .     S
C1060  H1061   1.109   .     S
C1063  H1712   1.111   1_545 S
C1063  H1713   1.108   1_545 S
C1063  C1174   1.521   .     S
H1064  C1387   1.111   .     S
H1065  C1387   1.108   .     S
C1066  H1069   1.109   .     S
C1066  H1067   1.110   .     S
C1066  C1279   1.521   1_455 S
C1066  H1716   1.108   1_545 S
H1068  C1390   1.108   .     S
O1070  C1071   1.417   .     S
C1071  C1074   1.544   .     S
C1071  H1072   1.109   .     S
C1071  H1073   1.115   .     S
C1074  C1077   1.524   .     S
C1074  H1399   1.107   .     S
C1074  H1400   1.111   .     S
H1075  C1722   1.107   1_545 S
H1076  C1722   1.111   1_545 S
C1077  H1080   1.111   .     S
C1077  H1078   1.107   .     S
C1077  H1403   1.110   .     S
H1079  C1725   1.110   1_545 S
C1081  C1092   1.418   .     S
C1081  O1127   1.280   .     A
C1081  O1129   1.284   .     A
C1082  O1130   1.288   .     A
C1082  C1091   1.422   .     S
C1082  O1128   1.279   .     A
C1083  C1112   1.408   .     A
C1083  H1117   1.083   .     S
C1083  C1085   1.393   .     A
C1084  H1118   1.082   .     S
C1084  C1086   1.401   .     A
C1084  C1111   1.412   .     A
C1085  H1113   1.081   .     S
C1086  H1114   1.083   .     S
C1086  C138    1.405   1_556 S
C1087  C1092   1.392   .     A
C1087  H1119   1.085   .     S
C1087  C1413   1.372   .     S
C1088  C1091   1.393   .     A
C1088  H1120   1.083   .     S
C1088  C1738   1.373   1_545 S
C1089  C1091   1.408   .     A
C1089  O1167   1.383   .     S
C1089  C1735   1.372   1_545 S
C1090  O1178   1.381   .     S
C1090  C1092   1.404   .     A
C1090  C1412   1.373   .     S
C1093  H1121   1.082   .     S
C1093  N1126   1.366   .     A
C1093  C1203   1.416   .     S
C1094  H1122   1.082   .     S
C1094  N1125   1.366   .     A
C1095  N1125   1.367   .     A
C1095  H1123   1.082   .     S
C1096  H1124   1.080   .     S
C1096  N1126   1.366   .     A
C1096  C1202   1.416   .     S
C1097  O1131   1.299   .     A
C1097  O1133   1.293   .     A
C1097  C1099   1.474   .     S
C1098  O1132   1.295   .     A
C1098  C1100   1.463   .     S
C1098  O1134   1.290   .     A
C1099  C1103   1.403   .     A
C1099  C1105   1.416   .     A
C1100  C1104   1.403   .     A
C1100  C1106   1.403   .     A
C1101  O1145   1.384   .     S
C1101  C1109   1.406   .     A
C1101  C1103   1.398   .     A
C1102  O1156   1.382   .     S
C1102  C1104   1.402   .     A
C1102  C1110   1.409   .     A
C1103  H1116   1.083   .     S
C1104  H1115   1.084   .     S
C1105  C1141   1.521   .     S
C1105  C1107   1.410   .     A
C1106  C1108   1.404   .     A
C1106  C1137   1.517   .     S
C1107  C1109   1.420   .     A
C1107  C1111   1.412   .     A
C1108  C1112   1.404   .     A
C1108  C1110   1.415   .     A
C1109  C113    1.404   1_556 S
C1111  C140    1.395   1_556 S
N1125  Zn1135  2.010   .     S
N1126  Zn1136  2.010   .     S
O1127  Zn1135  2.007   .     S
O1128  Zn1136  2.007   .     S
O1129  Zn1136  1.996   .     S
O1130  Zn1135  1.996   .     S
O1131  Zn1135  1.946   .     S
O1132  Zn1136  1.946   .     S
O1133  Zn1136  1.927   .     S
O1134  Zn1135  1.927   .     S
C1137  H1139   1.109   .     S
C1137  H1140   1.107   .     S
C1137  H1138   1.110   .     S
C1141  H1142   1.109   .     S
C1141  H1144   1.110   .     S
C1141  H1143   1.110   .     S
C1146  H1148   1.114   .     S
C1146  H1147   1.111   .     S
C1146  O1253   1.415   .     S
C1146  C177    1.532   1_556 S
C1149  H1150   1.110   .     S
C1149  C1152   1.523   .     S
C1149  H1259   1.111   .     S
C1152  H1155   1.110   .     S
C1152  H1154   1.110   .     S
C1152  H1153   1.110   .     S
O1156  C1157   1.413   .     S
C1157  H1158   1.112   .     S
C1157  H1159   1.116   .     S
C1157  C1268   1.531   .     S
C1160  C1163   1.527   .     S
C1160  H1161   1.112   .     S
C1160  H1810   1.112   1_545 S
H1162  C1484   1.112   .     S
C1163  H1165   1.110   .     S
C1163  H840    1.110   1_545 S
H1164  C515    1.110   1_556 S
H1166  C191    1.111   1_556 S
O1167  C1168   1.419   .     S
C1168  C1171   1.534   .     S
C1168  H1170   1.116   .     S
C1168  H1169   1.109   .     S
C1171  H1820   1.111   1_545 S
C1171  H1821   1.108   1_545 S
C1171  C1282   1.521   .     S
H1172  C1495   1.111   .     S
H1173  C1495   1.108   .     S
C1174  H1177   1.109   .     S
C1174  H1175   1.110   .     S
C1174  H1824   1.108   1_545 S
H1176  C1498   1.108   .     S
O1178  C1179   1.417   .     S
C1179  C1182   1.544   .     S
C1179  H1180   1.109   .     S
C1179  H1181   1.115   .     S
C1182  C1185   1.524   .     S
C1182  H1507   1.107   .     S
C1182  H1508   1.111   .     S
H1183  C1830   1.107   1_545 S
H1184  C1830   1.111   1_545 S
C1185  H1188   1.111   .     S
C1185  H1186   1.107   .     S
C1185  H1511   1.110   .     S
H1187  C1833   1.110   1_545 S
C1189  C1200   1.418   .     S
C1189  O1235   1.280   .     A
C1189  O1237   1.284   .     A
C1190  O1238   1.288   .     A
C1190  C1199   1.422   .     S
C1190  O1236   1.279   .     A
C1191  C1220   1.408   .     A
C1191  H1225   1.083   .     S
C1191  C1193   1.393   .     A
C1192  H1226   1.082   .     S
C1192  C1194   1.401   .     A
C1192  C1219   1.412   .     A
C1193  H1221   1.081   .     S
C1194  H1222   1.083   .     S
C1194  C246    1.405   1_556 S
C1195  C1200   1.392   .     A
C1195  H1227   1.085   .     S
C1195  C1521   1.372   .     S
C1196  C1199   1.393   .     A
C1196  H1228   1.083   .     S
C1196  C1846   1.373   1_545 S
C1197  C1199   1.408   .     A
C1197  O1275   1.383   .     S
C1197  C1843   1.372   1_545 S
C1198  O1286   1.381   .     S
C1198  C1200   1.404   .     A
C1198  C1520   1.373   .     S
C1201  H1229   1.082   .     S
C1201  N1234   1.366   .     A
C1201  C987    1.416   1_655 S
C1202  H1230   1.082   .     S
C1202  N1233   1.366   .     A
C1203  N1233   1.367   .     A
C1203  H1231   1.082   .     S
C1204  H1232   1.080   .     S
C1204  N1234   1.366   .     A
C1204  C986    1.416   1_655 S
C1205  O1239   1.299   .     A
C1205  O1241   1.293   .     A
C1205  C1207   1.474   .     S
C1206  O1240   1.295   .     A
C1206  C1208   1.463   .     S
C1206  O1242   1.290   .     A
C1207  C1211   1.403   .     A
C1207  C1213   1.416   .     A
C1208  C1212   1.403   .     A
C1208  C1214   1.403   .     A
C1209  O1253   1.384   .     S
C1209  C1217   1.406   .     A
C1209  C1211   1.398   .     A
C1210  O1264   1.382   .     S
C1210  C1212   1.402   .     A
C1210  C1218   1.409   .     A
C1211  H1224   1.083   .     S
C1212  H1223   1.084   .     S
C1213  C1249   1.521   .     S
C1213  C1215   1.410   .     A
C1214  C1216   1.404   .     A
C1214  C1245   1.517   .     S
C1215  C1217   1.420   .     A
C1215  C1219   1.412   .     A
C1216  C1220   1.404   .     A
C1216  C1218   1.415   .     A
C1217  C221    1.404   1_556 S
C1219  C248    1.395   1_556 S
N1233  Zn1243  2.010   .     S
N1234  Zn1244  2.010   .     S
O1235  Zn1243  2.007   .     S
O1236  Zn1244  2.007   .     S
O1237  Zn1244  1.996   .     S
O1238  Zn1243  1.996   .     S
O1239  Zn1243  1.946   .     S
O1240  Zn1244  1.946   .     S
O1241  Zn1244  1.927   .     S
O1242  Zn1243  1.927   .     S
C1245  H1247   1.109   .     S
C1245  H1248   1.107   .     S
C1245  H1246   1.110   .     S
C1249  H1250   1.109   .     S
C1249  H1252   1.110   .     S
C1249  H1251   1.110   .     S
C1254  H1256   1.114   .     S
C1254  H1255   1.111   .     S
C1254  O1037   1.415   1_655 S
C1254  C285    1.532   1_556 S
C1257  H1258   1.110   .     S
C1257  C1260   1.523   .     S
C1257  H1043   1.111   1_655 S
C1260  H1263   1.110   .     S
C1260  H1262   1.110   .     S
C1260  H1261   1.110   .     S
O1264  C1265   1.413   .     S
C1265  H1266   1.112   .     S
C1265  H1267   1.116   .     S
C1265  C1052   1.531   1_655 S
C1268  C1271   1.527   .     S
C1268  H1269   1.112   .     S
C1268  H1918   1.112   1_545 S
H1270  C1592   1.112   .     S
C1271  H1273   1.110   .     S
C1271  H948    1.110   1_545 S
H1272  C623    1.110   1_556 S
H1274  C299    1.111   1_556 S
O1275  C1276   1.419   .     S
C1276  C1279   1.534   .     S
C1276  H1278   1.116   .     S
C1276  H1277   1.109   .     S
C1279  H1928   1.111   1_545 S
C1279  H1929   1.108   1_545 S
C1279  C1066   1.521   1_655 S
H1280  C1603   1.111   .     S
H1281  C1603   1.108   .     S
C1282  H1285   1.109   .     S
C1282  H1283   1.110   .     S
C1282  H1932   1.108   1_545 S
H1284  C1606   1.108   .     S
O1286  C1287   1.417   .     S
C1287  C1290   1.544   .     S
C1287  H1288   1.109   .     S
C1287  H1289   1.115   .     S
C1290  C1293   1.524   .     S
C1290  H1615   1.107   .     S
C1290  H1616   1.111   .     S
H1291  C1938   1.107   1_545 S
H1292  C1938   1.111   1_545 S
C1293  H1296   1.111   .     S
C1293  H1294   1.107   .     S
C1293  H1619   1.110   .     S
H1295  C1941   1.110   1_545 S
C1297  C1308   1.418   .     S
C1297  O1343   1.280   .     A
C1297  O1345   1.284   .     A
C1298  O1346   1.288   .     A
C1298  C1307   1.422   .     S
C1298  O1344   1.279   .     A
C1299  C1328   1.408   .     A
C1299  H1333   1.083   .     S
C1299  C1301   1.393   .     A
C1300  H1334   1.082   .     S
C1300  C1302   1.401   .     A
C1300  C1327   1.412   .     A
C1301  H1329   1.081   .     S
C1302  H1330   1.083   .     S
C1302  C354    1.405   1_556 S
C1303  C1308   1.392   .     A
C1303  H1335   1.085   .     S
C1303  C1629   1.372   .     S
C1304  C1307   1.393   .     A
C1304  H1336   1.083   .     S
C1305  C1307   1.408   .     A
C1305  O1383   1.383   .     S
C1306  O1394   1.381   .     S
C1306  C1308   1.404   .     A
C1306  C1628   1.373   .     S
C1309  H1337   1.082   .     S
C1309  N1342   1.366   .     A
C1309  C1419   1.416   .     S
C1310  H1338   1.082   .     S
C1310  N1341   1.366   .     A
C1310  C1528   1.416   1_455 S
C1311  N1341   1.367   .     A
C1311  H1339   1.082   .     S
C1311  C1525   1.416   1_455 S
C1312  H1340   1.080   .     S
C1312  N1342   1.366   .     A
C1312  C1418   1.416   .     S
C1313  O1347   1.299   .     A
C1313  O1349   1.293   .     A
C1313  C1315   1.474   .     S
C1314  O1348   1.295   .     A
C1314  C1316   1.463   .     S
C1314  O1350   1.290   .     A
C1315  C1319   1.403   .     A
C1315  C1321   1.416   .     A
C1316  C1320   1.403   .     A
C1316  C1322   1.403   .     A
C1317  O1361   1.384   .     S
C1317  C1325   1.406   .     A
C1317  C1319   1.398   .     A
C1318  O1372   1.382   .     S
C1318  C1320   1.402   .     A
C1318  C1326   1.409   .     A
C1319  H1332   1.083   .     S
C1320  H1331   1.084   .     S
C1321  C1357   1.521   .     S
C1321  C1323   1.410   .     A
C1322  C1324   1.404   .     A
C1322  C1353   1.517   .     S
C1323  C1325   1.420   .     A
C1323  C1327   1.412   .     A
C1324  C1328   1.404   .     A
C1324  C1326   1.415   .     A
C1325  C329    1.404   1_556 S
C1327  C356    1.395   1_556 S
N1341  Zn1351  2.010   .     S
N1342  Zn1352  2.010   .     S
O1343  Zn1351  2.007   .     S
O1344  Zn1352  2.007   .     S
O1345  Zn1352  1.996   .     S
O1346  Zn1351  1.996   .     S
O1347  Zn1351  1.946   .     S
O1348  Zn1352  1.946   .     S
O1349  Zn1352  1.927   .     S
O1350  Zn1351  1.927   .     S
C1353  H1355   1.109   .     S
C1353  H1356   1.107   .     S
C1353  H1354   1.110   .     S
C1357  H1358   1.109   .     S
C1357  H1360   1.110   .     S
C1357  H1359   1.110   .     S
O1361  C1578   1.415   1_455 S
C1362  H1364   1.114   .     S
C1362  H1363   1.111   .     S
C1362  O1469   1.415   .     S
C1362  C393    1.532   1_556 S
C1365  H1366   1.110   .     S
C1365  C1368   1.523   .     S
C1365  H1475   1.111   .     S
H1367  C1581   1.111   1_455 S
C1368  H1371   1.110   .     S
C1368  H1370   1.110   .     S
C1368  H1369   1.110   .     S
O1372  C1373   1.413   .     S
C1373  H1374   1.112   .     S
C1373  H1375   1.116   .     S
C1373  C1484   1.531   .     S
C1376  C1379   1.527   .     S
C1376  H1377   1.112   .     S
C1376  C1589   1.531   1_455 S
H1378  C1700   1.112   .     S
C1379  H1381   1.110   .     S
H1380  C731    1.110   1_556 S
H1382  C407    1.111   1_556 S
O1383  C1384   1.419   .     S
C1384  C1387   1.534   .     S
C1384  H1386   1.116   .     S
C1384  H1385   1.109   .     S
C1387  C1498   1.521   .     S
H1388  C1711   1.111   .     S
H1389  C1711   1.108   .     S
C1390  H1393   1.109   .     S
C1390  H1391   1.110   .     S
C1390  C1603   1.521   1_455 S
H1392  C1714   1.108   .     S
O1394  C1395   1.417   .     S
C1395  C1398   1.544   .     S
C1395  H1396   1.109   .     S
C1395  H1397   1.115   .     S
C1398  C1401   1.524   .     S
C1398  H1723   1.107   .     S
C1398  H1724   1.111   .     S
C1401  H1404   1.111   .     S
C1401  H1402   1.107   .     S
C1401  H1727   1.110   .     S
C1405  C1416   1.418   .     S
C1405  O1451   1.280   .     A
C1405  O1453   1.284   .     A
C1406  O1454   1.288   .     A
C1406  C1415   1.422   .     S
C1406  O1452   1.279   .     A
C1407  C1436   1.408   .     A
C1407  H1441   1.083   .     S
C1407  C1409   1.393   .     A
C1408  H1442   1.082   .     S
C1408  C1410   1.401   .     A
C1408  C1435   1.412   .     A
C1409  H1437   1.081   .     S
C1410  H1438   1.083   .     S
C1410  C462    1.405   1_556 S
C1411  C1416   1.392   .     A
C1411  H1443   1.085   .     S
C1411  C1737   1.372   .     S
C1412  C1415   1.393   .     A
C1412  H1444   1.083   .     S
C1413  C1415   1.408   .     A
C1413  O1491   1.383   .     S
C1414  O1502   1.381   .     S
C1414  C1416   1.404   .     A
C1414  C1736   1.373   .     S
C1417  H1445   1.082   .     S
C1417  N1450   1.366   .     A
C1417  C1527   1.416   .     S
C1418  H1446   1.082   .     S
C1418  N1449   1.366   .     A
C1419  N1449   1.367   .     A
C1419  H1447   1.082   .     S
C1420  H1448   1.080   .     S
C1420  N1450   1.366   .     A
C1420  C1526   1.416   .     S
C1421  O1455   1.299   .     A
C1421  O1457   1.293   .     A
C1421  C1423   1.474   .     S
C1422  O1456   1.295   .     A
C1422  C1424   1.463   .     S
C1422  O1458   1.290   .     A
C1423  C1427   1.403   .     A
C1423  C1429   1.416   .     A
C1424  C1428   1.403   .     A
C1424  C1430   1.403   .     A
C1425  O1469   1.384   .     S
C1425  C1433   1.406   .     A
C1425  C1427   1.398   .     A
C1426  O1480   1.382   .     S
C1426  C1428   1.402   .     A
C1426  C1434   1.409   .     A
C1427  H1440   1.083   .     S
C1428  H1439   1.084   .     S
C1429  C1465   1.521   .     S
C1429  C1431   1.410   .     A
C1430  C1432   1.404   .     A
C1430  C1461   1.517   .     S
C1431  C1433   1.420   .     A
C1431  C1435   1.412   .     A
C1432  C1436   1.404   .     A
C1432  C1434   1.415   .     A
C1433  C437    1.404   1_556 S
C1435  C464    1.395   1_556 S
N1449  Zn1459  2.010   .     S
N1450  Zn1460  2.010   .     S
O1451  Zn1459  2.007   .     S
O1452  Zn1460  2.007   .     S
O1453  Zn1460  1.996   .     S
O1454  Zn1459  1.996   .     S
O1455  Zn1459  1.946   .     S
O1456  Zn1460  1.946   .     S
O1457  Zn1460  1.927   .     S
O1458  Zn1459  1.927   .     S
C1461  H1463   1.109   .     S
C1461  H1464   1.107   .     S
C1461  H1462   1.110   .     S
C1465  H1466   1.109   .     S
C1465  H1468   1.110   .     S
C1465  H1467   1.110   .     S
C1470  H1472   1.114   .     S
C1470  H1471   1.111   .     S
C1470  O1577   1.415   .     S
C1470  C501    1.532   1_556 S
C1473  H1474   1.110   .     S
C1473  C1476   1.523   .     S
C1473  H1583   1.111   .     S
C1476  H1479   1.110   .     S
C1476  H1478   1.110   .     S
C1476  H1477   1.110   .     S
O1480  C1481   1.413   .     S
C1481  H1482   1.112   .     S
C1481  H1483   1.116   .     S
C1481  C1592   1.531   .     S
C1484  C1487   1.527   .     S
C1484  H1485   1.112   .     S
H1486  C1808   1.112   .     S
C1487  H1489   1.110   .     S
H1488  C839    1.110   1_556 S
H1490  C515    1.111   1_556 S
O1491  C1492   1.419   .     S
C1492  C1495   1.534   .     S
C1492  H1494   1.116   .     S
C1492  H1493   1.109   .     S
C1495  C1606   1.521   .     S
H1496  C1819   1.111   .     S
H1497  C1819   1.108   .     S
C1498  H1501   1.109   .     S
C1498  H1499   1.110   .     S
H1500  C1822   1.108   .     S
O1502  C1503   1.417   .     S
C1503  C1506   1.544   .     S
C1503  H1504   1.109   .     S
C1503  H1505   1.115   .     S
C1506  C1509   1.524   .     S
C1506  H1831   1.107   .     S
C1506  H1832   1.111   .     S
C1509  H1512   1.111   .     S
C1509  H1510   1.107   .     S
C1509  H1835   1.110   .     S
C1513  C1524   1.418   .     S
C1513  O1559   1.280   .     A
C1513  O1561   1.284   .     A
C1514  O1562   1.288   .     A
C1514  C1523   1.422   .     S
C1514  O1560   1.279   .     A
C1515  C1544   1.408   .     A
C1515  H1549   1.083   .     S
C1515  C1517   1.393   .     A
C1516  H1550   1.082   .     S
C1516  C1518   1.401   .     A
C1516  C1543   1.412   .     A
C1517  H1545   1.081   .     S
C1518  H1546   1.083   .     S
C1518  C570    1.405   1_556 S
C1519  C1524   1.392   .     A
C1519  H1551   1.085   .     S
C1519  C1845   1.372   .     S
C1520  C1523   1.393   .     A
C1520  H1552   1.083   .     S
C1521  C1523   1.408   .     A
C1521  O1599   1.383   .     S
C1522  O1610   1.381   .     S
C1522  C1524   1.404   .     A
C1522  C1844   1.373   .     S
C1525  H1553   1.082   .     S
C1525  N1558   1.366   .     A
C1525  C1311   1.416   1_655 S
C1526  H1554   1.082   .     S
C1526  N1557   1.366   .     A
C1527  N1557   1.367   .     A
C1527  H1555   1.082   .     S
C1528  H1556   1.080   .     S
C1528  N1558   1.366   .     A
C1528  C1310   1.416   1_655 S
C1529  O1563   1.299   .     A
C1529  O1565   1.293   .     A
C1529  C1531   1.474   .     S
C1530  O1564   1.295   .     A
C1530  C1532   1.463   .     S
C1530  O1566   1.290   .     A
C1531  C1535   1.403   .     A
C1531  C1537   1.416   .     A
C1532  C1536   1.403   .     A
C1532  C1538   1.403   .     A
C1533  O1577   1.384   .     S
C1533  C1541   1.406   .     A
C1533  C1535   1.398   .     A
C1534  O1588   1.382   .     S
C1534  C1536   1.402   .     A
C1534  C1542   1.409   .     A
C1535  H1548   1.083   .     S
C1536  H1547   1.084   .     S
C1537  C1573   1.521   .     S
C1537  C1539   1.410   .     A
C1538  C1540   1.404   .     A
C1538  C1569   1.517   .     S
C1539  C1541   1.420   .     A
C1539  C1543   1.412   .     A
C1540  C1544   1.404   .     A
C1540  C1542   1.415   .     A
C1541  C545    1.404   1_556 S
C1543  C572    1.395   1_556 S
N1557  Zn1567  2.010   .     S
N1558  Zn1568  2.010   .     S
O1559  Zn1567  2.007   .     S
O1560  Zn1568  2.007   .     S
O1561  Zn1568  1.996   .     S
O1562  Zn1567  1.996   .     S
O1563  Zn1567  1.946   .     S
O1564  Zn1568  1.946   .     S
O1565  Zn1568  1.927   .     S
O1566  Zn1567  1.927   .     S
C1569  H1571   1.109   .     S
C1569  H1572   1.107   .     S
C1569  H1570   1.110   .     S
C1573  H1574   1.109   .     S
C1573  H1576   1.110   .     S
C1573  H1575   1.110   .     S
C1578  H1580   1.114   .     S
C1578  H1579   1.111   .     S
C1578  O1361   1.415   1_655 S
C1578  C609    1.532   1_556 S
C1581  H1582   1.110   .     S
C1581  C1584   1.523   .     S
C1581  H1367   1.111   1_655 S
C1584  H1587   1.110   .     S
C1584  H1586   1.110   .     S
C1584  H1585   1.110   .     S
O1588  C1589   1.413   .     S
C1589  H1590   1.112   .     S
C1589  H1591   1.116   .     S
C1589  C1376   1.531   1_655 S
C1592  C1595   1.527   .     S
C1592  H1593   1.112   .     S
H1594  C1916   1.112   .     S
C1595  H1597   1.110   .     S
H1596  C947    1.110   1_556 S
H1598  C623    1.111   1_556 S
O1599  C1600   1.419   .     S
C1600  C1603   1.534   .     S
C1600  H1602   1.116   .     S
C1600  H1601   1.109   .     S
C1603  C1390   1.521   1_655 S
H1604  C1927   1.111   .     S
H1605  C1927   1.108   .     S
C1606  H1609   1.109   .     S
C1606  H1607   1.110   .     S
H1608  C1930   1.108   .     S
O1610  C1611   1.417   .     S
C1611  C1614   1.544   .     S
C1611  H1612   1.109   .     S
C1611  H1613   1.115   .     S
C1614  C1617   1.524   .     S
C1614  H1939   1.107   .     S
C1614  H1940   1.111   .     S
C1617  H1620   1.111   .     S
C1617  H1618   1.107   .     S
C1617  H1943   1.110   .     S
C1621  C1632   1.418   .     S
C1621  O1667   1.280   .     A
C1621  O1669   1.284   .     A
C1622  O1670   1.288   .     A
C1622  C1631   1.422   .     S
C1622  O1668   1.279   .     A
C1623  C1652   1.408   .     A
C1623  H1657   1.083   .     S
C1623  C1625   1.393   .     A
C1624  H1658   1.082   .     S
C1624  C1626   1.401   .     A
C1624  C1651   1.412   .     A
C1625  H1653   1.081   .     S
C1626  H1654   1.083   .     S
C1626  C678    1.405   1_556 S
C1627  C1632   1.392   .     A
C1627  H1659   1.085   .     S
C1627  C981    1.372   1_565 S
C1628  C1631   1.393   .     A
C1628  H1660   1.083   .     S
C1629  C1631   1.408   .     A
C1629  O1707   1.383   .     S
C1630  O1718   1.381   .     S
C1630  C1632   1.404   .     A
C1630  C980    1.373   1_565 S
C1633  H1661   1.082   .     S
C1633  N1666   1.366   .     A
C1633  C1743   1.416   .     S
C1634  H1662   1.082   .     S
C1634  N1665   1.366   .     A
C1634  C1852   1.416   1_455 S
C1635  N1665   1.367   .     A
C1635  H1663   1.082   .     S
C1635  C1849   1.416   1_455 S
C1636  H1664   1.080   .     S
C1636  N1666   1.366   .     A
C1636  C1742   1.416   .     S
C1637  O1671   1.299   .     A
C1637  O1673   1.293   .     A
C1637  C1639   1.474   .     S
C1638  O1672   1.295   .     A
C1638  C1640   1.463   .     S
C1638  O1674   1.290   .     A
C1639  C1643   1.403   .     A
C1639  C1645   1.416   .     A
C1640  C1644   1.403   .     A
C1640  C1646   1.403   .     A
C1641  O1685   1.384   .     S
C1641  C1649   1.406   .     A
C1641  C1643   1.398   .     A
C1642  O1696   1.382   .     S
C1642  C1644   1.402   .     A
C1642  C1650   1.409   .     A
C1643  H1656   1.083   .     S
C1644  H1655   1.084   .     S
C1645  C1681   1.521   .     S
C1645  C1647   1.410   .     A
C1646  C1648   1.404   .     A
C1646  C1677   1.517   .     S
C1647  C1649   1.420   .     A
C1647  C1651   1.412   .     A
C1648  C1652   1.404   .     A
C1648  C1650   1.415   .     A
C1649  C653    1.404   1_556 S
C1651  C680    1.395   1_556 S
N1665  Zn1675  2.010   .     S
N1666  Zn1676  2.010   .     S
O1667  Zn1675  2.007   .     S
O1668  Zn1676  2.007   .     S
O1669  Zn1676  1.996   .     S
O1670  Zn1675  1.996   .     S
O1671  Zn1675  1.946   .     S
O1672  Zn1676  1.946   .     S
O1673  Zn1676  1.927   .     S
O1674  Zn1675  1.927   .     S
C1677  H1679   1.109   .     S
C1677  H1680   1.107   .     S
C1677  H1678   1.110   .     S
C1681  H1682   1.109   .     S
C1681  H1684   1.110   .     S
C1681  H1683   1.110   .     S
O1685  C1902   1.415   1_455 S
C1686  H1688   1.114   .     S
C1686  H1687   1.111   .     S
C1686  O1793   1.415   .     S
C1686  C717    1.532   1_556 S
C1689  H1690   1.110   .     S
C1689  C1692   1.523   .     S
C1689  H1799   1.111   .     S
H1691  C1905   1.111   1_455 S
C1692  H1695   1.110   .     S
C1692  H1694   1.110   .     S
C1692  H1693   1.110   .     S
O1696  C1697   1.413   .     S
C1697  H1698   1.112   .     S
C1697  H1699   1.116   .     S
C1697  C1808   1.531   .     S
C1700  C1703   1.527   .     S
C1700  H1701   1.112   .     S
C1700  C1913   1.531   1_455 S
H1702  C1052   1.112   1_565 S
C1703  H1705   1.110   .     S
H1704  C83     1.110   1_566 S
H1706  C731    1.111   1_556 S
O1707  C1708   1.419   .     S
C1708  C1711   1.534   .     S
C1708  H1710   1.116   .     S
C1708  H1709   1.109   .     S
C1711  C1822   1.521   .     S
H1712  C1063   1.111   1_565 S
H1713  C1063   1.108   1_565 S
C1714  H1717   1.109   .     S
C1714  H1715   1.110   .     S
C1714  C1927   1.521   1_455 S
H1716  C1066   1.108   1_565 S
O1718  C1719   1.417   .     S
C1719  C1722   1.544   .     S
C1719  H1720   1.109   .     S
C1719  H1721   1.115   .     S
C1722  C1725   1.524   .     S
C1722  H1075   1.107   1_565 S
C1722  H1076   1.111   1_565 S
C1725  H1728   1.111   .     S
C1725  H1726   1.107   .     S
C1725  H1079   1.110   1_565 S
C1729  C1740   1.418   .     S
C1729  O1775   1.280   .     A
C1729  O1777   1.284   .     A
C1730  O1778   1.288   .     A
C1730  C1739   1.422   .     S
C1730  O1776   1.279   .     A
C1731  C1760   1.408   .     A
C1731  H1765   1.083   .     S
C1731  C1733   1.393   .     A
C1732  H1766   1.082   .     S
C1732  C1734   1.401   .     A
C1732  C1759   1.412   .     A
C1733  H1761   1.081   .     S
C1734  H1762   1.083   .     S
C1734  C786    1.405   1_556 S
C1735  C1740   1.392   .     A
C1735  H1767   1.085   .     S
C1735  C1089   1.372   1_565 S
C1736  C1739   1.393   .     A
C1736  H1768   1.083   .     S
C1737  C1739   1.408   .     A
C1737  O1815   1.383   .     S
C1738  O1826   1.381   .     S
C1738  C1740   1.404   .     A
C1738  C1088   1.373   1_565 S
C1741  H1769   1.082   .     S
C1741  N1774   1.366   .     A
C1741  C1851   1.416   .     S
C1742  H1770   1.082   .     S
C1742  N1773   1.366   .     A
C1743  N1773   1.367   .     A
C1743  H1771   1.082   .     S
C1744  H1772   1.080   .     S
C1744  N1774   1.366   .     A
C1744  C1850   1.416   .     S
C1745  O1779   1.299   .     A
C1745  O1781   1.293   .     A
C1745  C1747   1.474   .     S
C1746  O1780   1.295   .     A
C1746  C1748   1.463   .     S
C1746  O1782   1.290   .     A
C1747  C1751   1.403   .     A
C1747  C1753   1.416   .     A
C1748  C1752   1.403   .     A
C1748  C1754   1.403   .     A
C1749  O1793   1.384   .     S
C1749  C1757   1.406   .     A
C1749  C1751   1.398   .     A
C1750  O1804   1.382   .     S
C1750  C1752   1.402   .     A
C1750  C1758   1.409   .     A
C1751  H1764   1.083   .     S
C1752  H1763   1.084   .     S
C1753  C1789   1.521   .     S
C1753  C1755   1.410   .     A
C1754  C1756   1.404   .     A
C1754  C1785   1.517   .     S
C1755  C1757   1.420   .     A
C1755  C1759   1.412   .     A
C1756  C1760   1.404   .     A
C1756  C1758   1.415   .     A
C1757  C761    1.404   1_556 S
C1759  C788    1.395   1_556 S
N1773  Zn1783  2.010   .     S
N1774  Zn1784  2.010   .     S
O1775  Zn1783  2.007   .     S
O1776  Zn1784  2.007   .     S
O1777  Zn1784  1.996   .     S
O1778  Zn1783  1.996   .     S
O1779  Zn1783  1.946   .     S
O1780  Zn1784  1.946   .     S
O1781  Zn1784  1.927   .     S
O1782  Zn1783  1.927   .     S
C1785  H1787   1.109   .     S
C1785  H1788   1.107   .     S
C1785  H1786   1.110   .     S
C1789  H1790   1.109   .     S
C1789  H1792   1.110   .     S
C1789  H1791   1.110   .     S
C1794  H1796   1.114   .     S
C1794  H1795   1.111   .     S
C1794  O1901   1.415   .     S
C1794  C825    1.532   1_556 S
C1797  H1798   1.110   .     S
C1797  C1800   1.523   .     S
C1797  H1907   1.111   .     S
C1800  H1803   1.110   .     S
C1800  H1802   1.110   .     S
C1800  H1801   1.110   .     S
O1804  C1805   1.413   .     S
C1805  H1806   1.112   .     S
C1805  H1807   1.116   .     S
C1805  C1916   1.531   .     S
C1808  C1811   1.527   .     S
C1808  H1809   1.112   .     S
H1810  C1160   1.112   1_565 S
C1811  H1813   1.110   .     S
H1812  C191    1.110   1_566 S
H1814  C839    1.111   1_556 S
O1815  C1816   1.419   .     S
C1816  C1819   1.534   .     S
C1816  H1818   1.116   .     S
C1816  H1817   1.109   .     S
C1819  C1930   1.521   .     S
H1820  C1171   1.111   1_565 S
H1821  C1171   1.108   1_565 S
C1822  H1825   1.109   .     S
C1822  H1823   1.110   .     S
H1824  C1174   1.108   1_565 S
O1826  C1827   1.417   .     S
C1827  C1830   1.544   .     S
C1827  H1828   1.109   .     S
C1827  H1829   1.115   .     S
C1830  C1833   1.524   .     S
C1830  H1183   1.107   1_565 S
C1830  H1184   1.111   1_565 S
C1833  H1836   1.111   .     S
C1833  H1834   1.107   .     S
C1833  H1187   1.110   1_565 S
C1837  C1848   1.418   .     S
C1837  O1883   1.280   .     A
C1837  O1885   1.284   .     A
C1838  O1886   1.288   .     A
C1838  C1847   1.422   .     S
C1838  O1884   1.279   .     A
C1839  C1868   1.408   .     A
C1839  H1873   1.083   .     S
C1839  C1841   1.393   .     A
C1840  H1874   1.082   .     S
C1840  C1842   1.401   .     A
C1840  C1867   1.412   .     A
C1841  H1869   1.081   .     S
C1842  H1870   1.083   .     S
C1842  C894    1.405   1_556 S
C1843  C1848   1.392   .     A
C1843  H1875   1.085   .     S
C1843  C1197   1.372   1_565 S
C1844  C1847   1.393   .     A
C1844  H1876   1.083   .     S
C1845  C1847   1.408   .     A
C1845  O1923   1.383   .     S
C1846  O1934   1.381   .     S
C1846  C1848   1.404   .     A
C1846  C1196   1.373   1_565 S
C1849  H1877   1.082   .     S
C1849  N1882   1.366   .     A
C1849  C1635   1.416   1_655 S
C1850  H1878   1.082   .     S
C1850  N1881   1.366   .     A
C1851  N1881   1.367   .     A
C1851  H1879   1.082   .     S
C1852  H1880   1.080   .     S
C1852  N1882   1.366   .     A
C1852  C1634   1.416   1_655 S
C1853  O1887   1.299   .     A
C1853  O1889   1.293   .     A
C1853  C1855   1.474   .     S
C1854  O1888   1.295   .     A
C1854  C1856   1.463   .     S
C1854  O1890   1.290   .     A
C1855  C1859   1.403   .     A
C1855  C1861   1.416   .     A
C1856  C1860   1.403   .     A
C1856  C1862   1.403   .     A
C1857  O1901   1.384   .     S
C1857  C1865   1.406   .     A
C1857  C1859   1.398   .     A
C1858  O1912   1.382   .     S
C1858  C1860   1.402   .     A
C1858  C1866   1.409   .     A
C1859  H1872   1.083   .     S
C1860  H1871   1.084   .     S
C1861  C1897   1.521   .     S
C1861  C1863   1.410   .     A
C1862  C1864   1.404   .     A
C1862  C1893   1.517   .     S
C1863  C1865   1.420   .     A
C1863  C1867   1.412   .     A
C1864  C1868   1.404   .     A
C1864  C1866   1.415   .     A
C1865  C869    1.404   1_556 S
C1867  C896    1.395   1_556 S
N1881  Zn1891  2.010   .     S
N1882  Zn1892  2.010   .     S
O1883  Zn1891  2.007   .     S
O1884  Zn1892  2.007   .     S
O1885  Zn1892  1.996   .     S
O1886  Zn1891  1.996   .     S
O1887  Zn1891  1.946   .     S
O1888  Zn1892  1.946   .     S
O1889  Zn1892  1.927   .     S
O1890  Zn1891  1.927   .     S
C1893  H1895   1.109   .     S
C1893  H1896   1.107   .     S
C1893  H1894   1.110   .     S
C1897  H1898   1.109   .     S
C1897  H1900   1.110   .     S
C1897  H1899   1.110   .     S
C1902  H1904   1.114   .     S
C1902  H1903   1.111   .     S
C1902  O1685   1.415   1_655 S
C1902  C933    1.532   1_556 S
C1905  H1906   1.110   .     S
C1905  C1908   1.523   .     S
C1905  H1691   1.111   1_655 S
C1908  H1911   1.110   .     S
C1908  H1910   1.110   .     S
C1908  H1909   1.110   .     S
O1912  C1913   1.413   .     S
C1913  H1914   1.112   .     S
C1913  H1915   1.116   .     S
C1913  C1700   1.531   1_655 S
C1916  C1919   1.527   .     S
C1916  H1917   1.112   .     S
H1918  C1268   1.112   1_565 S
C1919  H1921   1.110   .     S
H1920  C299    1.110   1_566 S
H1922  C947    1.111   1_556 S
O1923  C1924   1.419   .     S
C1924  C1927   1.534   .     S
C1924  H1926   1.116   .     S
C1924  H1925   1.109   .     S
C1927  C1714   1.521   1_655 S
H1928  C1279   1.111   1_565 S
H1929  C1279   1.108   1_565 S
C1930  H1933   1.109   .     S
C1930  H1931   1.110   .     S
H1932  C1282   1.108   1_565 S
O1934  C1935   1.417   .     S
C1935  C1938   1.544   .     S
C1935  H1936   1.109   .     S
C1935  H1937   1.115   .     S
C1938  C1941   1.524   .     S
C1938  H1291   1.107   1_565 S
C1938  H1292   1.111   1_565 S
C1941  H1944   1.111   .     S
C1941  H1942   1.107   .     S
C1941  H1295   1.110   1_565 S
