data_str_m2_o1_o16_pcu_sym.96
_audit_creation_date              2020-01-03
_audit_creation_method            'Materials Studio'
_symmetry_space_group_name_H-M    'P1'
_symmetry_Int_Tables_number       1
_symmetry_cell_setting            triclinic
loop_
_symmetry_equiv_pos_as_xyz
  x,y,z
_cell_length_a                    28.6770
_cell_length_b                    32.4929
_cell_length_c                    26.8145
_cell_angle_alpha                 90.3195
_cell_angle_beta                  73.1330
_cell_angle_gamma                 89.8727
loop_
_atom_site_label
_atom_site_type_symbol
_atom_site_fract_x
_atom_site_fract_y
_atom_site_fract_z
_atom_site_U_iso_or_equiv
_atom_site_adp_type
_atom_site_occupancy
C1     C     0.16663   0.24594   0.25008   0.00000  Uiso   1.00
C2     C     0.12762   0.14953   0.40523   0.00000  Uiso   1.00
C3     C     0.20815   0.31198   0.25298   0.00000  Uiso   1.00
C4     C     0.14119   0.16136   0.34941   0.00000  Uiso   1.00
C5     C     0.20820   0.02123   0.25292   0.00000  Uiso   1.00
C6     C     0.16669   0.04277   0.25005   0.00000  Uiso   1.00
C7     C     0.12514   0.02137   0.24725   0.00000  Uiso   1.00
C8     C     0.12512   0.31213   0.24725   0.00000  Uiso   1.00
C9     C     0.16661   0.29058   0.25013   0.00000  Uiso   1.00
C10    C     0.30001   0.19350   0.28075   0.00000  Uiso   1.00
C11    C     0.01628   0.19365   0.28086   0.00000  Uiso   1.00
C12    C     0.14829   0.14328   0.48738   0.00000  Uiso   1.00
C13    C     0.03320   0.13993   0.21907   0.00000  Uiso   1.00
C14    C     0.31703   0.13994   0.21909   0.00000  Uiso   1.00
C15    C     0.16670   0.08740   0.24998   0.00000  Uiso   1.00
C16    C     0.19258   0.16651   0.14998   0.00000  Uiso   1.00
C17    C     0.26900   0.16105   0.00991   0.00000  Uiso   1.00
C18    C     0.20719   0.16340   0.09301   0.00000  Uiso   1.00
C19    C     0.07833   0.14439   0.43264   0.00000  Uiso   1.00
C20    C     0.06459   0.13548   0.48565   0.00000  Uiso   1.00
C21    C     0.09855   0.13700   0.01339   0.00000  Uiso   1.00
C22    C     0.16314   0.14325   0.43222   0.00000  Uiso   1.00
C23    C     0.18401   0.14911   0.01397   0.00000  Uiso   1.00
C24    C     0.23398   0.15007   0.48516   0.00000  Uiso   1.00
C25    C     0.24801   0.13937   0.43227   0.00000  Uiso   1.00
C26    C     0.21266   0.13538   0.40643   0.00000  Uiso   1.00
C27    C     0.17145   0.15597   0.06793   0.00000  Uiso   1.00
C28    C     0.25599   0.16690   0.06360   0.00000  Uiso   1.00
Cu29   Cu    0.11978   0.16666   0.25000   0.00000  Uiso   1.00
Cu30   Cu    0.21355   0.16667   0.25000   0.00000  Uiso   1.00
H31    H     0.28399   0.17421   0.08199   0.00000  Uiso   1.00
H32    H     0.08513   0.13141   0.05470   0.00000  Uiso   1.00
H33    H     0.02738   0.12801   0.00612   0.00000  Uiso   1.00
H34    H     0.22480   0.12438   0.36669   0.00000  Uiso   1.00
H35    H     0.24058   0.29591   0.25533   0.00000  Uiso   1.00
H36    H     0.01103   0.21719   0.35211   0.00000  Uiso   1.00
H37    H     0.02393   0.25184   0.30345   0.00000  Uiso   1.00
H38    H     0.30082   0.10087   0.39134   0.00000  Uiso   1.00
H39    H     0.30800   0.15042   0.37254   0.00000  Uiso   1.00
H40    H     0.13390   0.15617   0.09121   0.00000  Uiso   1.00
H41    H     0.24065   0.03718   0.25521   0.00000  Uiso   1.00
H42    H     0.09271   0.03743   0.24490   0.00000  Uiso   1.00
H43    H     0.09272   0.29619   0.24480   0.00000  Uiso   1.00
H44    H     0.27442   0.21487   0.30551   0.00000  Uiso   1.00
H45    H     0.05854   0.11846   0.19421   0.00000  Uiso   1.00
H46    H     0.30525   0.11848   0.19425   0.00000  Uiso   1.00
H47    H     0.30622   0.16611   0.48731   0.00000  Uiso   1.00
H48    H     0.05063   0.14636   0.41278   0.00000  Uiso   1.00
N49    N     0.04931   0.16666   0.24999   0.00000  Uiso   1.00
N50    N     0.28402   0.16669   0.25000   0.00000  Uiso   1.00
N51    N     0.03176   0.22213   0.31358   0.00000  Uiso   1.00
N52    N     0.29801   0.13126   0.40494   0.00000  Uiso   1.00
O53    O     0.12708   0.22678   0.25001   0.00000  Uiso   1.00
O54    O     0.20627   0.22679   0.25001   0.00000  Uiso   1.00
O55    O     0.10775   0.16665   0.32549   0.00000  Uiso   1.00
O56    O     0.18694   0.16666   0.32549   0.00000  Uiso   1.00
O57    O     0.12706   0.10654   0.25000   0.00000  Uiso   1.00
O58    O     0.20625   0.10655   0.25000   0.00000  Uiso   1.00
O59    O     0.14640   0.16667   0.17451   0.00000  Uiso   1.00
O60    O     0.22559   0.16668   0.17451   0.00000  Uiso   1.00
C61    C     0.49996   0.24594   0.25008   0.00000  Uiso   1.00
C62    C     0.46095   0.14953   0.40523   0.00000  Uiso   1.00
C63    C     0.54148   0.31198   0.25298   0.00000  Uiso   1.00
C64    C     0.47453   0.16136   0.34941   0.00000  Uiso   1.00
C65    C     0.54153   0.02123   0.25292   0.00000  Uiso   1.00
C66    C     0.50003   0.04277   0.25005   0.00000  Uiso   1.00
C67    C     0.45847   0.02137   0.24725   0.00000  Uiso   1.00
C68    C     0.45845   0.31213   0.24725   0.00000  Uiso   1.00
C69    C     0.49994   0.29058   0.25013   0.00000  Uiso   1.00
C70    C     0.63334   0.19350   0.28075   0.00000  Uiso   1.00
C71    C     0.34961   0.19365   0.28086   0.00000  Uiso   1.00
C72    C     0.48163   0.14328   0.48738   0.00000  Uiso   1.00
C73    C     0.36653   0.13993   0.21907   0.00000  Uiso   1.00
C74    C     0.65036   0.13994   0.21909   0.00000  Uiso   1.00
C75    C     0.50003   0.08740   0.24998   0.00000  Uiso   1.00
C76    C     0.52591   0.16651   0.14998   0.00000  Uiso   1.00
C77    C     0.60234   0.16105   0.00991   0.00000  Uiso   1.00
C78    C     0.54052   0.16340   0.09301   0.00000  Uiso   1.00
C79    C     0.41167   0.14439   0.43264   0.00000  Uiso   1.00
C80    C     0.39792   0.13548   0.48565   0.00000  Uiso   1.00
C81    C     0.43188   0.13700   0.01339   0.00000  Uiso   1.00
C82    C     0.49647   0.14325   0.43222   0.00000  Uiso   1.00
C83    C     0.51734   0.14911   0.01397   0.00000  Uiso   1.00
C84    C     0.56732   0.15007   0.48516   0.00000  Uiso   1.00
C85    C     0.58134   0.13937   0.43227   0.00000  Uiso   1.00
C86    C     0.54600   0.13538   0.40643   0.00000  Uiso   1.00
C87    C     0.50479   0.15597   0.06793   0.00000  Uiso   1.00
C88    C     0.58932   0.16690   0.06360   0.00000  Uiso   1.00
Cu89   Cu    0.45311   0.16666   0.25000   0.00000  Uiso   1.00
Cu90   Cu    0.54689   0.16667   0.25000   0.00000  Uiso   1.00
H91    H     0.61732   0.17421   0.08199   0.00000  Uiso   1.00
H92    H     0.41846   0.13141   0.05470   0.00000  Uiso   1.00
H93    H     0.36072   0.12801   0.00612   0.00000  Uiso   1.00
H94    H     0.55814   0.12438   0.36669   0.00000  Uiso   1.00
H95    H     0.57391   0.29591   0.25533   0.00000  Uiso   1.00
H96    H     0.34437   0.21719   0.35211   0.00000  Uiso   1.00
H97    H     0.35727   0.25184   0.30345   0.00000  Uiso   1.00
H98    H     0.63415   0.10087   0.39134   0.00000  Uiso   1.00
H99    H     0.64133   0.15042   0.37254   0.00000  Uiso   1.00
H100   H     0.46723   0.15617   0.09121   0.00000  Uiso   1.00
H101   H     0.57398   0.03718   0.25521   0.00000  Uiso   1.00
H102   H     0.42604   0.03743   0.24490   0.00000  Uiso   1.00
H103   H     0.42605   0.29619   0.24480   0.00000  Uiso   1.00
H104   H     0.60775   0.21487   0.30551   0.00000  Uiso   1.00
H105   H     0.39187   0.11846   0.19421   0.00000  Uiso   1.00
H106   H     0.63859   0.11848   0.19425   0.00000  Uiso   1.00
H107   H     0.63956   0.16611   0.48731   0.00000  Uiso   1.00
H108   H     0.38396   0.14636   0.41278   0.00000  Uiso   1.00
N109   N     0.38265   0.16666   0.24999   0.00000  Uiso   1.00
N110   N     0.61735   0.16669   0.25000   0.00000  Uiso   1.00
N111   N     0.36510   0.22213   0.31358   0.00000  Uiso   1.00
N112   N     0.63135   0.13126   0.40494   0.00000  Uiso   1.00
O113   O     0.46042   0.22678   0.25001   0.00000  Uiso   1.00
O114   O     0.53961   0.22679   0.25001   0.00000  Uiso   1.00
O115   O     0.44108   0.16665   0.32549   0.00000  Uiso   1.00
O116   O     0.52027   0.16666   0.32549   0.00000  Uiso   1.00
O117   O     0.46039   0.10654   0.25000   0.00000  Uiso   1.00
O118   O     0.53958   0.10655   0.25000   0.00000  Uiso   1.00
O119   O     0.47973   0.16667   0.17451   0.00000  Uiso   1.00
O120   O     0.55892   0.16668   0.17451   0.00000  Uiso   1.00
C121   C     0.83329   0.24594   0.25008   0.00000  Uiso   1.00
C122   C     0.79428   0.14953   0.40523   0.00000  Uiso   1.00
C123   C     0.87482   0.31198   0.25298   0.00000  Uiso   1.00
C124   C     0.80786   0.16136   0.34941   0.00000  Uiso   1.00
C125   C     0.87487   0.02123   0.25292   0.00000  Uiso   1.00
C126   C     0.83336   0.04277   0.25005   0.00000  Uiso   1.00
C127   C     0.79181   0.02137   0.24725   0.00000  Uiso   1.00
C128   C     0.79178   0.31213   0.24725   0.00000  Uiso   1.00
C129   C     0.83327   0.29058   0.25013   0.00000  Uiso   1.00
C130   C     0.96667   0.19350   0.28075   0.00000  Uiso   1.00
C131   C     0.68294   0.19365   0.28086   0.00000  Uiso   1.00
C132   C     0.81496   0.14328   0.48738   0.00000  Uiso   1.00
C133   C     0.69987   0.13993   0.21907   0.00000  Uiso   1.00
C134   C     0.98370   0.13994   0.21909   0.00000  Uiso   1.00
C135   C     0.83336   0.08740   0.24998   0.00000  Uiso   1.00
C136   C     0.85925   0.16651   0.14998   0.00000  Uiso   1.00
C137   C     0.93567   0.16105   0.00991   0.00000  Uiso   1.00
C138   C     0.87386   0.16340   0.09301   0.00000  Uiso   1.00
C139   C     0.74500   0.14439   0.43264   0.00000  Uiso   1.00
C140   C     0.73126   0.13548   0.48565   0.00000  Uiso   1.00
C141   C     0.76521   0.13700   0.01339   0.00000  Uiso   1.00
C142   C     0.82981   0.14325   0.43222   0.00000  Uiso   1.00
C143   C     0.85067   0.14911   0.01397   0.00000  Uiso   1.00
C144   C     0.90065   0.15007   0.48516   0.00000  Uiso   1.00
C145   C     0.91467   0.13937   0.43227   0.00000  Uiso   1.00
C146   C     0.87933   0.13538   0.40643   0.00000  Uiso   1.00
C147   C     0.83812   0.15597   0.06793   0.00000  Uiso   1.00
C148   C     0.92265   0.16690   0.06360   0.00000  Uiso   1.00
Cu149  Cu    0.78645   0.16666   0.25000   0.00000  Uiso   1.00
Cu150  Cu    0.88022   0.16667   0.25000   0.00000  Uiso   1.00
H151   H     0.95065   0.17421   0.08199   0.00000  Uiso   1.00
H152   H     0.75179   0.13141   0.05470   0.00000  Uiso   1.00
H153   H     0.69405   0.12801   0.00612   0.00000  Uiso   1.00
H154   H     0.89147   0.12438   0.36669   0.00000  Uiso   1.00
H155   H     0.90725   0.29591   0.25533   0.00000  Uiso   1.00
H156   H     0.67770   0.21719   0.35211   0.00000  Uiso   1.00
H157   H     0.69060   0.25184   0.30345   0.00000  Uiso   1.00
H158   H     0.96748   0.10087   0.39134   0.00000  Uiso   1.00
H159   H     0.97467   0.15042   0.37254   0.00000  Uiso   1.00
H160   H     0.80057   0.15617   0.09121   0.00000  Uiso   1.00
H161   H     0.90732   0.03718   0.25521   0.00000  Uiso   1.00
H162   H     0.75938   0.03743   0.24490   0.00000  Uiso   1.00
H163   H     0.75939   0.29619   0.24480   0.00000  Uiso   1.00
H164   H     0.94108   0.21487   0.30551   0.00000  Uiso   1.00
H165   H     0.72521   0.11846   0.19421   0.00000  Uiso   1.00
H166   H     0.97192   0.11848   0.19425   0.00000  Uiso   1.00
H167   H     0.97289   0.16611   0.48731   0.00000  Uiso   1.00
H168   H     0.71729   0.14636   0.41278   0.00000  Uiso   1.00
N169   N     0.71598   0.16666   0.24999   0.00000  Uiso   1.00
N170   N     0.95069   0.16669   0.25000   0.00000  Uiso   1.00
N171   N     0.69843   0.22213   0.31358   0.00000  Uiso   1.00
N172   N     0.96468   0.13126   0.40494   0.00000  Uiso   1.00
O173   O     0.79375   0.22678   0.25001   0.00000  Uiso   1.00
O174   O     0.87294   0.22679   0.25001   0.00000  Uiso   1.00
O175   O     0.77441   0.16665   0.32549   0.00000  Uiso   1.00
O176   O     0.85360   0.16666   0.32549   0.00000  Uiso   1.00
O177   O     0.79373   0.10654   0.25000   0.00000  Uiso   1.00
O178   O     0.87292   0.10655   0.25000   0.00000  Uiso   1.00
O179   O     0.81306   0.16667   0.17451   0.00000  Uiso   1.00
O180   O     0.89225   0.16668   0.17451   0.00000  Uiso   1.00
C181   C     0.16663   0.57927   0.25008   0.00000  Uiso   1.00
C182   C     0.12762   0.48287   0.40523   0.00000  Uiso   1.00
C183   C     0.20815   0.64531   0.25298   0.00000  Uiso   1.00
C184   C     0.14119   0.49469   0.34941   0.00000  Uiso   1.00
C185   C     0.20820   0.35456   0.25292   0.00000  Uiso   1.00
C186   C     0.16669   0.37610   0.25005   0.00000  Uiso   1.00
C187   C     0.12514   0.35470   0.24725   0.00000  Uiso   1.00
C188   C     0.12512   0.64546   0.24725   0.00000  Uiso   1.00
C189   C     0.16661   0.62391   0.25013   0.00000  Uiso   1.00
C190   C     0.30001   0.52684   0.28075   0.00000  Uiso   1.00
C191   C     0.01628   0.52698   0.28086   0.00000  Uiso   1.00
C192   C     0.14829   0.47661   0.48738   0.00000  Uiso   1.00
C193   C     0.03320   0.47326   0.21907   0.00000  Uiso   1.00
C194   C     0.31703   0.47327   0.21909   0.00000  Uiso   1.00
C195   C     0.16670   0.42073   0.24998   0.00000  Uiso   1.00
C196   C     0.19258   0.49985   0.14998   0.00000  Uiso   1.00
C197   C     0.26900   0.49438   0.00991   0.00000  Uiso   1.00
C198   C     0.20719   0.49673   0.09301   0.00000  Uiso   1.00
C199   C     0.07833   0.47772   0.43264   0.00000  Uiso   1.00
C200   C     0.06459   0.46881   0.48565   0.00000  Uiso   1.00
C201   C     0.09855   0.47033   0.01339   0.00000  Uiso   1.00
C202   C     0.16314   0.47658   0.43222   0.00000  Uiso   1.00
C203   C     0.18401   0.48244   0.01397   0.00000  Uiso   1.00
C204   C     0.23398   0.48340   0.48516   0.00000  Uiso   1.00
C205   C     0.24801   0.47270   0.43227   0.00000  Uiso   1.00
C206   C     0.21266   0.46871   0.40643   0.00000  Uiso   1.00
C207   C     0.17145   0.48930   0.06793   0.00000  Uiso   1.00
C208   C     0.25599   0.50023   0.06360   0.00000  Uiso   1.00
Cu209  Cu    0.11978   0.49999   0.25000   0.00000  Uiso   1.00
Cu210  Cu    0.21355   0.50001   0.25000   0.00000  Uiso   1.00
H211   H     0.28399   0.50754   0.08199   0.00000  Uiso   1.00
H212   H     0.08513   0.46474   0.05470   0.00000  Uiso   1.00
H213   H     0.02738   0.46134   0.00612   0.00000  Uiso   1.00
H214   H     0.22480   0.45772   0.36669   0.00000  Uiso   1.00
H215   H     0.24058   0.62924   0.25533   0.00000  Uiso   1.00
H216   H     0.01103   0.55052   0.35211   0.00000  Uiso   1.00
H217   H     0.02393   0.58517   0.30345   0.00000  Uiso   1.00
H218   H     0.30082   0.43420   0.39134   0.00000  Uiso   1.00
H219   H     0.30800   0.48376   0.37254   0.00000  Uiso   1.00
H220   H     0.13390   0.48950   0.09121   0.00000  Uiso   1.00
H221   H     0.24065   0.37052   0.25521   0.00000  Uiso   1.00
H222   H     0.09271   0.37077   0.24490   0.00000  Uiso   1.00
H223   H     0.09272   0.62953   0.24480   0.00000  Uiso   1.00
H224   H     0.27442   0.54820   0.30551   0.00000  Uiso   1.00
H225   H     0.05854   0.45180   0.19421   0.00000  Uiso   1.00
H226   H     0.30525   0.45182   0.19425   0.00000  Uiso   1.00
H227   H     0.30622   0.49944   0.48731   0.00000  Uiso   1.00
H228   H     0.05063   0.47969   0.41278   0.00000  Uiso   1.00
N229   N     0.04931   0.49999   0.24999   0.00000  Uiso   1.00
N230   N     0.28402   0.50002   0.25000   0.00000  Uiso   1.00
N231   N     0.03176   0.55547   0.31358   0.00000  Uiso   1.00
N232   N     0.29801   0.46459   0.40494   0.00000  Uiso   1.00
O233   O     0.12708   0.56011   0.25001   0.00000  Uiso   1.00
O234   O     0.20627   0.56012   0.25001   0.00000  Uiso   1.00
O235   O     0.10775   0.49998   0.32549   0.00000  Uiso   1.00
O236   O     0.18694   0.49999   0.32549   0.00000  Uiso   1.00
O237   O     0.12706   0.43988   0.25000   0.00000  Uiso   1.00
O238   O     0.20625   0.43989   0.25000   0.00000  Uiso   1.00
O239   O     0.14640   0.50001   0.17451   0.00000  Uiso   1.00
O240   O     0.22559   0.50002   0.17451   0.00000  Uiso   1.00
C241   C     0.49996   0.57927   0.25008   0.00000  Uiso   1.00
C242   C     0.46095   0.48287   0.40523   0.00000  Uiso   1.00
C243   C     0.54148   0.64531   0.25298   0.00000  Uiso   1.00
C244   C     0.47453   0.49469   0.34941   0.00000  Uiso   1.00
C245   C     0.54153   0.35456   0.25292   0.00000  Uiso   1.00
C246   C     0.50003   0.37610   0.25005   0.00000  Uiso   1.00
C247   C     0.45847   0.35470   0.24725   0.00000  Uiso   1.00
C248   C     0.45845   0.64546   0.24725   0.00000  Uiso   1.00
C249   C     0.49994   0.62391   0.25013   0.00000  Uiso   1.00
C250   C     0.63334   0.52684   0.28075   0.00000  Uiso   1.00
C251   C     0.34961   0.52698   0.28086   0.00000  Uiso   1.00
C252   C     0.48163   0.47661   0.48738   0.00000  Uiso   1.00
C253   C     0.36653   0.47326   0.21907   0.00000  Uiso   1.00
C254   C     0.65036   0.47327   0.21909   0.00000  Uiso   1.00
C255   C     0.50003   0.42073   0.24998   0.00000  Uiso   1.00
C256   C     0.52591   0.49985   0.14998   0.00000  Uiso   1.00
C257   C     0.60234   0.49438   0.00991   0.00000  Uiso   1.00
C258   C     0.54052   0.49673   0.09301   0.00000  Uiso   1.00
C259   C     0.41167   0.47772   0.43264   0.00000  Uiso   1.00
C260   C     0.39792   0.46881   0.48565   0.00000  Uiso   1.00
C261   C     0.43188   0.47033   0.01339   0.00000  Uiso   1.00
C262   C     0.49647   0.47658   0.43222   0.00000  Uiso   1.00
C263   C     0.51734   0.48244   0.01397   0.00000  Uiso   1.00
C264   C     0.56732   0.48340   0.48516   0.00000  Uiso   1.00
C265   C     0.58134   0.47270   0.43227   0.00000  Uiso   1.00
C266   C     0.54600   0.46871   0.40643   0.00000  Uiso   1.00
C267   C     0.50479   0.48930   0.06793   0.00000  Uiso   1.00
C268   C     0.58932   0.50023   0.06360   0.00000  Uiso   1.00
Cu269  Cu    0.45311   0.49999   0.25000   0.00000  Uiso   1.00
Cu270  Cu    0.54689   0.50001   0.25000   0.00000  Uiso   1.00
H271   H     0.61732   0.50754   0.08199   0.00000  Uiso   1.00
H272   H     0.41846   0.46474   0.05470   0.00000  Uiso   1.00
H273   H     0.36072   0.46134   0.00612   0.00000  Uiso   1.00
H274   H     0.55814   0.45772   0.36669   0.00000  Uiso   1.00
H275   H     0.57391   0.62924   0.25533   0.00000  Uiso   1.00
H276   H     0.34437   0.55052   0.35211   0.00000  Uiso   1.00
H277   H     0.35727   0.58517   0.30345   0.00000  Uiso   1.00
H278   H     0.63415   0.43420   0.39134   0.00000  Uiso   1.00
H279   H     0.64133   0.48376   0.37254   0.00000  Uiso   1.00
H280   H     0.46723   0.48950   0.09121   0.00000  Uiso   1.00
H281   H     0.57398   0.37052   0.25521   0.00000  Uiso   1.00
H282   H     0.42604   0.37077   0.24490   0.00000  Uiso   1.00
H283   H     0.42605   0.62953   0.24480   0.00000  Uiso   1.00
H284   H     0.60775   0.54820   0.30551   0.00000  Uiso   1.00
H285   H     0.39187   0.45180   0.19421   0.00000  Uiso   1.00
H286   H     0.63859   0.45182   0.19425   0.00000  Uiso   1.00
H287   H     0.63956   0.49944   0.48731   0.00000  Uiso   1.00
H288   H     0.38396   0.47969   0.41278   0.00000  Uiso   1.00
N289   N     0.38265   0.49999   0.24999   0.00000  Uiso   1.00
N290   N     0.61735   0.50002   0.25000   0.00000  Uiso   1.00
N291   N     0.36510   0.55547   0.31358   0.00000  Uiso   1.00
N292   N     0.63135   0.46459   0.40494   0.00000  Uiso   1.00
O293   O     0.46042   0.56011   0.25001   0.00000  Uiso   1.00
O294   O     0.53961   0.56012   0.25001   0.00000  Uiso   1.00
O295   O     0.44108   0.49998   0.32549   0.00000  Uiso   1.00
O296   O     0.52027   0.49999   0.32549   0.00000  Uiso   1.00
O297   O     0.46039   0.43988   0.25000   0.00000  Uiso   1.00
O298   O     0.53958   0.43989   0.25000   0.00000  Uiso   1.00
O299   O     0.47973   0.50001   0.17451   0.00000  Uiso   1.00
O300   O     0.55892   0.50002   0.17451   0.00000  Uiso   1.00
C301   C     0.83329   0.57927   0.25008   0.00000  Uiso   1.00
C302   C     0.79428   0.48287   0.40523   0.00000  Uiso   1.00
C303   C     0.87482   0.64531   0.25298   0.00000  Uiso   1.00
C304   C     0.80786   0.49469   0.34941   0.00000  Uiso   1.00
C305   C     0.87487   0.35456   0.25292   0.00000  Uiso   1.00
C306   C     0.83336   0.37610   0.25005   0.00000  Uiso   1.00
C307   C     0.79181   0.35470   0.24725   0.00000  Uiso   1.00
C308   C     0.79178   0.64546   0.24725   0.00000  Uiso   1.00
C309   C     0.83327   0.62391   0.25013   0.00000  Uiso   1.00
C310   C     0.96667   0.52684   0.28075   0.00000  Uiso   1.00
C311   C     0.68294   0.52698   0.28086   0.00000  Uiso   1.00
C312   C     0.81496   0.47661   0.48738   0.00000  Uiso   1.00
C313   C     0.69987   0.47326   0.21907   0.00000  Uiso   1.00
C314   C     0.98370   0.47327   0.21909   0.00000  Uiso   1.00
C315   C     0.83336   0.42073   0.24998   0.00000  Uiso   1.00
C316   C     0.85925   0.49985   0.14998   0.00000  Uiso   1.00
C317   C     0.93567   0.49438   0.00991   0.00000  Uiso   1.00
C318   C     0.87386   0.49673   0.09301   0.00000  Uiso   1.00
C319   C     0.74500   0.47772   0.43264   0.00000  Uiso   1.00
C320   C     0.73126   0.46881   0.48565   0.00000  Uiso   1.00
C321   C     0.76521   0.47033   0.01339   0.00000  Uiso   1.00
C322   C     0.82981   0.47658   0.43222   0.00000  Uiso   1.00
C323   C     0.85067   0.48244   0.01397   0.00000  Uiso   1.00
C324   C     0.90065   0.48340   0.48516   0.00000  Uiso   1.00
C325   C     0.91467   0.47270   0.43227   0.00000  Uiso   1.00
C326   C     0.87933   0.46871   0.40643   0.00000  Uiso   1.00
C327   C     0.83812   0.48930   0.06793   0.00000  Uiso   1.00
C328   C     0.92265   0.50023   0.06360   0.00000  Uiso   1.00
Cu329  Cu    0.78645   0.49999   0.25000   0.00000  Uiso   1.00
Cu330  Cu    0.88022   0.50001   0.25000   0.00000  Uiso   1.00
H331   H     0.95065   0.50754   0.08199   0.00000  Uiso   1.00
H332   H     0.75179   0.46474   0.05470   0.00000  Uiso   1.00
H333   H     0.69405   0.46134   0.00612   0.00000  Uiso   1.00
H334   H     0.89147   0.45772   0.36669   0.00000  Uiso   1.00
H335   H     0.90725   0.62924   0.25533   0.00000  Uiso   1.00
H336   H     0.67770   0.55052   0.35211   0.00000  Uiso   1.00
H337   H     0.69060   0.58517   0.30345   0.00000  Uiso   1.00
H338   H     0.96748   0.43420   0.39134   0.00000  Uiso   1.00
H339   H     0.97467   0.48376   0.37254   0.00000  Uiso   1.00
H340   H     0.80057   0.48950   0.09121   0.00000  Uiso   1.00
H341   H     0.90732   0.37052   0.25521   0.00000  Uiso   1.00
H342   H     0.75938   0.37077   0.24490   0.00000  Uiso   1.00
H343   H     0.75939   0.62953   0.24480   0.00000  Uiso   1.00
H344   H     0.94108   0.54820   0.30551   0.00000  Uiso   1.00
H345   H     0.72521   0.45180   0.19421   0.00000  Uiso   1.00
H346   H     0.97192   0.45182   0.19425   0.00000  Uiso   1.00
H347   H     0.97289   0.49944   0.48731   0.00000  Uiso   1.00
H348   H     0.71729   0.47969   0.41278   0.00000  Uiso   1.00
N349   N     0.71598   0.49999   0.24999   0.00000  Uiso   1.00
N350   N     0.95069   0.50002   0.25000   0.00000  Uiso   1.00
N351   N     0.69843   0.55547   0.31358   0.00000  Uiso   1.00
N352   N     0.96468   0.46459   0.40494   0.00000  Uiso   1.00
O353   O     0.79375   0.56011   0.25001   0.00000  Uiso   1.00
O354   O     0.87294   0.56012   0.25001   0.00000  Uiso   1.00
O355   O     0.77441   0.49998   0.32549   0.00000  Uiso   1.00
O356   O     0.85360   0.49999   0.32549   0.00000  Uiso   1.00
O357   O     0.79373   0.43988   0.25000   0.00000  Uiso   1.00
O358   O     0.87292   0.43989   0.25000   0.00000  Uiso   1.00
O359   O     0.81306   0.50001   0.17451   0.00000  Uiso   1.00
O360   O     0.89225   0.50002   0.17451   0.00000  Uiso   1.00
C361   C     0.16663   0.91260   0.25008   0.00000  Uiso   1.00
C362   C     0.12762   0.81620   0.40523   0.00000  Uiso   1.00
C363   C     0.20815   0.97864   0.25298   0.00000  Uiso   1.00
C364   C     0.14119   0.82803   0.34941   0.00000  Uiso   1.00
C365   C     0.20820   0.68789   0.25292   0.00000  Uiso   1.00
C366   C     0.16669   0.70943   0.25005   0.00000  Uiso   1.00
C367   C     0.12514   0.68804   0.24725   0.00000  Uiso   1.00
C368   C     0.12512   0.97879   0.24725   0.00000  Uiso   1.00
C369   C     0.16661   0.95725   0.25013   0.00000  Uiso   1.00
C370   C     0.30001   0.86017   0.28075   0.00000  Uiso   1.00
C371   C     0.01628   0.86032   0.28086   0.00000  Uiso   1.00
C372   C     0.14829   0.80994   0.48738   0.00000  Uiso   1.00
C373   C     0.03320   0.80660   0.21907   0.00000  Uiso   1.00
C374   C     0.31703   0.80661   0.21909   0.00000  Uiso   1.00
C375   C     0.16670   0.75406   0.24998   0.00000  Uiso   1.00
C376   C     0.19258   0.83318   0.14998   0.00000  Uiso   1.00
C377   C     0.26900   0.82772   0.00991   0.00000  Uiso   1.00
C378   C     0.20719   0.83006   0.09301   0.00000  Uiso   1.00
C379   C     0.07833   0.81106   0.43264   0.00000  Uiso   1.00
C380   C     0.06459   0.80214   0.48565   0.00000  Uiso   1.00
C381   C     0.09855   0.80366   0.01339   0.00000  Uiso   1.00
C382   C     0.16314   0.80992   0.43222   0.00000  Uiso   1.00
C383   C     0.18401   0.81577   0.01397   0.00000  Uiso   1.00
C384   C     0.23398   0.81673   0.48516   0.00000  Uiso   1.00
C385   C     0.24801   0.80603   0.43227   0.00000  Uiso   1.00
C386   C     0.21266   0.80204   0.40643   0.00000  Uiso   1.00
C387   C     0.17145   0.82263   0.06793   0.00000  Uiso   1.00
C388   C     0.25599   0.83356   0.06360   0.00000  Uiso   1.00
Cu389  Cu    0.11978   0.83333   0.25000   0.00000  Uiso   1.00
Cu390  Cu    0.21355   0.83334   0.25000   0.00000  Uiso   1.00
H391   H     0.28399   0.84088   0.08199   0.00000  Uiso   1.00
H392   H     0.08513   0.79807   0.05470   0.00000  Uiso   1.00
H393   H     0.02738   0.79468   0.00612   0.00000  Uiso   1.00
H394   H     0.22480   0.79105   0.36669   0.00000  Uiso   1.00
H395   H     0.24058   0.96258   0.25533   0.00000  Uiso   1.00
H396   H     0.01103   0.88386   0.35211   0.00000  Uiso   1.00
H397   H     0.02393   0.91851   0.30345   0.00000  Uiso   1.00
H398   H     0.30082   0.76754   0.39134   0.00000  Uiso   1.00
H399   H     0.30800   0.81709   0.37254   0.00000  Uiso   1.00
H400   H     0.13390   0.82283   0.09121   0.00000  Uiso   1.00
H401   H     0.24065   0.70385   0.25521   0.00000  Uiso   1.00
H402   H     0.09271   0.70410   0.24490   0.00000  Uiso   1.00
H403   H     0.09272   0.96286   0.24480   0.00000  Uiso   1.00
H404   H     0.27442   0.88154   0.30551   0.00000  Uiso   1.00
H405   H     0.05854   0.78513   0.19421   0.00000  Uiso   1.00
H406   H     0.30525   0.78515   0.19425   0.00000  Uiso   1.00
H407   H     0.30622   0.83277   0.48731   0.00000  Uiso   1.00
H408   H     0.05063   0.81302   0.41278   0.00000  Uiso   1.00
N409   N     0.04931   0.83332   0.24999   0.00000  Uiso   1.00
N410   N     0.28402   0.83335   0.25000   0.00000  Uiso   1.00
N411   N     0.03176   0.88880   0.31358   0.00000  Uiso   1.00
N412   N     0.29801   0.79793   0.40494   0.00000  Uiso   1.00
O413   O     0.12708   0.89345   0.25001   0.00000  Uiso   1.00
O414   O     0.20627   0.89346   0.25001   0.00000  Uiso   1.00
O415   O     0.10775   0.83332   0.32549   0.00000  Uiso   1.00
O416   O     0.18694   0.83333   0.32549   0.00000  Uiso   1.00
O417   O     0.12706   0.77321   0.25000   0.00000  Uiso   1.00
O418   O     0.20625   0.77322   0.25000   0.00000  Uiso   1.00
O419   O     0.14640   0.83334   0.17451   0.00000  Uiso   1.00
O420   O     0.22559   0.83335   0.17451   0.00000  Uiso   1.00
C421   C     0.49996   0.91260   0.25008   0.00000  Uiso   1.00
C422   C     0.46095   0.81620   0.40523   0.00000  Uiso   1.00
C423   C     0.54148   0.97864   0.25298   0.00000  Uiso   1.00
C424   C     0.47453   0.82803   0.34941   0.00000  Uiso   1.00
C425   C     0.54153   0.68789   0.25292   0.00000  Uiso   1.00
C426   C     0.50003   0.70943   0.25005   0.00000  Uiso   1.00
C427   C     0.45847   0.68804   0.24725   0.00000  Uiso   1.00
C428   C     0.45845   0.97879   0.24725   0.00000  Uiso   1.00
C429   C     0.49994   0.95725   0.25013   0.00000  Uiso   1.00
C430   C     0.63334   0.86017   0.28075   0.00000  Uiso   1.00
C431   C     0.34961   0.86032   0.28086   0.00000  Uiso   1.00
C432   C     0.48163   0.80994   0.48738   0.00000  Uiso   1.00
C433   C     0.36653   0.80660   0.21907   0.00000  Uiso   1.00
C434   C     0.65036   0.80661   0.21909   0.00000  Uiso   1.00
C435   C     0.50003   0.75406   0.24998   0.00000  Uiso   1.00
C436   C     0.52591   0.83318   0.14998   0.00000  Uiso   1.00
C437   C     0.60234   0.82772   0.00991   0.00000  Uiso   1.00
C438   C     0.54052   0.83006   0.09301   0.00000  Uiso   1.00
C439   C     0.41167   0.81106   0.43264   0.00000  Uiso   1.00
C440   C     0.39792   0.80214   0.48565   0.00000  Uiso   1.00
C441   C     0.43188   0.80366   0.01339   0.00000  Uiso   1.00
C442   C     0.49647   0.80992   0.43222   0.00000  Uiso   1.00
C443   C     0.51734   0.81577   0.01397   0.00000  Uiso   1.00
C444   C     0.56732   0.81673   0.48516   0.00000  Uiso   1.00
C445   C     0.58134   0.80603   0.43227   0.00000  Uiso   1.00
C446   C     0.54600   0.80204   0.40643   0.00000  Uiso   1.00
C447   C     0.50479   0.82263   0.06793   0.00000  Uiso   1.00
C448   C     0.58932   0.83356   0.06360   0.00000  Uiso   1.00
Cu449  Cu    0.45311   0.83333   0.25000   0.00000  Uiso   1.00
Cu450  Cu    0.54689   0.83334   0.25000   0.00000  Uiso   1.00
H451   H     0.61732   0.84088   0.08199   0.00000  Uiso   1.00
H452   H     0.41846   0.79807   0.05470   0.00000  Uiso   1.00
H453   H     0.36072   0.79468   0.00612   0.00000  Uiso   1.00
H454   H     0.55814   0.79105   0.36669   0.00000  Uiso   1.00
H455   H     0.57391   0.96258   0.25533   0.00000  Uiso   1.00
H456   H     0.34437   0.88386   0.35211   0.00000  Uiso   1.00
H457   H     0.35727   0.91851   0.30345   0.00000  Uiso   1.00
H458   H     0.63415   0.76754   0.39134   0.00000  Uiso   1.00
H459   H     0.64133   0.81709   0.37254   0.00000  Uiso   1.00
H460   H     0.46723   0.82283   0.09121   0.00000  Uiso   1.00
H461   H     0.57398   0.70385   0.25521   0.00000  Uiso   1.00
H462   H     0.42604   0.70410   0.24490   0.00000  Uiso   1.00
H463   H     0.42605   0.96286   0.24480   0.00000  Uiso   1.00
H464   H     0.60775   0.88154   0.30551   0.00000  Uiso   1.00
H465   H     0.39187   0.78513   0.19421   0.00000  Uiso   1.00
H466   H     0.63859   0.78515   0.19425   0.00000  Uiso   1.00
H467   H     0.63956   0.83277   0.48731   0.00000  Uiso   1.00
H468   H     0.38396   0.81302   0.41278   0.00000  Uiso   1.00
N469   N     0.38265   0.83332   0.24999   0.00000  Uiso   1.00
N470   N     0.61735   0.83335   0.25000   0.00000  Uiso   1.00
N471   N     0.36510   0.88880   0.31358   0.00000  Uiso   1.00
N472   N     0.63135   0.79793   0.40494   0.00000  Uiso   1.00
O473   O     0.46042   0.89345   0.25001   0.00000  Uiso   1.00
O474   O     0.53961   0.89346   0.25001   0.00000  Uiso   1.00
O475   O     0.44108   0.83332   0.32549   0.00000  Uiso   1.00
O476   O     0.52027   0.83333   0.32549   0.00000  Uiso   1.00
O477   O     0.46039   0.77321   0.25000   0.00000  Uiso   1.00
O478   O     0.53958   0.77322   0.25000   0.00000  Uiso   1.00
O479   O     0.47973   0.83334   0.17451   0.00000  Uiso   1.00
O480   O     0.55892   0.83335   0.17451   0.00000  Uiso   1.00
C481   C     0.83329   0.91260   0.25008   0.00000  Uiso   1.00
C482   C     0.79428   0.81620   0.40523   0.00000  Uiso   1.00
C483   C     0.87482   0.97864   0.25298   0.00000  Uiso   1.00
C484   C     0.80786   0.82803   0.34941   0.00000  Uiso   1.00
C485   C     0.87487   0.68789   0.25292   0.00000  Uiso   1.00
C486   C     0.83336   0.70943   0.25005   0.00000  Uiso   1.00
C487   C     0.79181   0.68804   0.24725   0.00000  Uiso   1.00
C488   C     0.79178   0.97879   0.24725   0.00000  Uiso   1.00
C489   C     0.83327   0.95725   0.25013   0.00000  Uiso   1.00
C490   C     0.96667   0.86017   0.28075   0.00000  Uiso   1.00
C491   C     0.68294   0.86032   0.28086   0.00000  Uiso   1.00
C492   C     0.81496   0.80994   0.48738   0.00000  Uiso   1.00
C493   C     0.69987   0.80660   0.21907   0.00000  Uiso   1.00
C494   C     0.98370   0.80661   0.21909   0.00000  Uiso   1.00
C495   C     0.83336   0.75406   0.24998   0.00000  Uiso   1.00
C496   C     0.85925   0.83318   0.14998   0.00000  Uiso   1.00
C497   C     0.93567   0.82772   0.00991   0.00000  Uiso   1.00
C498   C     0.87386   0.83006   0.09301   0.00000  Uiso   1.00
C499   C     0.74500   0.81106   0.43264   0.00000  Uiso   1.00
C500   C     0.73126   0.80214   0.48565   0.00000  Uiso   1.00
C501   C     0.76521   0.80366   0.01339   0.00000  Uiso   1.00
C502   C     0.82981   0.80992   0.43222   0.00000  Uiso   1.00
C503   C     0.85067   0.81577   0.01397   0.00000  Uiso   1.00
C504   C     0.90065   0.81673   0.48516   0.00000  Uiso   1.00
C505   C     0.91467   0.80603   0.43227   0.00000  Uiso   1.00
C506   C     0.87933   0.80204   0.40643   0.00000  Uiso   1.00
C507   C     0.83812   0.82263   0.06793   0.00000  Uiso   1.00
C508   C     0.92265   0.83356   0.06360   0.00000  Uiso   1.00
Cu509  Cu    0.78645   0.83333   0.25000   0.00000  Uiso   1.00
Cu510  Cu    0.88022   0.83334   0.25000   0.00000  Uiso   1.00
H511   H     0.95065   0.84088   0.08199   0.00000  Uiso   1.00
H512   H     0.75179   0.79807   0.05470   0.00000  Uiso   1.00
H513   H     0.69405   0.79468   0.00612   0.00000  Uiso   1.00
H514   H     0.89147   0.79105   0.36669   0.00000  Uiso   1.00
H515   H     0.90725   0.96258   0.25533   0.00000  Uiso   1.00
H516   H     0.67770   0.88386   0.35211   0.00000  Uiso   1.00
H517   H     0.69060   0.91851   0.30345   0.00000  Uiso   1.00
H518   H     0.96748   0.76754   0.39134   0.00000  Uiso   1.00
H519   H     0.97467   0.81709   0.37254   0.00000  Uiso   1.00
H520   H     0.80057   0.82283   0.09121   0.00000  Uiso   1.00
H521   H     0.90732   0.70385   0.25521   0.00000  Uiso   1.00
H522   H     0.75938   0.70410   0.24490   0.00000  Uiso   1.00
H523   H     0.75939   0.96286   0.24480   0.00000  Uiso   1.00
H524   H     0.94108   0.88154   0.30551   0.00000  Uiso   1.00
H525   H     0.72521   0.78513   0.19421   0.00000  Uiso   1.00
H526   H     0.97192   0.78515   0.19425   0.00000  Uiso   1.00
H527   H     0.97289   0.83277   0.48731   0.00000  Uiso   1.00
H528   H     0.71729   0.81302   0.41278   0.00000  Uiso   1.00
N529   N     0.71598   0.83332   0.24999   0.00000  Uiso   1.00
N530   N     0.95069   0.83335   0.25000   0.00000  Uiso   1.00
N531   N     0.69843   0.88880   0.31358   0.00000  Uiso   1.00
N532   N     0.96468   0.79793   0.40494   0.00000  Uiso   1.00
O533   O     0.79375   0.89345   0.25001   0.00000  Uiso   1.00
O534   O     0.87294   0.89346   0.25001   0.00000  Uiso   1.00
O535   O     0.77441   0.83332   0.32549   0.00000  Uiso   1.00
O536   O     0.85360   0.83333   0.32549   0.00000  Uiso   1.00
O537   O     0.79373   0.77321   0.25000   0.00000  Uiso   1.00
O538   O     0.87292   0.77322   0.25000   0.00000  Uiso   1.00
O539   O     0.81306   0.83334   0.17451   0.00000  Uiso   1.00
O540   O     0.89225   0.83335   0.17451   0.00000  Uiso   1.00
C541   C     0.16663   0.24594   0.75008   0.00000  Uiso   1.00
C542   C     0.12762   0.14953   0.90523   0.00000  Uiso   1.00
C543   C     0.20815   0.31198   0.75298   0.00000  Uiso   1.00
C544   C     0.14119   0.16136   0.84941   0.00000  Uiso   1.00
C545   C     0.20820   0.02123   0.75292   0.00000  Uiso   1.00
C546   C     0.16669   0.04277   0.75005   0.00000  Uiso   1.00
C547   C     0.12514   0.02137   0.74725   0.00000  Uiso   1.00
C548   C     0.12512   0.31213   0.74725   0.00000  Uiso   1.00
C549   C     0.16661   0.29058   0.75013   0.00000  Uiso   1.00
C550   C     0.30001   0.19350   0.78075   0.00000  Uiso   1.00
C551   C     0.01628   0.19365   0.78086   0.00000  Uiso   1.00
C552   C     0.14829   0.14328   0.98738   0.00000  Uiso   1.00
C553   C     0.03320   0.13993   0.71907   0.00000  Uiso   1.00
C554   C     0.31703   0.13994   0.71909   0.00000  Uiso   1.00
C555   C     0.16670   0.08740   0.74998   0.00000  Uiso   1.00
C556   C     0.19258   0.16651   0.64998   0.00000  Uiso   1.00
C557   C     0.26900   0.16105   0.50991   0.00000  Uiso   1.00
C558   C     0.20719   0.16340   0.59301   0.00000  Uiso   1.00
C559   C     0.07833   0.14439   0.93264   0.00000  Uiso   1.00
C560   C     0.06459   0.13548   0.98565   0.00000  Uiso   1.00
C561   C     0.09855   0.13700   0.51339   0.00000  Uiso   1.00
C562   C     0.16314   0.14325   0.93222   0.00000  Uiso   1.00
C563   C     0.18401   0.14911   0.51397   0.00000  Uiso   1.00
C564   C     0.23398   0.15007   0.98516   0.00000  Uiso   1.00
C565   C     0.24801   0.13937   0.93227   0.00000  Uiso   1.00
C566   C     0.21266   0.13538   0.90643   0.00000  Uiso   1.00
C567   C     0.17145   0.15597   0.56793   0.00000  Uiso   1.00
C568   C     0.25599   0.16690   0.56360   0.00000  Uiso   1.00
Cu569  Cu    0.11978   0.16666   0.75000   0.00000  Uiso   1.00
Cu570  Cu    0.21355   0.16667   0.75000   0.00000  Uiso   1.00
H571   H     0.28399   0.17421   0.58199   0.00000  Uiso   1.00
H572   H     0.08513   0.13141   0.55470   0.00000  Uiso   1.00
H573   H     0.02738   0.12801   0.50612   0.00000  Uiso   1.00
H574   H     0.22480   0.12438   0.86669   0.00000  Uiso   1.00
H575   H     0.24058   0.29591   0.75533   0.00000  Uiso   1.00
H576   H     0.01103   0.21719   0.85211   0.00000  Uiso   1.00
H577   H     0.02393   0.25184   0.80345   0.00000  Uiso   1.00
H578   H     0.30082   0.10087   0.89134   0.00000  Uiso   1.00
H579   H     0.30800   0.15042   0.87254   0.00000  Uiso   1.00
H580   H     0.13390   0.15617   0.59121   0.00000  Uiso   1.00
H581   H     0.24065   0.03718   0.75521   0.00000  Uiso   1.00
H582   H     0.09271   0.03743   0.74490   0.00000  Uiso   1.00
H583   H     0.09272   0.29619   0.74480   0.00000  Uiso   1.00
H584   H     0.27442   0.21487   0.80551   0.00000  Uiso   1.00
H585   H     0.05854   0.11846   0.69421   0.00000  Uiso   1.00
H586   H     0.30525   0.11848   0.69425   0.00000  Uiso   1.00
H587   H     0.30622   0.16611   0.98731   0.00000  Uiso   1.00
H588   H     0.05063   0.14636   0.91278   0.00000  Uiso   1.00
N589   N     0.04931   0.16666   0.74999   0.00000  Uiso   1.00
N590   N     0.28402   0.16669   0.75000   0.00000  Uiso   1.00
N591   N     0.03176   0.22213   0.81358   0.00000  Uiso   1.00
N592   N     0.29801   0.13126   0.90494   0.00000  Uiso   1.00
O593   O     0.12708   0.22678   0.75001   0.00000  Uiso   1.00
O594   O     0.20627   0.22679   0.75001   0.00000  Uiso   1.00
O595   O     0.10775   0.16665   0.82549   0.00000  Uiso   1.00
O596   O     0.18694   0.16666   0.82549   0.00000  Uiso   1.00
O597   O     0.12706   0.10654   0.75000   0.00000  Uiso   1.00
O598   O     0.20625   0.10655   0.75000   0.00000  Uiso   1.00
O599   O     0.14640   0.16667   0.67451   0.00000  Uiso   1.00
O600   O     0.22559   0.16668   0.67451   0.00000  Uiso   1.00
C601   C     0.49996   0.24594   0.75008   0.00000  Uiso   1.00
C602   C     0.46095   0.14953   0.90523   0.00000  Uiso   1.00
C603   C     0.54148   0.31198   0.75298   0.00000  Uiso   1.00
C604   C     0.47453   0.16136   0.84941   0.00000  Uiso   1.00
C605   C     0.54153   0.02123   0.75292   0.00000  Uiso   1.00
C606   C     0.50003   0.04277   0.75005   0.00000  Uiso   1.00
C607   C     0.45847   0.02137   0.74725   0.00000  Uiso   1.00
C608   C     0.45845   0.31213   0.74725   0.00000  Uiso   1.00
C609   C     0.49994   0.29058   0.75013   0.00000  Uiso   1.00
C610   C     0.63334   0.19350   0.78075   0.00000  Uiso   1.00
C611   C     0.34961   0.19365   0.78086   0.00000  Uiso   1.00
C612   C     0.48163   0.14328   0.98738   0.00000  Uiso   1.00
C613   C     0.36653   0.13993   0.71907   0.00000  Uiso   1.00
C614   C     0.65036   0.13994   0.71909   0.00000  Uiso   1.00
C615   C     0.50003   0.08740   0.74998   0.00000  Uiso   1.00
C616   C     0.52591   0.16651   0.64998   0.00000  Uiso   1.00
C617   C     0.60234   0.16105   0.50991   0.00000  Uiso   1.00
C618   C     0.54052   0.16340   0.59301   0.00000  Uiso   1.00
C619   C     0.41167   0.14439   0.93264   0.00000  Uiso   1.00
C620   C     0.39792   0.13548   0.98565   0.00000  Uiso   1.00
C621   C     0.43188   0.13700   0.51339   0.00000  Uiso   1.00
C622   C     0.49647   0.14325   0.93222   0.00000  Uiso   1.00
C623   C     0.51734   0.14911   0.51397   0.00000  Uiso   1.00
C624   C     0.56732   0.15007   0.98516   0.00000  Uiso   1.00
C625   C     0.58134   0.13937   0.93227   0.00000  Uiso   1.00
C626   C     0.54600   0.13538   0.90643   0.00000  Uiso   1.00
C627   C     0.50479   0.15597   0.56793   0.00000  Uiso   1.00
C628   C     0.58932   0.16690   0.56360   0.00000  Uiso   1.00
Cu629  Cu    0.45311   0.16666   0.75000   0.00000  Uiso   1.00
Cu630  Cu    0.54689   0.16667   0.75000   0.00000  Uiso   1.00
H631   H     0.61732   0.17421   0.58199   0.00000  Uiso   1.00
H632   H     0.41846   0.13141   0.55470   0.00000  Uiso   1.00
H633   H     0.36072   0.12801   0.50612   0.00000  Uiso   1.00
H634   H     0.55814   0.12438   0.86669   0.00000  Uiso   1.00
H635   H     0.57391   0.29591   0.75533   0.00000  Uiso   1.00
H636   H     0.34437   0.21719   0.85211   0.00000  Uiso   1.00
H637   H     0.35727   0.25184   0.80345   0.00000  Uiso   1.00
H638   H     0.63415   0.10087   0.89134   0.00000  Uiso   1.00
H639   H     0.64133   0.15042   0.87254   0.00000  Uiso   1.00
H640   H     0.46723   0.15617   0.59121   0.00000  Uiso   1.00
H641   H     0.57398   0.03718   0.75521   0.00000  Uiso   1.00
H642   H     0.42604   0.03743   0.74490   0.00000  Uiso   1.00
H643   H     0.42605   0.29619   0.74480   0.00000  Uiso   1.00
H644   H     0.60775   0.21487   0.80551   0.00000  Uiso   1.00
H645   H     0.39187   0.11846   0.69421   0.00000  Uiso   1.00
H646   H     0.63859   0.11848   0.69425   0.00000  Uiso   1.00
H647   H     0.63956   0.16611   0.98731   0.00000  Uiso   1.00
H648   H     0.38396   0.14636   0.91278   0.00000  Uiso   1.00
N649   N     0.38265   0.16666   0.74999   0.00000  Uiso   1.00
N650   N     0.61735   0.16669   0.75000   0.00000  Uiso   1.00
N651   N     0.36510   0.22213   0.81358   0.00000  Uiso   1.00
N652   N     0.63135   0.13126   0.90494   0.00000  Uiso   1.00
O653   O     0.46042   0.22678   0.75001   0.00000  Uiso   1.00
O654   O     0.53961   0.22679   0.75001   0.00000  Uiso   1.00
O655   O     0.44108   0.16665   0.82549   0.00000  Uiso   1.00
O656   O     0.52027   0.16666   0.82549   0.00000  Uiso   1.00
O657   O     0.46039   0.10654   0.75000   0.00000  Uiso   1.00
O658   O     0.53958   0.10655   0.75000   0.00000  Uiso   1.00
O659   O     0.47973   0.16667   0.67451   0.00000  Uiso   1.00
O660   O     0.55892   0.16668   0.67451   0.00000  Uiso   1.00
C661   C     0.83329   0.24594   0.75008   0.00000  Uiso   1.00
C662   C     0.79428   0.14953   0.90523   0.00000  Uiso   1.00
C663   C     0.87482   0.31198   0.75298   0.00000  Uiso   1.00
C664   C     0.80786   0.16136   0.84941   0.00000  Uiso   1.00
C665   C     0.87487   0.02123   0.75292   0.00000  Uiso   1.00
C666   C     0.83336   0.04277   0.75005   0.00000  Uiso   1.00
C667   C     0.79181   0.02137   0.74725   0.00000  Uiso   1.00
C668   C     0.79178   0.31213   0.74725   0.00000  Uiso   1.00
C669   C     0.83327   0.29058   0.75013   0.00000  Uiso   1.00
C670   C     0.96667   0.19350   0.78075   0.00000  Uiso   1.00
C671   C     0.68294   0.19365   0.78086   0.00000  Uiso   1.00
C672   C     0.81496   0.14328   0.98738   0.00000  Uiso   1.00
C673   C     0.69987   0.13993   0.71907   0.00000  Uiso   1.00
C674   C     0.98370   0.13994   0.71909   0.00000  Uiso   1.00
C675   C     0.83336   0.08740   0.74998   0.00000  Uiso   1.00
C676   C     0.85925   0.16651   0.64998   0.00000  Uiso   1.00
C677   C     0.93567   0.16105   0.50991   0.00000  Uiso   1.00
C678   C     0.87386   0.16340   0.59301   0.00000  Uiso   1.00
C679   C     0.74500   0.14439   0.93264   0.00000  Uiso   1.00
C680   C     0.73126   0.13548   0.98565   0.00000  Uiso   1.00
C681   C     0.76521   0.13700   0.51339   0.00000  Uiso   1.00
C682   C     0.82981   0.14325   0.93222   0.00000  Uiso   1.00
C683   C     0.85067   0.14911   0.51397   0.00000  Uiso   1.00
C684   C     0.90065   0.15007   0.98516   0.00000  Uiso   1.00
C685   C     0.91467   0.13937   0.93227   0.00000  Uiso   1.00
C686   C     0.87933   0.13538   0.90643   0.00000  Uiso   1.00
C687   C     0.83812   0.15597   0.56793   0.00000  Uiso   1.00
C688   C     0.92265   0.16690   0.56360   0.00000  Uiso   1.00
Cu689  Cu    0.78645   0.16666   0.75000   0.00000  Uiso   1.00
Cu690  Cu    0.88022   0.16667   0.75000   0.00000  Uiso   1.00
H691   H     0.95065   0.17421   0.58199   0.00000  Uiso   1.00
H692   H     0.75179   0.13141   0.55470   0.00000  Uiso   1.00
H693   H     0.69405   0.12801   0.50612   0.00000  Uiso   1.00
H694   H     0.89147   0.12438   0.86669   0.00000  Uiso   1.00
H695   H     0.90725   0.29591   0.75533   0.00000  Uiso   1.00
H696   H     0.67770   0.21719   0.85211   0.00000  Uiso   1.00
H697   H     0.69060   0.25184   0.80345   0.00000  Uiso   1.00
H698   H     0.96748   0.10087   0.89134   0.00000  Uiso   1.00
H699   H     0.97467   0.15042   0.87254   0.00000  Uiso   1.00
H700   H     0.80057   0.15617   0.59121   0.00000  Uiso   1.00
H701   H     0.90732   0.03718   0.75521   0.00000  Uiso   1.00
H702   H     0.75938   0.03743   0.74490   0.00000  Uiso   1.00
H703   H     0.75939   0.29619   0.74480   0.00000  Uiso   1.00
H704   H     0.94108   0.21487   0.80551   0.00000  Uiso   1.00
H705   H     0.72521   0.11846   0.69421   0.00000  Uiso   1.00
H706   H     0.97192   0.11848   0.69425   0.00000  Uiso   1.00
H707   H     0.97289   0.16611   0.98731   0.00000  Uiso   1.00
H708   H     0.71729   0.14636   0.91278   0.00000  Uiso   1.00
N709   N     0.71598   0.16666   0.74999   0.00000  Uiso   1.00
N710   N     0.95069   0.16669   0.75000   0.00000  Uiso   1.00
N711   N     0.69843   0.22213   0.81358   0.00000  Uiso   1.00
N712   N     0.96468   0.13126   0.90494   0.00000  Uiso   1.00
O713   O     0.79375   0.22678   0.75001   0.00000  Uiso   1.00
O714   O     0.87294   0.22679   0.75001   0.00000  Uiso   1.00
O715   O     0.77441   0.16665   0.82549   0.00000  Uiso   1.00
O716   O     0.85360   0.16666   0.82549   0.00000  Uiso   1.00
O717   O     0.79373   0.10654   0.75000   0.00000  Uiso   1.00
O718   O     0.87292   0.10655   0.75000   0.00000  Uiso   1.00
O719   O     0.81306   0.16667   0.67451   0.00000  Uiso   1.00
O720   O     0.89225   0.16668   0.67451   0.00000  Uiso   1.00
C721   C     0.16663   0.57927   0.75008   0.00000  Uiso   1.00
C722   C     0.12762   0.48287   0.90523   0.00000  Uiso   1.00
C723   C     0.20815   0.64531   0.75298   0.00000  Uiso   1.00
C724   C     0.14119   0.49469   0.84941   0.00000  Uiso   1.00
C725   C     0.20820   0.35456   0.75292   0.00000  Uiso   1.00
C726   C     0.16669   0.37610   0.75005   0.00000  Uiso   1.00
C727   C     0.12514   0.35470   0.74725   0.00000  Uiso   1.00
C728   C     0.12512   0.64546   0.74725   0.00000  Uiso   1.00
C729   C     0.16661   0.62391   0.75013   0.00000  Uiso   1.00
C730   C     0.30001   0.52684   0.78075   0.00000  Uiso   1.00
C731   C     0.01628   0.52698   0.78086   0.00000  Uiso   1.00
C732   C     0.14829   0.47661   0.98738   0.00000  Uiso   1.00
C733   C     0.03320   0.47326   0.71907   0.00000  Uiso   1.00
C734   C     0.31703   0.47327   0.71909   0.00000  Uiso   1.00
C735   C     0.16670   0.42073   0.74998   0.00000  Uiso   1.00
C736   C     0.19258   0.49985   0.64998   0.00000  Uiso   1.00
C737   C     0.26900   0.49438   0.50991   0.00000  Uiso   1.00
C738   C     0.20719   0.49673   0.59301   0.00000  Uiso   1.00
C739   C     0.07833   0.47772   0.93264   0.00000  Uiso   1.00
C740   C     0.06459   0.46881   0.98565   0.00000  Uiso   1.00
C741   C     0.09855   0.47033   0.51339   0.00000  Uiso   1.00
C742   C     0.16314   0.47658   0.93222   0.00000  Uiso   1.00
C743   C     0.18401   0.48244   0.51397   0.00000  Uiso   1.00
C744   C     0.23398   0.48340   0.98516   0.00000  Uiso   1.00
C745   C     0.24801   0.47270   0.93227   0.00000  Uiso   1.00
C746   C     0.21266   0.46871   0.90643   0.00000  Uiso   1.00
C747   C     0.17145   0.48930   0.56793   0.00000  Uiso   1.00
C748   C     0.25599   0.50023   0.56360   0.00000  Uiso   1.00
Cu749  Cu    0.11978   0.49999   0.75000   0.00000  Uiso   1.00
Cu750  Cu    0.21355   0.50001   0.75000   0.00000  Uiso   1.00
H751   H     0.28399   0.50754   0.58199   0.00000  Uiso   1.00
H752   H     0.08513   0.46474   0.55470   0.00000  Uiso   1.00
H753   H     0.02738   0.46134   0.50612   0.00000  Uiso   1.00
H754   H     0.22480   0.45772   0.86669   0.00000  Uiso   1.00
H755   H     0.24058   0.62924   0.75533   0.00000  Uiso   1.00
H756   H     0.01103   0.55052   0.85211   0.00000  Uiso   1.00
H757   H     0.02393   0.58517   0.80345   0.00000  Uiso   1.00
H758   H     0.30082   0.43420   0.89134   0.00000  Uiso   1.00
H759   H     0.30800   0.48376   0.87254   0.00000  Uiso   1.00
H760   H     0.13390   0.48950   0.59121   0.00000  Uiso   1.00
H761   H     0.24065   0.37052   0.75521   0.00000  Uiso   1.00
H762   H     0.09271   0.37077   0.74490   0.00000  Uiso   1.00
H763   H     0.09272   0.62953   0.74480   0.00000  Uiso   1.00
H764   H     0.27442   0.54820   0.80551   0.00000  Uiso   1.00
H765   H     0.05854   0.45180   0.69421   0.00000  Uiso   1.00
H766   H     0.30525   0.45182   0.69425   0.00000  Uiso   1.00
H767   H     0.30622   0.49944   0.98731   0.00000  Uiso   1.00
H768   H     0.05063   0.47969   0.91278   0.00000  Uiso   1.00
N769   N     0.04931   0.49999   0.74999   0.00000  Uiso   1.00
N770   N     0.28402   0.50002   0.75000   0.00000  Uiso   1.00
N771   N     0.03176   0.55547   0.81358   0.00000  Uiso   1.00
N772   N     0.29801   0.46459   0.90494   0.00000  Uiso   1.00
O773   O     0.12708   0.56011   0.75001   0.00000  Uiso   1.00
O774   O     0.20627   0.56012   0.75001   0.00000  Uiso   1.00
O775   O     0.10775   0.49998   0.82549   0.00000  Uiso   1.00
O776   O     0.18694   0.49999   0.82549   0.00000  Uiso   1.00
O777   O     0.12706   0.43988   0.75000   0.00000  Uiso   1.00
O778   O     0.20625   0.43989   0.75000   0.00000  Uiso   1.00
O779   O     0.14640   0.50001   0.67451   0.00000  Uiso   1.00
O780   O     0.22559   0.50002   0.67451   0.00000  Uiso   1.00
C781   C     0.49996   0.57927   0.75008   0.00000  Uiso   1.00
C782   C     0.46095   0.48287   0.90523   0.00000  Uiso   1.00
C783   C     0.54148   0.64531   0.75298   0.00000  Uiso   1.00
C784   C     0.47453   0.49469   0.84941   0.00000  Uiso   1.00
C785   C     0.54153   0.35456   0.75292   0.00000  Uiso   1.00
C786   C     0.50003   0.37610   0.75005   0.00000  Uiso   1.00
C787   C     0.45847   0.35470   0.74725   0.00000  Uiso   1.00
C788   C     0.45845   0.64546   0.74725   0.00000  Uiso   1.00
C789   C     0.49994   0.62391   0.75013   0.00000  Uiso   1.00
C790   C     0.63334   0.52684   0.78075   0.00000  Uiso   1.00
C791   C     0.34961   0.52698   0.78086   0.00000  Uiso   1.00
C792   C     0.48163   0.47661   0.98738   0.00000  Uiso   1.00
C793   C     0.36653   0.47326   0.71907   0.00000  Uiso   1.00
C794   C     0.65036   0.47327   0.71909   0.00000  Uiso   1.00
C795   C     0.50003   0.42073   0.74998   0.00000  Uiso   1.00
C796   C     0.52591   0.49985   0.64998   0.00000  Uiso   1.00
C797   C     0.60234   0.49438   0.50991   0.00000  Uiso   1.00
C798   C     0.54052   0.49673   0.59301   0.00000  Uiso   1.00
C799   C     0.41167   0.47772   0.93264   0.00000  Uiso   1.00
C800   C     0.39792   0.46881   0.98565   0.00000  Uiso   1.00
C801   C     0.43188   0.47033   0.51339   0.00000  Uiso   1.00
C802   C     0.49647   0.47658   0.93222   0.00000  Uiso   1.00
C803   C     0.51734   0.48244   0.51397   0.00000  Uiso   1.00
C804   C     0.56732   0.48340   0.98516   0.00000  Uiso   1.00
C805   C     0.58134   0.47270   0.93227   0.00000  Uiso   1.00
C806   C     0.54600   0.46871   0.90643   0.00000  Uiso   1.00
C807   C     0.50479   0.48930   0.56793   0.00000  Uiso   1.00
C808   C     0.58932   0.50023   0.56360   0.00000  Uiso   1.00
Cu809  Cu    0.45311   0.49999   0.75000   0.00000  Uiso   1.00
Cu810  Cu    0.54689   0.50001   0.75000   0.00000  Uiso   1.00
H811   H     0.61732   0.50754   0.58199   0.00000  Uiso   1.00
H812   H     0.41846   0.46474   0.55470   0.00000  Uiso   1.00
H813   H     0.36072   0.46134   0.50612   0.00000  Uiso   1.00
H814   H     0.55814   0.45772   0.86669   0.00000  Uiso   1.00
H815   H     0.57391   0.62924   0.75533   0.00000  Uiso   1.00
H816   H     0.34437   0.55052   0.85211   0.00000  Uiso   1.00
H817   H     0.35727   0.58517   0.80345   0.00000  Uiso   1.00
H818   H     0.63415   0.43420   0.89134   0.00000  Uiso   1.00
H819   H     0.64133   0.48376   0.87254   0.00000  Uiso   1.00
H820   H     0.46723   0.48950   0.59121   0.00000  Uiso   1.00
H821   H     0.57398   0.37052   0.75521   0.00000  Uiso   1.00
H822   H     0.42604   0.37077   0.74490   0.00000  Uiso   1.00
H823   H     0.42605   0.62953   0.74480   0.00000  Uiso   1.00
H824   H     0.60775   0.54820   0.80551   0.00000  Uiso   1.00
H825   H     0.39187   0.45180   0.69421   0.00000  Uiso   1.00
H826   H     0.63859   0.45182   0.69425   0.00000  Uiso   1.00
H827   H     0.63956   0.49944   0.98731   0.00000  Uiso   1.00
H828   H     0.38396   0.47969   0.91278   0.00000  Uiso   1.00
N829   N     0.38265   0.49999   0.74999   0.00000  Uiso   1.00
N830   N     0.61735   0.50002   0.75000   0.00000  Uiso   1.00
N831   N     0.36510   0.55547   0.81358   0.00000  Uiso   1.00
N832   N     0.63135   0.46459   0.90494   0.00000  Uiso   1.00
O833   O     0.46042   0.56011   0.75001   0.00000  Uiso   1.00
O834   O     0.53961   0.56012   0.75001   0.00000  Uiso   1.00
O835   O     0.44108   0.49998   0.82549   0.00000  Uiso   1.00
O836   O     0.52027   0.49999   0.82549   0.00000  Uiso   1.00
O837   O     0.46039   0.43988   0.75000   0.00000  Uiso   1.00
O838   O     0.53958   0.43989   0.75000   0.00000  Uiso   1.00
O839   O     0.47973   0.50001   0.67451   0.00000  Uiso   1.00
O840   O     0.55892   0.50002   0.67451   0.00000  Uiso   1.00
C841   C     0.83329   0.57927   0.75008   0.00000  Uiso   1.00
C842   C     0.79428   0.48287   0.90523   0.00000  Uiso   1.00
C843   C     0.87482   0.64531   0.75298   0.00000  Uiso   1.00
C844   C     0.80786   0.49469   0.84941   0.00000  Uiso   1.00
C845   C     0.87487   0.35456   0.75292   0.00000  Uiso   1.00
C846   C     0.83336   0.37610   0.75005   0.00000  Uiso   1.00
C847   C     0.79181   0.35470   0.74725   0.00000  Uiso   1.00
C848   C     0.79178   0.64546   0.74725   0.00000  Uiso   1.00
C849   C     0.83327   0.62391   0.75013   0.00000  Uiso   1.00
C850   C     0.96667   0.52684   0.78075   0.00000  Uiso   1.00
C851   C     0.68294   0.52698   0.78086   0.00000  Uiso   1.00
C852   C     0.81496   0.47661   0.98738   0.00000  Uiso   1.00
C853   C     0.69987   0.47326   0.71907   0.00000  Uiso   1.00
C854   C     0.98370   0.47327   0.71909   0.00000  Uiso   1.00
C855   C     0.83336   0.42073   0.74998   0.00000  Uiso   1.00
C856   C     0.85925   0.49985   0.64998   0.00000  Uiso   1.00
C857   C     0.93567   0.49438   0.50991   0.00000  Uiso   1.00
C858   C     0.87386   0.49673   0.59301   0.00000  Uiso   1.00
C859   C     0.74500   0.47772   0.93264   0.00000  Uiso   1.00
C860   C     0.73126   0.46881   0.98565   0.00000  Uiso   1.00
C861   C     0.76521   0.47033   0.51339   0.00000  Uiso   1.00
C862   C     0.82981   0.47658   0.93222   0.00000  Uiso   1.00
C863   C     0.85067   0.48244   0.51397   0.00000  Uiso   1.00
C864   C     0.90065   0.48340   0.98516   0.00000  Uiso   1.00
C865   C     0.91467   0.47270   0.93227   0.00000  Uiso   1.00
C866   C     0.87933   0.46871   0.90643   0.00000  Uiso   1.00
C867   C     0.83812   0.48930   0.56793   0.00000  Uiso   1.00
C868   C     0.92265   0.50023   0.56360   0.00000  Uiso   1.00
Cu869  Cu    0.78645   0.49999   0.75000   0.00000  Uiso   1.00
Cu870  Cu    0.88022   0.50001   0.75000   0.00000  Uiso   1.00
H871   H     0.95065   0.50754   0.58199   0.00000  Uiso   1.00
H872   H     0.75179   0.46474   0.55470   0.00000  Uiso   1.00
H873   H     0.69405   0.46134   0.50612   0.00000  Uiso   1.00
H874   H     0.89147   0.45772   0.86669   0.00000  Uiso   1.00
H875   H     0.90725   0.62924   0.75533   0.00000  Uiso   1.00
H876   H     0.67770   0.55052   0.85211   0.00000  Uiso   1.00
H877   H     0.69060   0.58517   0.80345   0.00000  Uiso   1.00
H878   H     0.96748   0.43420   0.89134   0.00000  Uiso   1.00
H879   H     0.97467   0.48376   0.87254   0.00000  Uiso   1.00
H880   H     0.80057   0.48950   0.59121   0.00000  Uiso   1.00
H881   H     0.90732   0.37052   0.75521   0.00000  Uiso   1.00
H882   H     0.75938   0.37077   0.74490   0.00000  Uiso   1.00
H883   H     0.75939   0.62953   0.74480   0.00000  Uiso   1.00
H884   H     0.94108   0.54820   0.80551   0.00000  Uiso   1.00
H885   H     0.72521   0.45180   0.69421   0.00000  Uiso   1.00
H886   H     0.97192   0.45182   0.69425   0.00000  Uiso   1.00
H887   H     0.97289   0.49944   0.98731   0.00000  Uiso   1.00
H888   H     0.71729   0.47969   0.91278   0.00000  Uiso   1.00
N889   N     0.71598   0.49999   0.74999   0.00000  Uiso   1.00
N890   N     0.95069   0.50002   0.75000   0.00000  Uiso   1.00
N891   N     0.69843   0.55547   0.81358   0.00000  Uiso   1.00
N892   N     0.96468   0.46459   0.90494   0.00000  Uiso   1.00
O893   O     0.79375   0.56011   0.75001   0.00000  Uiso   1.00
O894   O     0.87294   0.56012   0.75001   0.00000  Uiso   1.00
O895   O     0.77441   0.49998   0.82549   0.00000  Uiso   1.00
O896   O     0.85360   0.49999   0.82549   0.00000  Uiso   1.00
O897   O     0.79373   0.43988   0.75000   0.00000  Uiso   1.00
O898   O     0.87292   0.43989   0.75000   0.00000  Uiso   1.00
O899   O     0.81306   0.50001   0.67451   0.00000  Uiso   1.00
O900   O     0.89225   0.50002   0.67451   0.00000  Uiso   1.00
C901   C     0.16663   0.91260   0.75008   0.00000  Uiso   1.00
C902   C     0.12762   0.81620   0.90523   0.00000  Uiso   1.00
C903   C     0.20815   0.97864   0.75298   0.00000  Uiso   1.00
C904   C     0.14119   0.82803   0.84941   0.00000  Uiso   1.00
C905   C     0.20820   0.68789   0.75292   0.00000  Uiso   1.00
C906   C     0.16669   0.70943   0.75005   0.00000  Uiso   1.00
C907   C     0.12514   0.68804   0.74725   0.00000  Uiso   1.00
C908   C     0.12512   0.97879   0.74725   0.00000  Uiso   1.00
C909   C     0.16661   0.95725   0.75013   0.00000  Uiso   1.00
C910   C     0.30001   0.86017   0.78075   0.00000  Uiso   1.00
C911   C     0.01628   0.86032   0.78086   0.00000  Uiso   1.00
C912   C     0.14829   0.80994   0.98738   0.00000  Uiso   1.00
C913   C     0.03320   0.80660   0.71907   0.00000  Uiso   1.00
C914   C     0.31703   0.80661   0.71909   0.00000  Uiso   1.00
C915   C     0.16670   0.75406   0.74998   0.00000  Uiso   1.00
C916   C     0.19258   0.83318   0.64998   0.00000  Uiso   1.00
C917   C     0.26900   0.82772   0.50991   0.00000  Uiso   1.00
C918   C     0.20719   0.83006   0.59301   0.00000  Uiso   1.00
C919   C     0.07833   0.81106   0.93264   0.00000  Uiso   1.00
C920   C     0.06459   0.80214   0.98565   0.00000  Uiso   1.00
C921   C     0.09855   0.80366   0.51339   0.00000  Uiso   1.00
C922   C     0.16314   0.80992   0.93222   0.00000  Uiso   1.00
C923   C     0.18401   0.81577   0.51397   0.00000  Uiso   1.00
C924   C     0.23398   0.81673   0.98516   0.00000  Uiso   1.00
C925   C     0.24801   0.80603   0.93227   0.00000  Uiso   1.00
C926   C     0.21266   0.80204   0.90643   0.00000  Uiso   1.00
C927   C     0.17145   0.82263   0.56793   0.00000  Uiso   1.00
C928   C     0.25599   0.83356   0.56360   0.00000  Uiso   1.00
Cu929  Cu    0.11978   0.83333   0.75000   0.00000  Uiso   1.00
Cu930  Cu    0.21355   0.83334   0.75000   0.00000  Uiso   1.00
H931   H     0.28399   0.84088   0.58199   0.00000  Uiso   1.00
H932   H     0.08513   0.79807   0.55470   0.00000  Uiso   1.00
H933   H     0.02738   0.79468   0.50612   0.00000  Uiso   1.00
H934   H     0.22480   0.79105   0.86669   0.00000  Uiso   1.00
H935   H     0.24058   0.96258   0.75533   0.00000  Uiso   1.00
H936   H     0.01103   0.88386   0.85211   0.00000  Uiso   1.00
H937   H     0.02393   0.91851   0.80345   0.00000  Uiso   1.00
H938   H     0.30082   0.76754   0.89134   0.00000  Uiso   1.00
H939   H     0.30800   0.81709   0.87254   0.00000  Uiso   1.00
H940   H     0.13390   0.82283   0.59121   0.00000  Uiso   1.00
H941   H     0.24065   0.70385   0.75521   0.00000  Uiso   1.00
H942   H     0.09271   0.70410   0.74490   0.00000  Uiso   1.00
H943   H     0.09272   0.96286   0.74480   0.00000  Uiso   1.00
H944   H     0.27442   0.88154   0.80551   0.00000  Uiso   1.00
H945   H     0.05854   0.78513   0.69421   0.00000  Uiso   1.00
H946   H     0.30525   0.78515   0.69425   0.00000  Uiso   1.00
H947   H     0.30622   0.83277   0.98731   0.00000  Uiso   1.00
H948   H     0.05063   0.81302   0.91278   0.00000  Uiso   1.00
N949   N     0.04931   0.83332   0.74999   0.00000  Uiso   1.00
N950   N     0.28402   0.83335   0.75000   0.00000  Uiso   1.00
N951   N     0.03176   0.88880   0.81358   0.00000  Uiso   1.00
N952   N     0.29801   0.79793   0.90494   0.00000  Uiso   1.00
O953   O     0.12708   0.89345   0.75001   0.00000  Uiso   1.00
O954   O     0.20627   0.89346   0.75001   0.00000  Uiso   1.00
O955   O     0.10775   0.83332   0.82549   0.00000  Uiso   1.00
O956   O     0.18694   0.83333   0.82549   0.00000  Uiso   1.00
O957   O     0.12706   0.77321   0.75000   0.00000  Uiso   1.00
O958   O     0.20625   0.77322   0.75000   0.00000  Uiso   1.00
O959   O     0.14640   0.83334   0.67451   0.00000  Uiso   1.00
O960   O     0.22559   0.83335   0.67451   0.00000  Uiso   1.00
C961   C     0.49996   0.91260   0.75008   0.00000  Uiso   1.00
C962   C     0.46095   0.81620   0.90523   0.00000  Uiso   1.00
C963   C     0.54148   0.97864   0.75298   0.00000  Uiso   1.00
C964   C     0.47453   0.82803   0.84941   0.00000  Uiso   1.00
C965   C     0.54153   0.68789   0.75292   0.00000  Uiso   1.00
C966   C     0.50003   0.70943   0.75005   0.00000  Uiso   1.00
C967   C     0.45847   0.68804   0.74725   0.00000  Uiso   1.00
C968   C     0.45845   0.97879   0.74725   0.00000  Uiso   1.00
C969   C     0.49994   0.95725   0.75013   0.00000  Uiso   1.00
C970   C     0.63334   0.86017   0.78075   0.00000  Uiso   1.00
C971   C     0.34961   0.86032   0.78086   0.00000  Uiso   1.00
C972   C     0.48163   0.80994   0.98738   0.00000  Uiso   1.00
C973   C     0.36653   0.80660   0.71907   0.00000  Uiso   1.00
C974   C     0.65036   0.80661   0.71909   0.00000  Uiso   1.00
C975   C     0.50003   0.75406   0.74998   0.00000  Uiso   1.00
C976   C     0.52591   0.83318   0.64998   0.00000  Uiso   1.00
C977   C     0.60234   0.82772   0.50991   0.00000  Uiso   1.00
C978   C     0.54052   0.83006   0.59301   0.00000  Uiso   1.00
C979   C     0.41167   0.81106   0.93264   0.00000  Uiso   1.00
C980   C     0.39792   0.80214   0.98565   0.00000  Uiso   1.00
C981   C     0.43188   0.80366   0.51339   0.00000  Uiso   1.00
C982   C     0.49647   0.80992   0.93222   0.00000  Uiso   1.00
C983   C     0.51734   0.81577   0.51397   0.00000  Uiso   1.00
C984   C     0.56732   0.81673   0.98516   0.00000  Uiso   1.00
C985   C     0.58134   0.80603   0.93227   0.00000  Uiso   1.00
C986   C     0.54600   0.80204   0.90643   0.00000  Uiso   1.00
C987   C     0.50479   0.82263   0.56793   0.00000  Uiso   1.00
C988   C     0.58932   0.83356   0.56360   0.00000  Uiso   1.00
Cu989  Cu    0.45311   0.83333   0.75000   0.00000  Uiso   1.00
Cu990  Cu    0.54689   0.83334   0.75000   0.00000  Uiso   1.00
H991   H     0.61732   0.84088   0.58199   0.00000  Uiso   1.00
H992   H     0.41846   0.79807   0.55470   0.00000  Uiso   1.00
H993   H     0.36072   0.79468   0.50612   0.00000  Uiso   1.00
H994   H     0.55814   0.79105   0.86669   0.00000  Uiso   1.00
H995   H     0.57391   0.96258   0.75533   0.00000  Uiso   1.00
H996   H     0.34437   0.88386   0.85211   0.00000  Uiso   1.00
H997   H     0.35727   0.91851   0.80345   0.00000  Uiso   1.00
H998   H     0.63415   0.76754   0.89134   0.00000  Uiso   1.00
H999   H     0.64133   0.81709   0.87254   0.00000  Uiso   1.00
H1000  H     0.46723   0.82283   0.59121   0.00000  Uiso   1.00
H1001  H     0.57398   0.70385   0.75521   0.00000  Uiso   1.00
H1002  H     0.42604   0.70410   0.74490   0.00000  Uiso   1.00
H1003  H     0.42605   0.96286   0.74480   0.00000  Uiso   1.00
H1004  H     0.60775   0.88154   0.80551   0.00000  Uiso   1.00
H1005  H     0.39187   0.78513   0.69421   0.00000  Uiso   1.00
H1006  H     0.63859   0.78515   0.69425   0.00000  Uiso   1.00
H1007  H     0.63956   0.83277   0.98731   0.00000  Uiso   1.00
H1008  H     0.38396   0.81302   0.91278   0.00000  Uiso   1.00
N1009  N     0.38265   0.83332   0.74999   0.00000  Uiso   1.00
N1010  N     0.61735   0.83335   0.75000   0.00000  Uiso   1.00
N1011  N     0.36510   0.88880   0.81358   0.00000  Uiso   1.00
N1012  N     0.63135   0.79793   0.90494   0.00000  Uiso   1.00
O1013  O     0.46042   0.89345   0.75001   0.00000  Uiso   1.00
O1014  O     0.53961   0.89346   0.75001   0.00000  Uiso   1.00
O1015  O     0.44108   0.83332   0.82549   0.00000  Uiso   1.00
O1016  O     0.52027   0.83333   0.82549   0.00000  Uiso   1.00
O1017  O     0.46039   0.77321   0.75000   0.00000  Uiso   1.00
O1018  O     0.53958   0.77322   0.75000   0.00000  Uiso   1.00
O1019  O     0.47973   0.83334   0.67451   0.00000  Uiso   1.00
O1020  O     0.55892   0.83335   0.67451   0.00000  Uiso   1.00
C1021  C     0.83329   0.91260   0.75008   0.00000  Uiso   1.00
C1022  C     0.79428   0.81620   0.90523   0.00000  Uiso   1.00
C1023  C     0.87482   0.97864   0.75298   0.00000  Uiso   1.00
C1024  C     0.80786   0.82803   0.84941   0.00000  Uiso   1.00
C1025  C     0.87487   0.68789   0.75292   0.00000  Uiso   1.00
C1026  C     0.83336   0.70943   0.75005   0.00000  Uiso   1.00
C1027  C     0.79181   0.68804   0.74725   0.00000  Uiso   1.00
C1028  C     0.79178   0.97879   0.74725   0.00000  Uiso   1.00
C1029  C     0.83327   0.95725   0.75013   0.00000  Uiso   1.00
C1030  C     0.96667   0.86017   0.78075   0.00000  Uiso   1.00
C1031  C     0.68294   0.86032   0.78086   0.00000  Uiso   1.00
C1032  C     0.81496   0.80994   0.98738   0.00000  Uiso   1.00
C1033  C     0.69987   0.80660   0.71907   0.00000  Uiso   1.00
C1034  C     0.98370   0.80661   0.71909   0.00000  Uiso   1.00
C1035  C     0.83336   0.75406   0.74998   0.00000  Uiso   1.00
C1036  C     0.85925   0.83318   0.64998   0.00000  Uiso   1.00
C1037  C     0.93567   0.82772   0.50991   0.00000  Uiso   1.00
C1038  C     0.87386   0.83006   0.59301   0.00000  Uiso   1.00
C1039  C     0.74500   0.81106   0.93264   0.00000  Uiso   1.00
C1040  C     0.73126   0.80214   0.98565   0.00000  Uiso   1.00
C1041  C     0.76521   0.80366   0.51339   0.00000  Uiso   1.00
C1042  C     0.82981   0.80992   0.93222   0.00000  Uiso   1.00
C1043  C     0.85067   0.81577   0.51397   0.00000  Uiso   1.00
C1044  C     0.90065   0.81673   0.98516   0.00000  Uiso   1.00
C1045  C     0.91467   0.80603   0.93227   0.00000  Uiso   1.00
C1046  C     0.87933   0.80204   0.90643   0.00000  Uiso   1.00
C1047  C     0.83812   0.82263   0.56793   0.00000  Uiso   1.00
C1048  C     0.92265   0.83356   0.56360   0.00000  Uiso   1.00
Cu1049 Cu    0.78645   0.83333   0.75000   0.00000  Uiso   1.00
Cu1050 Cu    0.88022   0.83334   0.75000   0.00000  Uiso   1.00
H1051  H     0.95065   0.84088   0.58199   0.00000  Uiso   1.00
H1052  H     0.75179   0.79807   0.55470   0.00000  Uiso   1.00
H1053  H     0.69405   0.79468   0.50612   0.00000  Uiso   1.00
H1054  H     0.89147   0.79105   0.86669   0.00000  Uiso   1.00
H1055  H     0.90725   0.96258   0.75533   0.00000  Uiso   1.00
H1056  H     0.67770   0.88386   0.85211   0.00000  Uiso   1.00
H1057  H     0.69060   0.91851   0.80345   0.00000  Uiso   1.00
H1058  H     0.96748   0.76754   0.89134   0.00000  Uiso   1.00
H1059  H     0.97467   0.81709   0.87254   0.00000  Uiso   1.00
H1060  H     0.80057   0.82283   0.59121   0.00000  Uiso   1.00
H1061  H     0.90732   0.70385   0.75521   0.00000  Uiso   1.00
H1062  H     0.75938   0.70410   0.74490   0.00000  Uiso   1.00
H1063  H     0.75939   0.96286   0.74480   0.00000  Uiso   1.00
H1064  H     0.94108   0.88154   0.80551   0.00000  Uiso   1.00
H1065  H     0.72521   0.78513   0.69421   0.00000  Uiso   1.00
H1066  H     0.97192   0.78515   0.69425   0.00000  Uiso   1.00
H1067  H     0.97289   0.83277   0.98731   0.00000  Uiso   1.00
H1068  H     0.71729   0.81302   0.91278   0.00000  Uiso   1.00
N1069  N     0.71598   0.83332   0.74999   0.00000  Uiso   1.00
N1070  N     0.95069   0.83335   0.75000   0.00000  Uiso   1.00
N1071  N     0.69843   0.88880   0.81358   0.00000  Uiso   1.00
N1072  N     0.96468   0.79793   0.90494   0.00000  Uiso   1.00
O1073  O     0.79375   0.89345   0.75001   0.00000  Uiso   1.00
O1074  O     0.87294   0.89346   0.75001   0.00000  Uiso   1.00
O1075  O     0.77441   0.83332   0.82549   0.00000  Uiso   1.00
O1076  O     0.85360   0.83333   0.82549   0.00000  Uiso   1.00
O1077  O     0.79373   0.77321   0.75000   0.00000  Uiso   1.00
O1078  O     0.87292   0.77322   0.75000   0.00000  Uiso   1.00
O1079  O     0.81306   0.83334   0.67451   0.00000  Uiso   1.00
O1080  O     0.89225   0.83335   0.67451   0.00000  Uiso   1.00
loop_
_geom_bond_atom_site_label_1
_geom_bond_atom_site_label_2
_geom_bond_distance
_geom_bond_site_symmetry_2
_ccdc_geom_bond_type
C1     O54     1.294   .     A
C1     C9      1.451   .     S
C1     O53     1.295   .     A
C2     C22     1.425   .     A
C2     C4      1.486   .     S
C2     C19     1.402   .     A
C3     C9      1.402   .     A
C3     H35     1.083   .     S
C3     C185    1.384   .     S
C4     O56     1.295   .     A
C4     O55     1.311   .     A
C5     C6      1.401   .     A
C5     H41     1.083   .     S
C5     C363    1.384   1_545 S
C6     C7      1.401   .     A
C6     C15     1.450   .     S
C7     H42     1.083   .     S
C7     C368    1.383   1_545 S
C8     H43     1.083   .     S
C8     C9      1.401   .     A
C8     C187    1.383   .     S
C10    H44     1.082   .     S
C10    N50     1.365   .     A
C10    C71     1.423   .     S
C11    N49     1.373   .     A
C11    N51     1.429   .     S
C11    C130    1.423   1_455 S
C12    C22     1.416   .     A
C12    C561    1.410   .     S
C12    C563    1.420   .     S
C13    H45     1.082   .     S
C13    N49     1.368   .     A
C13    C134    1.419   1_455 S
C14    H46     1.082   .     S
C14    N50     1.368   .     A
C14    C73     1.419   .     S
C15    O57     1.294   .     A
C15    O58     1.295   .     A
C16    O60     1.300   .     A
C16    C18     1.465   .     S
C16    O59     1.297   .     A
C17    C28     1.390   .     A
C17    C564    1.401   1_554 S
C17    H587    1.077   1_554 S
C18    C28     1.398   .     A
C18    C27     1.400   .     A
C19    C20     1.393   .     A
C19    H48     1.079   .     S
C20    C561    1.387   .     S
C20    H573    1.078   .     S
C21    H32     1.078   .     S
C21    C560    1.387   1_554 S
C21    C552    1.410   1_554 S
C22    C26     1.410   .     A
C23    C27     1.403   .     A
C23    C552    1.420   1_554 S
C23    C564    1.418   1_554 S
C24    C25     1.399   .     A
C24    C557    1.401   .     S
C24    C563    1.418   .     S
C25    N52     1.432   .     S
C25    C26     1.390   .     A
C26    H34     1.079   .     S
C27    H40     1.077   .     S
C28    H31     1.083   .     S
Cu29   O59     1.945   .     S
Cu29   N49     2.021   .     S
Cu29   Cu30    2.689   .     S
Cu29   O53     1.965   .     S
Cu29   O57     1.964   .     S
Cu29   O55     1.952   .     S
Cu30   O54     1.964   .     S
Cu30   N50     2.021   .     S
Cu30   O58     1.965   .     S
Cu30   O56     1.945   .     S
Cu30   O60     1.952   .     S
H33    C560    1.078   1_554 S
H36    N51     1.045   .     S
H37    N51     1.046   .     S
H38    N52     1.046   .     S
H39    N52     1.043   .     S
H47    C557    1.077   .     S
C61    O114    1.294   .     A
C61    C69     1.451   .     S
C61    O113    1.295   .     A
C62    C82     1.425   .     A
C62    C64     1.486   .     S
C62    C79     1.402   .     A
C63    C69     1.402   .     A
C63    H95     1.083   .     S
C63    C245    1.384   .     S
C64    O116    1.295   .     A
C64    O115    1.311   .     A
C65    C66     1.401   .     A
C65    H101    1.083   .     S
C65    C423    1.384   1_545 S
C66    C67     1.401   .     A
C66    C75     1.450   .     S
C67    H102    1.083   .     S
C67    C428    1.383   1_545 S
C68    H103    1.083   .     S
C68    C69     1.401   .     A
C68    C247    1.383   .     S
C70    H104    1.082   .     S
C70    N110    1.365   .     A
C70    C131    1.423   .     S
C71    N109    1.373   .     A
C71    N111    1.429   .     S
C72    C82     1.416   .     A
C72    C621    1.410   .     S
C72    C623    1.420   .     S
C73    H105    1.082   .     S
C73    N109    1.368   .     A
C74    H106    1.082   .     S
C74    N110    1.368   .     A
C74    C133    1.419   .     S
C75    O117    1.294   .     A
C75    O118    1.295   .     A
C76    O120    1.300   .     A
C76    C78     1.465   .     S
C76    O119    1.297   .     A
C77    C88     1.390   .     A
C77    C624    1.401   1_554 S
C77    H647    1.077   1_554 S
C78    C88     1.398   .     A
C78    C87     1.400   .     A
C79    C80     1.393   .     A
C79    H108    1.079   .     S
C80    C621    1.387   .     S
C80    H633    1.078   .     S
C81    H92     1.078   .     S
C81    C620    1.387   1_554 S
C81    C612    1.410   1_554 S
C82    C86     1.410   .     A
C83    C87     1.403   .     A
C83    C612    1.420   1_554 S
C83    C624    1.418   1_554 S
C84    C85     1.399   .     A
C84    C617    1.401   .     S
C84    C623    1.418   .     S
C85    N112    1.432   .     S
C85    C86     1.390   .     A
C86    H94     1.079   .     S
C87    H100    1.077   .     S
C88    H91     1.083   .     S
Cu89   O119    1.945   .     S
Cu89   N109    2.021   .     S
Cu89   Cu90    2.689   .     S
Cu89   O113    1.965   .     S
Cu89   O117    1.964   .     S
Cu89   O115    1.952   .     S
Cu90   O114    1.964   .     S
Cu90   N110    2.021   .     S
Cu90   O118    1.965   .     S
Cu90   O116    1.945   .     S
Cu90   O120    1.952   .     S
H93    C620    1.078   1_554 S
H96    N111    1.045   .     S
H97    N111    1.046   .     S
H98    N112    1.046   .     S
H99    N112    1.043   .     S
H107   C617    1.077   .     S
C121   O174    1.294   .     A
C121   C129    1.451   .     S
C121   O173    1.295   .     A
C122   C142    1.425   .     A
C122   C124    1.486   .     S
C122   C139    1.402   .     A
C123   C129    1.402   .     A
C123   H155    1.083   .     S
C123   C305    1.384   .     S
C124   O176    1.295   .     A
C124   O175    1.311   .     A
C125   C126    1.401   .     A
C125   H161    1.083   .     S
C125   C483    1.384   1_545 S
C126   C127    1.401   .     A
C126   C135    1.450   .     S
C127   H162    1.083   .     S
C127   C488    1.383   1_545 S
C128   H163    1.083   .     S
C128   C129    1.401   .     A
C128   C307    1.383   .     S
C130   H164    1.082   .     S
C130   N170    1.365   .     A
C130   C11     1.423   1_655 S
C131   N169    1.373   .     A
C131   N171    1.429   .     S
C132   C142    1.416   .     A
C132   C681    1.410   .     S
C132   C683    1.420   .     S
C133   H165    1.082   .     S
C133   N169    1.368   .     A
C134   H166    1.082   .     S
C134   N170    1.368   .     A
C134   C13     1.419   1_655 S
C135   O177    1.294   .     A
C135   O178    1.295   .     A
C136   O180    1.300   .     A
C136   C138    1.465   .     S
C136   O179    1.297   .     A
C137   C148    1.390   .     A
C137   C684    1.401   1_554 S
C137   H707    1.077   1_554 S
C138   C148    1.398   .     A
C138   C147    1.400   .     A
C139   C140    1.393   .     A
C139   H168    1.079   .     S
C140   C681    1.387   .     S
C140   H693    1.078   .     S
C141   H152    1.078   .     S
C141   C680    1.387   1_554 S
C141   C672    1.410   1_554 S
C142   C146    1.410   .     A
C143   C147    1.403   .     A
C143   C672    1.420   1_554 S
C143   C684    1.418   1_554 S
C144   C145    1.399   .     A
C144   C677    1.401   .     S
C144   C683    1.418   .     S
C145   N172    1.432   .     S
C145   C146    1.390   .     A
C146   H154    1.079   .     S
C147   H160    1.077   .     S
C148   H151    1.083   .     S
Cu149  O179    1.945   .     S
Cu149  N169    2.021   .     S
Cu149  Cu150   2.689   .     S
Cu149  O173    1.965   .     S
Cu149  O177    1.964   .     S
Cu149  O175    1.952   .     S
Cu150  O174    1.964   .     S
Cu150  N170    2.021   .     S
Cu150  O178    1.965   .     S
Cu150  O176    1.945   .     S
Cu150  O180    1.952   .     S
H153   C680    1.078   1_554 S
H156   N171    1.045   .     S
H157   N171    1.046   .     S
H158   N172    1.046   .     S
H159   N172    1.043   .     S
H167   C677    1.077   .     S
C181   O234    1.294   .     A
C181   C189    1.451   .     S
C181   O233    1.295   .     A
C182   C202    1.425   .     A
C182   C184    1.486   .     S
C182   C199    1.402   .     A
C183   C189    1.402   .     A
C183   H215    1.083   .     S
C183   C365    1.384   .     S
C184   O236    1.295   .     A
C184   O235    1.311   .     A
C185   C186    1.401   .     A
C185   H221    1.083   .     S
C186   C187    1.401   .     A
C186   C195    1.450   .     S
C187   H222    1.083   .     S
C188   H223    1.083   .     S
C188   C189    1.401   .     A
C188   C367    1.383   .     S
C190   H224    1.082   .     S
C190   N230    1.365   .     A
C190   C251    1.423   .     S
C191   N229    1.373   .     A
C191   N231    1.429   .     S
C191   C310    1.423   1_455 S
C192   C202    1.416   .     A
C192   C741    1.410   .     S
C192   C743    1.420   .     S
C193   H225    1.082   .     S
C193   N229    1.368   .     A
C193   C314    1.419   1_455 S
C194   H226    1.082   .     S
C194   N230    1.368   .     A
C194   C253    1.419   .     S
C195   O237    1.294   .     A
C195   O238    1.295   .     A
C196   O240    1.300   .     A
C196   C198    1.465   .     S
C196   O239    1.297   .     A
C197   C208    1.390   .     A
C197   C744    1.401   1_554 S
C197   H767    1.077   1_554 S
C198   C208    1.398   .     A
C198   C207    1.400   .     A
C199   C200    1.393   .     A
C199   H228    1.079   .     S
C200   C741    1.387   .     S
C200   H753    1.078   .     S
C201   H212    1.078   .     S
C201   C740    1.387   1_554 S
C201   C732    1.410   1_554 S
C202   C206    1.410   .     A
C203   C207    1.403   .     A
C203   C732    1.420   1_554 S
C203   C744    1.418   1_554 S
C204   C205    1.399   .     A
C204   C737    1.401   .     S
C204   C743    1.418   .     S
C205   N232    1.432   .     S
C205   C206    1.390   .     A
C206   H214    1.079   .     S
C207   H220    1.077   .     S
C208   H211    1.083   .     S
Cu209  O239    1.945   .     S
Cu209  N229    2.021   .     S
Cu209  Cu210   2.689   .     S
Cu209  O233    1.965   .     S
Cu209  O237    1.964   .     S
Cu209  O235    1.952   .     S
Cu210  O234    1.964   .     S
Cu210  N230    2.021   .     S
Cu210  O238    1.965   .     S
Cu210  O236    1.945   .     S
Cu210  O240    1.952   .     S
H213   C740    1.078   1_554 S
H216   N231    1.045   .     S
H217   N231    1.046   .     S
H218   N232    1.046   .     S
H219   N232    1.043   .     S
H227   C737    1.077   .     S
C241   O294    1.294   .     A
C241   C249    1.451   .     S
C241   O293    1.295   .     A
C242   C262    1.425   .     A
C242   C244    1.486   .     S
C242   C259    1.402   .     A
C243   C249    1.402   .     A
C243   H275    1.083   .     S
C243   C425    1.384   .     S
C244   O296    1.295   .     A
C244   O295    1.311   .     A
C245   C246    1.401   .     A
C245   H281    1.083   .     S
C246   C247    1.401   .     A
C246   C255    1.450   .     S
C247   H282    1.083   .     S
C248   H283    1.083   .     S
C248   C249    1.401   .     A
C248   C427    1.383   .     S
C250   H284    1.082   .     S
C250   N290    1.365   .     A
C250   C311    1.423   .     S
C251   N289    1.373   .     A
C251   N291    1.429   .     S
C252   C262    1.416   .     A
C252   C801    1.410   .     S
C252   C803    1.420   .     S
C253   H285    1.082   .     S
C253   N289    1.368   .     A
C254   H286    1.082   .     S
C254   N290    1.368   .     A
C254   C313    1.419   .     S
C255   O297    1.294   .     A
C255   O298    1.295   .     A
C256   O300    1.300   .     A
C256   C258    1.465   .     S
C256   O299    1.297   .     A
C257   C268    1.390   .     A
C257   C804    1.401   1_554 S
C257   H827    1.077   1_554 S
C258   C268    1.398   .     A
C258   C267    1.400   .     A
C259   C260    1.393   .     A
C259   H288    1.079   .     S
C260   C801    1.387   .     S
C260   H813    1.078   .     S
C261   H272    1.078   .     S
C261   C800    1.387   1_554 S
C261   C792    1.410   1_554 S
C262   C266    1.410   .     A
C263   C267    1.403   .     A
C263   C792    1.420   1_554 S
C263   C804    1.418   1_554 S
C264   C265    1.399   .     A
C264   C797    1.401   .     S
C264   C803    1.418   .     S
C265   N292    1.432   .     S
C265   C266    1.390   .     A
C266   H274    1.079   .     S
C267   H280    1.077   .     S
C268   H271    1.083   .     S
Cu269  O299    1.945   .     S
Cu269  N289    2.021   .     S
Cu269  Cu270   2.689   .     S
Cu269  O293    1.965   .     S
Cu269  O297    1.964   .     S
Cu269  O295    1.952   .     S
Cu270  O294    1.964   .     S
Cu270  N290    2.021   .     S
Cu270  O298    1.965   .     S
Cu270  O296    1.945   .     S
Cu270  O300    1.952   .     S
H273   C800    1.078   1_554 S
H276   N291    1.045   .     S
H277   N291    1.046   .     S
H278   N292    1.046   .     S
H279   N292    1.043   .     S
H287   C797    1.077   .     S
C301   O354    1.294   .     A
C301   C309    1.451   .     S
C301   O353    1.295   .     A
C302   C322    1.425   .     A
C302   C304    1.486   .     S
C302   C319    1.402   .     A
C303   C309    1.402   .     A
C303   H335    1.083   .     S
C303   C485    1.384   .     S
C304   O356    1.295   .     A
C304   O355    1.311   .     A
C305   C306    1.401   .     A
C305   H341    1.083   .     S
C306   C307    1.401   .     A
C306   C315    1.450   .     S
C307   H342    1.083   .     S
C308   H343    1.083   .     S
C308   C309    1.401   .     A
C308   C487    1.383   .     S
C310   H344    1.082   .     S
C310   N350    1.365   .     A
C310   C191    1.423   1_655 S
C311   N349    1.373   .     A
C311   N351    1.429   .     S
C312   C322    1.416   .     A
C312   C861    1.410   .     S
C312   C863    1.420   .     S
C313   H345    1.082   .     S
C313   N349    1.368   .     A
C314   H346    1.082   .     S
C314   N350    1.368   .     A
C314   C193    1.419   1_655 S
C315   O357    1.294   .     A
C315   O358    1.295   .     A
C316   O360    1.300   .     A
C316   C318    1.465   .     S
C316   O359    1.297   .     A
C317   C328    1.390   .     A
C317   C864    1.401   1_554 S
C317   H887    1.077   1_554 S
C318   C328    1.398   .     A
C318   C327    1.400   .     A
C319   C320    1.393   .     A
C319   H348    1.079   .     S
C320   C861    1.387   .     S
C320   H873    1.078   .     S
C321   H332    1.078   .     S
C321   C860    1.387   1_554 S
C321   C852    1.410   1_554 S
C322   C326    1.410   .     A
C323   C327    1.403   .     A
C323   C852    1.420   1_554 S
C323   C864    1.418   1_554 S
C324   C325    1.399   .     A
C324   C857    1.401   .     S
C324   C863    1.418   .     S
C325   N352    1.432   .     S
C325   C326    1.390   .     A
C326   H334    1.079   .     S
C327   H340    1.077   .     S
C328   H331    1.083   .     S
Cu329  O359    1.945   .     S
Cu329  N349    2.021   .     S
Cu329  Cu330   2.689   .     S
Cu329  O353    1.965   .     S
Cu329  O357    1.964   .     S
Cu329  O355    1.952   .     S
Cu330  O354    1.964   .     S
Cu330  N350    2.021   .     S
Cu330  O358    1.965   .     S
Cu330  O356    1.945   .     S
Cu330  O360    1.952   .     S
H333   C860    1.078   1_554 S
H336   N351    1.045   .     S
H337   N351    1.046   .     S
H338   N352    1.046   .     S
H339   N352    1.043   .     S
H347   C857    1.077   .     S
C361   O414    1.294   .     A
C361   C369    1.451   .     S
C361   O413    1.295   .     A
C362   C382    1.425   .     A
C362   C364    1.486   .     S
C362   C379    1.402   .     A
C363   C369    1.402   .     A
C363   H395    1.083   .     S
C363   C5      1.384   1_565 S
C364   O416    1.295   .     A
C364   O415    1.311   .     A
C365   C366    1.401   .     A
C365   H401    1.083   .     S
C366   C367    1.401   .     A
C366   C375    1.450   .     S
C367   H402    1.083   .     S
C368   H403    1.083   .     S
C368   C369    1.401   .     A
C368   C7      1.383   1_565 S
C370   H404    1.082   .     S
C370   N410    1.365   .     A
C370   C431    1.423   .     S
C371   N409    1.373   .     A
C371   N411    1.429   .     S
C371   C490    1.423   1_455 S
C372   C382    1.416   .     A
C372   C921    1.410   .     S
C372   C923    1.420   .     S
C373   H405    1.082   .     S
C373   N409    1.368   .     A
C373   C494    1.419   1_455 S
C374   H406    1.082   .     S
C374   N410    1.368   .     A
C374   C433    1.419   .     S
C375   O417    1.294   .     A
C375   O418    1.295   .     A
C376   O420    1.300   .     A
C376   C378    1.465   .     S
C376   O419    1.297   .     A
C377   C388    1.390   .     A
C377   C924    1.401   1_554 S
C377   H947    1.077   1_554 S
C378   C388    1.398   .     A
C378   C387    1.400   .     A
C379   C380    1.393   .     A
C379   H408    1.079   .     S
C380   C921    1.387   .     S
C380   H933    1.078   .     S
C381   H392    1.078   .     S
C381   C920    1.387   1_554 S
C381   C912    1.410   1_554 S
C382   C386    1.410   .     A
C383   C387    1.403   .     A
C383   C912    1.420   1_554 S
C383   C924    1.418   1_554 S
C384   C385    1.399   .     A
C384   C917    1.401   .     S
C384   C923    1.418   .     S
C385   N412    1.432   .     S
C385   C386    1.390   .     A
C386   H394    1.079   .     S
C387   H400    1.077   .     S
C388   H391    1.083   .     S
Cu389  O419    1.945   .     S
Cu389  N409    2.021   .     S
Cu389  Cu390   2.689   .     S
Cu389  O413    1.965   .     S
Cu389  O417    1.964   .     S
Cu389  O415    1.952   .     S
Cu390  O414    1.964   .     S
Cu390  N410    2.021   .     S
Cu390  O418    1.965   .     S
Cu390  O416    1.945   .     S
Cu390  O420    1.952   .     S
H393   C920    1.078   1_554 S
H396   N411    1.045   .     S
H397   N411    1.046   .     S
H398   N412    1.046   .     S
H399   N412    1.043   .     S
H407   C917    1.077   .     S
C421   O474    1.294   .     A
C421   C429    1.451   .     S
C421   O473    1.295   .     A
C422   C442    1.425   .     A
C422   C424    1.486   .     S
C422   C439    1.402   .     A
C423   C429    1.402   .     A
C423   H455    1.083   .     S
C423   C65     1.384   1_565 S
C424   O476    1.295   .     A
C424   O475    1.311   .     A
C425   C426    1.401   .     A
C425   H461    1.083   .     S
C426   C427    1.401   .     A
C426   C435    1.450   .     S
C427   H462    1.083   .     S
C428   H463    1.083   .     S
C428   C429    1.401   .     A
C428   C67     1.383   1_565 S
C430   H464    1.082   .     S
C430   N470    1.365   .     A
C430   C491    1.423   .     S
C431   N469    1.373   .     A
C431   N471    1.429   .     S
C432   C442    1.416   .     A
C432   C981    1.410   .     S
C432   C983    1.420   .     S
C433   H465    1.082   .     S
C433   N469    1.368   .     A
C434   H466    1.082   .     S
C434   N470    1.368   .     A
C434   C493    1.419   .     S
C435   O477    1.294   .     A
C435   O478    1.295   .     A
C436   O480    1.300   .     A
C436   C438    1.465   .     S
C436   O479    1.297   .     A
C437   C448    1.390   .     A
C437   C984    1.401   1_554 S
C437   H1007   1.077   1_554 S
C438   C448    1.398   .     A
C438   C447    1.400   .     A
C439   C440    1.393   .     A
C439   H468    1.079   .     S
C440   C981    1.387   .     S
C440   H993    1.078   .     S
C441   H452    1.078   .     S
C441   C980    1.387   1_554 S
C441   C972    1.410   1_554 S
C442   C446    1.410   .     A
C443   C447    1.403   .     A
C443   C972    1.420   1_554 S
C443   C984    1.418   1_554 S
C444   C445    1.399   .     A
C444   C977    1.401   .     S
C444   C983    1.418   .     S
C445   N472    1.432   .     S
C445   C446    1.390   .     A
C446   H454    1.079   .     S
C447   H460    1.077   .     S
C448   H451    1.083   .     S
Cu449  O479    1.945   .     S
Cu449  N469    2.021   .     S
Cu449  Cu450   2.689   .     S
Cu449  O473    1.965   .     S
Cu449  O477    1.964   .     S
Cu449  O475    1.952   .     S
Cu450  O474    1.964   .     S
Cu450  N470    2.021   .     S
Cu450  O478    1.965   .     S
Cu450  O476    1.945   .     S
Cu450  O480    1.952   .     S
H453   C980    1.078   1_554 S
H456   N471    1.045   .     S
H457   N471    1.046   .     S
H458   N472    1.046   .     S
H459   N472    1.043   .     S
H467   C977    1.077   .     S
C481   O534    1.294   .     A
C481   C489    1.451   .     S
C481   O533    1.295   .     A
C482   C502    1.425   .     A
C482   C484    1.486   .     S
C482   C499    1.402   .     A
C483   C489    1.402   .     A
C483   H515    1.083   .     S
C483   C125    1.384   1_565 S
C484   O536    1.295   .     A
C484   O535    1.311   .     A
C485   C486    1.401   .     A
C485   H521    1.083   .     S
C486   C487    1.401   .     A
C486   C495    1.450   .     S
C487   H522    1.083   .     S
C488   H523    1.083   .     S
C488   C489    1.401   .     A
C488   C127    1.383   1_565 S
C490   H524    1.082   .     S
C490   N530    1.365   .     A
C490   C371    1.423   1_655 S
C491   N529    1.373   .     A
C491   N531    1.429   .     S
C492   C502    1.416   .     A
C492   C1041   1.410   .     S
C492   C1043   1.420   .     S
C493   H525    1.082   .     S
C493   N529    1.368   .     A
C494   H526    1.082   .     S
C494   N530    1.368   .     A
C494   C373    1.419   1_655 S
C495   O537    1.294   .     A
C495   O538    1.295   .     A
C496   O540    1.300   .     A
C496   C498    1.465   .     S
C496   O539    1.297   .     A
C497   C508    1.390   .     A
C497   C1044   1.401   1_554 S
C497   H1067   1.077   1_554 S
C498   C508    1.398   .     A
C498   C507    1.400   .     A
C499   C500    1.393   .     A
C499   H528    1.079   .     S
C500   C1041   1.387   .     S
C500   H1053   1.078   .     S
C501   H512    1.078   .     S
C501   C1040   1.387   1_554 S
C501   C1032   1.410   1_554 S
C502   C506    1.410   .     A
C503   C507    1.403   .     A
C503   C1032   1.420   1_554 S
C503   C1044   1.418   1_554 S
C504   C505    1.399   .     A
C504   C1037   1.401   .     S
C504   C1043   1.418   .     S
C505   N532    1.432   .     S
C505   C506    1.390   .     A
C506   H514    1.079   .     S
C507   H520    1.077   .     S
C508   H511    1.083   .     S
Cu509  O539    1.945   .     S
Cu509  N529    2.021   .     S
Cu509  Cu510   2.689   .     S
Cu509  O533    1.965   .     S
Cu509  O537    1.964   .     S
Cu509  O535    1.952   .     S
Cu510  O534    1.964   .     S
Cu510  N530    2.021   .     S
Cu510  O538    1.965   .     S
Cu510  O536    1.945   .     S
Cu510  O540    1.952   .     S
H513   C1040   1.078   1_554 S
H516   N531    1.045   .     S
H517   N531    1.046   .     S
H518   N532    1.046   .     S
H519   N532    1.043   .     S
H527   C1037   1.077   .     S
C541   O594    1.294   .     A
C541   C549    1.451   .     S
C541   O593    1.295   .     A
C542   C562    1.425   .     A
C542   C544    1.486   .     S
C542   C559    1.402   .     A
C543   C549    1.402   .     A
C543   H575    1.083   .     S
C543   C725    1.384   .     S
C544   O596    1.295   .     A
C544   O595    1.311   .     A
C545   C546    1.401   .     A
C545   H581    1.083   .     S
C545   C903    1.384   1_545 S
C546   C547    1.401   .     A
C546   C555    1.450   .     S
C547   H582    1.083   .     S
C547   C908    1.383   1_545 S
C548   H583    1.083   .     S
C548   C549    1.401   .     A
C548   C727    1.383   .     S
C550   H584    1.082   .     S
C550   N590    1.365   .     A
C550   C611    1.423   .     S
C551   N589    1.373   .     A
C551   N591    1.429   .     S
C551   C670    1.423   1_455 S
C552   C562    1.416   .     A
C552   C21     1.410   1_556 S
C552   C23     1.420   1_556 S
C553   H585    1.082   .     S
C553   N589    1.368   .     A
C553   C674    1.419   1_455 S
C554   H586    1.082   .     S
C554   N590    1.368   .     A
C554   C613    1.419   .     S
C555   O597    1.294   .     A
C555   O598    1.295   .     A
C556   O600    1.300   .     A
C556   C558    1.465   .     S
C556   O599    1.297   .     A
C557   C568    1.390   .     A
C558   C568    1.398   .     A
C558   C567    1.400   .     A
C559   C560    1.393   .     A
C559   H588    1.079   .     S
C560   C21     1.387   1_556 S
C560   H33     1.078   1_556 S
C561   H572    1.078   .     S
C562   C566    1.410   .     A
C563   C567    1.403   .     A
C564   C565    1.399   .     A
C564   C17     1.401   1_556 S
C564   C23     1.418   1_556 S
C565   N592    1.432   .     S
C565   C566    1.390   .     A
C566   H574    1.079   .     S
C567   H580    1.077   .     S
C568   H571    1.083   .     S
Cu569  O599    1.945   .     S
Cu569  N589    2.021   .     S
Cu569  Cu570   2.689   .     S
Cu569  O593    1.965   .     S
Cu569  O597    1.964   .     S
Cu569  O595    1.952   .     S
Cu570  O594    1.964   .     S
Cu570  N590    2.021   .     S
Cu570  O598    1.965   .     S
Cu570  O596    1.945   .     S
Cu570  O600    1.952   .     S
H576   N591    1.045   .     S
H577   N591    1.046   .     S
H578   N592    1.046   .     S
H579   N592    1.043   .     S
H587   C17     1.077   1_556 S
C601   O654    1.294   .     A
C601   C609    1.451   .     S
C601   O653    1.295   .     A
C602   C622    1.425   .     A
C602   C604    1.486   .     S
C602   C619    1.402   .     A
C603   C609    1.402   .     A
C603   H635    1.083   .     S
C603   C785    1.384   .     S
C604   O656    1.295   .     A
C604   O655    1.311   .     A
C605   C606    1.401   .     A
C605   H641    1.083   .     S
C605   C963    1.384   1_545 S
C606   C607    1.401   .     A
C606   C615    1.450   .     S
C607   H642    1.083   .     S
C607   C968    1.383   1_545 S
C608   H643    1.083   .     S
C608   C609    1.401   .     A
C608   C787    1.383   .     S
C610   H644    1.082   .     S
C610   N650    1.365   .     A
C610   C671    1.423   .     S
C611   N649    1.373   .     A
C611   N651    1.429   .     S
C612   C622    1.416   .     A
C612   C81     1.410   1_556 S
C612   C83     1.420   1_556 S
C613   H645    1.082   .     S
C613   N649    1.368   .     A
C614   H646    1.082   .     S
C614   N650    1.368   .     A
C614   C673    1.419   .     S
C615   O657    1.294   .     A
C615   O658    1.295   .     A
C616   O660    1.300   .     A
C616   C618    1.465   .     S
C616   O659    1.297   .     A
C617   C628    1.390   .     A
C618   C628    1.398   .     A
C618   C627    1.400   .     A
C619   C620    1.393   .     A
C619   H648    1.079   .     S
C620   C81     1.387   1_556 S
C620   H93     1.078   1_556 S
C621   H632    1.078   .     S
C622   C626    1.410   .     A
C623   C627    1.403   .     A
C624   C625    1.399   .     A
C624   C77     1.401   1_556 S
C624   C83     1.418   1_556 S
C625   N652    1.432   .     S
C625   C626    1.390   .     A
C626   H634    1.079   .     S
C627   H640    1.077   .     S
C628   H631    1.083   .     S
Cu629  O659    1.945   .     S
Cu629  N649    2.021   .     S
Cu629  Cu630   2.689   .     S
Cu629  O653    1.965   .     S
Cu629  O657    1.964   .     S
Cu629  O655    1.952   .     S
Cu630  O654    1.964   .     S
Cu630  N650    2.021   .     S
Cu630  O658    1.965   .     S
Cu630  O656    1.945   .     S
Cu630  O660    1.952   .     S
H636   N651    1.045   .     S
H637   N651    1.046   .     S
H638   N652    1.046   .     S
H639   N652    1.043   .     S
H647   C77     1.077   1_556 S
C661   O714    1.294   .     A
C661   C669    1.451   .     S
C661   O713    1.295   .     A
C662   C682    1.425   .     A
C662   C664    1.486   .     S
C662   C679    1.402   .     A
C663   C669    1.402   .     A
C663   H695    1.083   .     S
C663   C845    1.384   .     S
C664   O716    1.295   .     A
C664   O715    1.311   .     A
C665   C666    1.401   .     A
C665   H701    1.083   .     S
C665   C1023   1.384   1_545 S
C666   C667    1.401   .     A
C666   C675    1.450   .     S
C667   H702    1.083   .     S
C667   C1028   1.383   1_545 S
C668   H703    1.083   .     S
C668   C669    1.401   .     A
C668   C847    1.383   .     S
C670   H704    1.082   .     S
C670   N710    1.365   .     A
C670   C551    1.423   1_655 S
C671   N709    1.373   .     A
C671   N711    1.429   .     S
C672   C682    1.416   .     A
C672   C141    1.410   1_556 S
C672   C143    1.420   1_556 S
C673   H705    1.082   .     S
C673   N709    1.368   .     A
C674   H706    1.082   .     S
C674   N710    1.368   .     A
C674   C553    1.419   1_655 S
C675   O717    1.294   .     A
C675   O718    1.295   .     A
C676   O720    1.300   .     A
C676   C678    1.465   .     S
C676   O719    1.297   .     A
C677   C688    1.390   .     A
C678   C688    1.398   .     A
C678   C687    1.400   .     A
C679   C680    1.393   .     A
C679   H708    1.079   .     S
C680   C141    1.387   1_556 S
C680   H153    1.078   1_556 S
C681   H692    1.078   .     S
C682   C686    1.410   .     A
C683   C687    1.403   .     A
C684   C685    1.399   .     A
C684   C137    1.401   1_556 S
C684   C143    1.418   1_556 S
C685   N712    1.432   .     S
C685   C686    1.390   .     A
C686   H694    1.079   .     S
C687   H700    1.077   .     S
C688   H691    1.083   .     S
Cu689  O719    1.945   .     S
Cu689  N709    2.021   .     S
Cu689  Cu690   2.689   .     S
Cu689  O713    1.965   .     S
Cu689  O717    1.964   .     S
Cu689  O715    1.952   .     S
Cu690  O714    1.964   .     S
Cu690  N710    2.021   .     S
Cu690  O718    1.965   .     S
Cu690  O716    1.945   .     S
Cu690  O720    1.952   .     S
H696   N711    1.045   .     S
H697   N711    1.046   .     S
H698   N712    1.046   .     S
H699   N712    1.043   .     S
H707   C137    1.077   1_556 S
C721   O774    1.294   .     A
C721   C729    1.451   .     S
C721   O773    1.295   .     A
C722   C742    1.425   .     A
C722   C724    1.486   .     S
C722   C739    1.402   .     A
C723   C729    1.402   .     A
C723   H755    1.083   .     S
C723   C905    1.384   .     S
C724   O776    1.295   .     A
C724   O775    1.311   .     A
C725   C726    1.401   .     A
C725   H761    1.083   .     S
C726   C727    1.401   .     A
C726   C735    1.450   .     S
C727   H762    1.083   .     S
C728   H763    1.083   .     S
C728   C729    1.401   .     A
C728   C907    1.383   .     S
C730   H764    1.082   .     S
C730   N770    1.365   .     A
C730   C791    1.423   .     S
C731   N769    1.373   .     A
C731   N771    1.429   .     S
C731   C850    1.423   1_455 S
C732   C742    1.416   .     A
C732   C201    1.410   1_556 S
C732   C203    1.420   1_556 S
C733   H765    1.082   .     S
C733   N769    1.368   .     A
C733   C854    1.419   1_455 S
C734   H766    1.082   .     S
C734   N770    1.368   .     A
C734   C793    1.419   .     S
C735   O777    1.294   .     A
C735   O778    1.295   .     A
C736   O780    1.300   .     A
C736   C738    1.465   .     S
C736   O779    1.297   .     A
C737   C748    1.390   .     A
C738   C748    1.398   .     A
C738   C747    1.400   .     A
C739   C740    1.393   .     A
C739   H768    1.079   .     S
C740   C201    1.387   1_556 S
C740   H213    1.078   1_556 S
C741   H752    1.078   .     S
C742   C746    1.410   .     A
C743   C747    1.403   .     A
C744   C745    1.399   .     A
C744   C197    1.401   1_556 S
C744   C203    1.418   1_556 S
C745   N772    1.432   .     S
C745   C746    1.390   .     A
C746   H754    1.079   .     S
C747   H760    1.077   .     S
C748   H751    1.083   .     S
Cu749  O779    1.945   .     S
Cu749  N769    2.021   .     S
Cu749  Cu750   2.689   .     S
Cu749  O773    1.965   .     S
Cu749  O777    1.964   .     S
Cu749  O775    1.952   .     S
Cu750  O774    1.964   .     S
Cu750  N770    2.021   .     S
Cu750  O778    1.965   .     S
Cu750  O776    1.945   .     S
Cu750  O780    1.952   .     S
H756   N771    1.045   .     S
H757   N771    1.046   .     S
H758   N772    1.046   .     S
H759   N772    1.043   .     S
H767   C197    1.077   1_556 S
C781   O834    1.294   .     A
C781   C789    1.451   .     S
C781   O833    1.295   .     A
C782   C802    1.425   .     A
C782   C784    1.486   .     S
C782   C799    1.402   .     A
C783   C789    1.402   .     A
C783   H815    1.083   .     S
C783   C965    1.384   .     S
C784   O836    1.295   .     A
C784   O835    1.311   .     A
C785   C786    1.401   .     A
C785   H821    1.083   .     S
C786   C787    1.401   .     A
C786   C795    1.450   .     S
C787   H822    1.083   .     S
C788   H823    1.083   .     S
C788   C789    1.401   .     A
C788   C967    1.383   .     S
C790   H824    1.082   .     S
C790   N830    1.365   .     A
C790   C851    1.423   .     S
C791   N829    1.373   .     A
C791   N831    1.429   .     S
C792   C802    1.416   .     A
C792   C261    1.410   1_556 S
C792   C263    1.420   1_556 S
C793   H825    1.082   .     S
C793   N829    1.368   .     A
C794   H826    1.082   .     S
C794   N830    1.368   .     A
C794   C853    1.419   .     S
C795   O837    1.294   .     A
C795   O838    1.295   .     A
C796   O840    1.300   .     A
C796   C798    1.465   .     S
C796   O839    1.297   .     A
C797   C808    1.390   .     A
C798   C808    1.398   .     A
C798   C807    1.400   .     A
C799   C800    1.393   .     A
C799   H828    1.079   .     S
C800   C261    1.387   1_556 S
C800   H273    1.078   1_556 S
C801   H812    1.078   .     S
C802   C806    1.410   .     A
C803   C807    1.403   .     A
C804   C805    1.399   .     A
C804   C257    1.401   1_556 S
C804   C263    1.418   1_556 S
C805   N832    1.432   .     S
C805   C806    1.390   .     A
C806   H814    1.079   .     S
C807   H820    1.077   .     S
C808   H811    1.083   .     S
Cu809  O839    1.945   .     S
Cu809  N829    2.021   .     S
Cu809  Cu810   2.689   .     S
Cu809  O833    1.965   .     S
Cu809  O837    1.964   .     S
Cu809  O835    1.952   .     S
Cu810  O834    1.964   .     S
Cu810  N830    2.021   .     S
Cu810  O838    1.965   .     S
Cu810  O836    1.945   .     S
Cu810  O840    1.952   .     S
H816   N831    1.045   .     S
H817   N831    1.046   .     S
H818   N832    1.046   .     S
H819   N832    1.043   .     S
H827   C257    1.077   1_556 S
C841   O894    1.294   .     A
C841   C849    1.451   .     S
C841   O893    1.295   .     A
C842   C862    1.425   .     A
C842   C844    1.486   .     S
C842   C859    1.402   .     A
C843   C849    1.402   .     A
C843   H875    1.083   .     S
C843   C1025   1.384   .     S
C844   O896    1.295   .     A
C844   O895    1.311   .     A
C845   C846    1.401   .     A
C845   H881    1.083   .     S
C846   C847    1.401   .     A
C846   C855    1.450   .     S
C847   H882    1.083   .     S
C848   H883    1.083   .     S
C848   C849    1.401   .     A
C848   C1027   1.383   .     S
C850   H884    1.082   .     S
C850   N890    1.365   .     A
C850   C731    1.423   1_655 S
C851   N889    1.373   .     A
C851   N891    1.429   .     S
C852   C862    1.416   .     A
C852   C321    1.410   1_556 S
C852   C323    1.420   1_556 S
C853   H885    1.082   .     S
C853   N889    1.368   .     A
C854   H886    1.082   .     S
C854   N890    1.368   .     A
C854   C733    1.419   1_655 S
C855   O897    1.294   .     A
C855   O898    1.295   .     A
C856   O900    1.300   .     A
C856   C858    1.465   .     S
C856   O899    1.297   .     A
C857   C868    1.390   .     A
C858   C868    1.398   .     A
C858   C867    1.400   .     A
C859   C860    1.393   .     A
C859   H888    1.079   .     S
C860   C321    1.387   1_556 S
C860   H333    1.078   1_556 S
C861   H872    1.078   .     S
C862   C866    1.410   .     A
C863   C867    1.403   .     A
C864   C865    1.399   .     A
C864   C317    1.401   1_556 S
C864   C323    1.418   1_556 S
C865   N892    1.432   .     S
C865   C866    1.390   .     A
C866   H874    1.079   .     S
C867   H880    1.077   .     S
C868   H871    1.083   .     S
Cu869  O899    1.945   .     S
Cu869  N889    2.021   .     S
Cu869  Cu870   2.689   .     S
Cu869  O893    1.965   .     S
Cu869  O897    1.964   .     S
Cu869  O895    1.952   .     S
Cu870  O894    1.964   .     S
Cu870  N890    2.021   .     S
Cu870  O898    1.965   .     S
Cu870  O896    1.945   .     S
Cu870  O900    1.952   .     S
H876   N891    1.045   .     S
H877   N891    1.046   .     S
H878   N892    1.046   .     S
H879   N892    1.043   .     S
H887   C317    1.077   1_556 S
C901   O954    1.294   .     A
C901   C909    1.451   .     S
C901   O953    1.295   .     A
C902   C922    1.425   .     A
C902   C904    1.486   .     S
C902   C919    1.402   .     A
C903   C909    1.402   .     A
C903   H935    1.083   .     S
C903   C545    1.384   1_565 S
C904   O956    1.295   .     A
C904   O955    1.311   .     A
C905   C906    1.401   .     A
C905   H941    1.083   .     S
C906   C907    1.401   .     A
C906   C915    1.450   .     S
C907   H942    1.083   .     S
C908   H943    1.083   .     S
C908   C909    1.401   .     A
C908   C547    1.383   1_565 S
C910   H944    1.082   .     S
C910   N950    1.365   .     A
C910   C971    1.423   .     S
C911   N949    1.373   .     A
C911   N951    1.429   .     S
C911   C1030   1.423   1_455 S
C912   C922    1.416   .     A
C912   C381    1.410   1_556 S
C912   C383    1.420   1_556 S
C913   H945    1.082   .     S
C913   N949    1.368   .     A
C913   C1034   1.419   1_455 S
C914   H946    1.082   .     S
C914   N950    1.368   .     A
C914   C973    1.419   .     S
C915   O957    1.294   .     A
C915   O958    1.295   .     A
C916   O960    1.300   .     A
C916   C918    1.465   .     S
C916   O959    1.297   .     A
C917   C928    1.390   .     A
C918   C928    1.398   .     A
C918   C927    1.400   .     A
C919   C920    1.393   .     A
C919   H948    1.079   .     S
C920   C381    1.387   1_556 S
C920   H393    1.078   1_556 S
C921   H932    1.078   .     S
C922   C926    1.410   .     A
C923   C927    1.403   .     A
C924   C925    1.399   .     A
C924   C377    1.401   1_556 S
C924   C383    1.418   1_556 S
C925   N952    1.432   .     S
C925   C926    1.390   .     A
C926   H934    1.079   .     S
C927   H940    1.077   .     S
C928   H931    1.083   .     S
Cu929  O959    1.945   .     S
Cu929  N949    2.021   .     S
Cu929  Cu930   2.689   .     S
Cu929  O953    1.965   .     S
Cu929  O957    1.964   .     S
Cu929  O955    1.952   .     S
Cu930  O954    1.964   .     S
Cu930  N950    2.021   .     S
Cu930  O958    1.965   .     S
Cu930  O956    1.945   .     S
Cu930  O960    1.952   .     S
H936   N951    1.045   .     S
H937   N951    1.046   .     S
H938   N952    1.046   .     S
H939   N952    1.043   .     S
H947   C377    1.077   1_556 S
C961   O1014   1.294   .     A
C961   C969    1.451   .     S
C961   O1013   1.295   .     A
C962   C982    1.425   .     A
C962   C964    1.486   .     S
C962   C979    1.402   .     A
C963   C969    1.402   .     A
C963   H995    1.083   .     S
C963   C605    1.384   1_565 S
C964   O1016   1.295   .     A
C964   O1015   1.311   .     A
C965   C966    1.401   .     A
C965   H1001   1.083   .     S
C966   C967    1.401   .     A
C966   C975    1.450   .     S
C967   H1002   1.083   .     S
C968   H1003   1.083   .     S
C968   C969    1.401   .     A
C968   C607    1.383   1_565 S
C970   H1004   1.082   .     S
C970   N1010   1.365   .     A
C970   C1031   1.423   .     S
C971   N1009   1.373   .     A
C971   N1011   1.429   .     S
C972   C982    1.416   .     A
C972   C441    1.410   1_556 S
C972   C443    1.420   1_556 S
C973   H1005   1.082   .     S
C973   N1009   1.368   .     A
C974   H1006   1.082   .     S
C974   N1010   1.368   .     A
C974   C1033   1.419   .     S
C975   O1017   1.294   .     A
C975   O1018   1.295   .     A
C976   O1020   1.300   .     A
C976   C978    1.465   .     S
C976   O1019   1.297   .     A
C977   C988    1.390   .     A
C978   C988    1.398   .     A
C978   C987    1.400   .     A
C979   C980    1.393   .     A
C979   H1008   1.079   .     S
C980   C441    1.387   1_556 S
C980   H453    1.078   1_556 S
C981   H992    1.078   .     S
C982   C986    1.410   .     A
C983   C987    1.403   .     A
C984   C985    1.399   .     A
C984   C437    1.401   1_556 S
C984   C443    1.418   1_556 S
C985   N1012   1.432   .     S
C985   C986    1.390   .     A
C986   H994    1.079   .     S
C987   H1000   1.077   .     S
C988   H991    1.083   .     S
Cu989  O1019   1.945   .     S
Cu989  N1009   2.021   .     S
Cu989  Cu990   2.689   .     S
Cu989  O1013   1.965   .     S
Cu989  O1017   1.964   .     S
Cu989  O1015   1.952   .     S
Cu990  O1014   1.964   .     S
Cu990  N1010   2.021   .     S
Cu990  O1018   1.965   .     S
Cu990  O1016   1.945   .     S
Cu990  O1020   1.952   .     S
H996   N1011   1.045   .     S
H997   N1011   1.046   .     S
H998   N1012   1.046   .     S
H999   N1012   1.043   .     S
H1007  C437    1.077   1_556 S
C1021  O1074   1.294   .     A
C1021  C1029   1.451   .     S
C1021  O1073   1.295   .     A
C1022  C1042   1.425   .     A
C1022  C1024   1.486   .     S
C1022  C1039   1.402   .     A
C1023  C1029   1.402   .     A
C1023  H1055   1.083   .     S
C1023  C665    1.384   1_565 S
C1024  O1076   1.295   .     A
C1024  O1075   1.311   .     A
C1025  C1026   1.401   .     A
C1025  H1061   1.083   .     S
C1026  C1027   1.401   .     A
C1026  C1035   1.450   .     S
C1027  H1062   1.083   .     S
C1028  H1063   1.083   .     S
C1028  C1029   1.401   .     A
C1028  C667    1.383   1_565 S
C1030  H1064   1.082   .     S
C1030  N1070   1.365   .     A
C1030  C911    1.423   1_655 S
C1031  N1069   1.373   .     A
C1031  N1071   1.429   .     S
C1032  C1042   1.416   .     A
C1032  C501    1.410   1_556 S
C1032  C503    1.420   1_556 S
C1033  H1065   1.082   .     S
C1033  N1069   1.368   .     A
C1034  H1066   1.082   .     S
C1034  N1070   1.368   .     A
C1034  C913    1.419   1_655 S
C1035  O1077   1.294   .     A
C1035  O1078   1.295   .     A
C1036  O1080   1.300   .     A
C1036  C1038   1.465   .     S
C1036  O1079   1.297   .     A
C1037  C1048   1.390   .     A
C1038  C1048   1.398   .     A
C1038  C1047   1.400   .     A
C1039  C1040   1.393   .     A
C1039  H1068   1.079   .     S
C1040  C501    1.387   1_556 S
C1040  H513    1.078   1_556 S
C1041  H1052   1.078   .     S
C1042  C1046   1.410   .     A
C1043  C1047   1.403   .     A
C1044  C1045   1.399   .     A
C1044  C497    1.401   1_556 S
C1044  C503    1.418   1_556 S
C1045  N1072   1.432   .     S
C1045  C1046   1.390   .     A
C1046  H1054   1.079   .     S
C1047  H1060   1.077   .     S
C1048  H1051   1.083   .     S
Cu1049 O1079   1.945   .     S
Cu1049 N1069   2.021   .     S
Cu1049 Cu1050  2.689   .     S
Cu1049 O1073   1.965   .     S
Cu1049 O1077   1.964   .     S
Cu1049 O1075   1.952   .     S
Cu1050 O1074   1.964   .     S
Cu1050 N1070   2.021   .     S
Cu1050 O1078   1.965   .     S
Cu1050 O1076   1.945   .     S
Cu1050 O1080   1.952   .     S
H1056  N1071   1.045   .     S
H1057  N1071   1.046   .     S
H1058  N1072   1.046   .     S
H1059  N1072   1.043   .     S
H1067  C497    1.077   1_556 S
