data_str_m2_o1_o16_pcu_sym.192
_audit_creation_date              2020-01-03
_audit_creation_method            'Materials Studio'
_symmetry_space_group_name_H-M    'P1'
_symmetry_Int_Tables_number       1
_symmetry_cell_setting            triclinic
loop_
_symmetry_equiv_pos_as_xyz
  x,y,z
_cell_length_a                    28.6541
_cell_length_b                    32.6039
_cell_length_c                    26.6809
_cell_angle_alpha                 90.8017
_cell_angle_beta                  73.7851
_cell_angle_gamma                 89.2566
loop_
_atom_site_label
_atom_site_type_symbol
_atom_site_fract_x
_atom_site_fract_y
_atom_site_fract_z
_atom_site_U_iso_or_equiv
_atom_site_adp_type
_atom_site_occupancy
C1     C     0.16571   0.24590   0.25247   0.00000  Uiso   1.00
C2     C     0.15022   0.14418   0.48536   0.00000  Uiso   1.00
C3     C     0.16555   0.14228   0.43035   0.00000  Uiso   1.00
C4     C     0.18482   0.15637   0.01207   0.00000  Uiso   1.00
C5     C     0.23480   0.15783   0.48397   0.00000  Uiso   1.00
C6     C     0.24996   0.14745   0.43077   0.00000  Uiso   1.00
C7     C     0.21544   0.13564   0.40559   0.00000  Uiso   1.00
C8     C     0.17136   0.16988   0.06467   0.00000  Uiso   1.00
C9     C     0.25655   0.17291   0.06406   0.00000  Uiso   1.00
C10    C     0.13031   0.14226   0.40233   0.00000  Uiso   1.00
C11    C     0.20906   0.31064   0.24525   0.00000  Uiso   1.00
C12    C     0.14193   0.15843   0.34819   0.00000  Uiso   1.00
C13    C     0.21083   0.01992   0.24454   0.00000  Uiso   1.00
C14    C     0.16711   0.04269   0.25254   0.00000  Uiso   1.00
C15    C     0.12250   0.02264   0.26438   0.00000  Uiso   1.00
C16    C     0.12060   0.31368   0.26830   0.00000  Uiso   1.00
C17    C     0.16458   0.29056   0.25591   0.00000  Uiso   1.00
C18    C     0.30009   0.19233   0.28295   0.00000  Uiso   1.00
C19    C     0.01617   0.19209   0.28282   0.00000  Uiso   1.00
C20    C     0.03412   0.14166   0.21662   0.00000  Uiso   1.00
C21    C     0.31817   0.14165   0.21631   0.00000  Uiso   1.00
C22    C     0.16693   0.08736   0.25034   0.00000  Uiso   1.00
C23    C     0.19232   0.16926   0.14992   0.00000  Uiso   1.00
C24    C     0.26959   0.16802   0.00981   0.00000  Uiso   1.00
C25    C     0.20704   0.17151   0.09227   0.00000  Uiso   1.00
C26    C     0.08563   0.12411   0.42601   0.00000  Uiso   1.00
C27    C     0.07227   0.11682   0.47995   0.00000  Uiso   1.00
C28    C     0.10326   0.12895   0.01062   0.00000  Uiso   1.00
Cu29   Cu    0.11978   0.16666   0.25000   0.00000  Uiso   1.00
Cu30   Cu    0.21355   0.16667   0.25000   0.00000  Uiso   1.00
H31    H     0.08855   0.03992   0.27272   0.00000  Uiso   1.00
H32    H     0.02790   0.21216   0.30938   0.00000  Uiso   1.00
H33    H     0.06031   0.12171   0.18986   0.00000  Uiso   1.00
H34    H     0.30758   0.17006   0.48825   0.00000  Uiso   1.00
H35    H     0.24288   0.29318   0.23686   0.00000  Uiso   1.00
N36    N     0.04931   0.16666   0.24998   0.00000  Uiso   1.00
N37    N     0.28402   0.16669   0.24999   0.00000  Uiso   1.00
O38    O     0.12708   0.22678   0.25000   0.00000  Uiso   1.00
O39    O     0.20627   0.22679   0.25000   0.00000  Uiso   1.00
O40    O     0.10775   0.16665   0.32549   0.00000  Uiso   1.00
O41    O     0.18694   0.16666   0.32549   0.00000  Uiso   1.00
O42    O     0.12706   0.10654   0.24999   0.00000  Uiso   1.00
O43    O     0.20625   0.10655   0.24999   0.00000  Uiso   1.00
O44    O     0.14640   0.16667   0.17451   0.00000  Uiso   1.00
O45    O     0.22559   0.16668   0.17451   0.00000  Uiso   1.00
O46    O     0.29149   0.17992   0.08980   0.00000  Uiso   1.00
H47    H     0.32415   0.17965   0.06424   0.00000  Uiso   1.00
O48    O     0.25476   0.03950   0.23556   0.00000  Uiso   1.00
H49    H     0.28142   0.01892   0.23140   0.00000  Uiso   1.00
O50    O     0.07540   0.29643   0.28514   0.00000  Uiso   1.00
H51    H     0.07753   0.27452   0.30980   0.00000  Uiso   1.00
Cl52   Cl    0.26067   0.22647   0.32693   0.00000  Uiso   1.00
Cl53   Cl    0.30312   0.10923   0.17042   0.00000  Uiso   1.00
O54    O     0.29877   0.14843   0.40466   0.00000  Uiso   1.00
H55    H     0.30333   0.14431   0.36682   0.00000  Uiso   1.00
O56    O     0.12501   0.18575   0.08614   0.00000  Uiso   1.00
H57    H     0.12682   0.20857   0.11044   0.00000  Uiso   1.00
Cl58   Cl    0.05348   0.10045   0.38620   0.00000  Uiso   1.00
O59    O     0.09230   0.11916   0.06278   0.00000  Uiso   1.00
H60    H     0.05671   0.11691   0.07722   0.00000  Uiso   1.00
Cl61   Cl    0.01873   0.08923   0.00777   0.00000  Uiso   1.00
Cl62   Cl    0.23379   0.09931   0.35340   0.00000  Uiso   1.00
C63    C     0.49905   0.24590   0.25247   0.00000  Uiso   1.00
C64    C     0.48355   0.14418   0.48536   0.00000  Uiso   1.00
C65    C     0.49889   0.14228   0.43035   0.00000  Uiso   1.00
C66    C     0.51815   0.15637   0.01207   0.00000  Uiso   1.00
C67    C     0.56813   0.15783   0.48397   0.00000  Uiso   1.00
C68    C     0.58330   0.14745   0.43077   0.00000  Uiso   1.00
C69    C     0.54877   0.13564   0.40559   0.00000  Uiso   1.00
C70    C     0.50470   0.16988   0.06467   0.00000  Uiso   1.00
C71    C     0.58988   0.17291   0.06406   0.00000  Uiso   1.00
C72    C     0.46364   0.14226   0.40233   0.00000  Uiso   1.00
C73    C     0.54239   0.31064   0.24525   0.00000  Uiso   1.00
C74    C     0.47527   0.15843   0.34819   0.00000  Uiso   1.00
C75    C     0.54416   0.01992   0.24454   0.00000  Uiso   1.00
C76    C     0.50045   0.04269   0.25254   0.00000  Uiso   1.00
C77    C     0.45584   0.02264   0.26438   0.00000  Uiso   1.00
C78    C     0.45394   0.31368   0.26830   0.00000  Uiso   1.00
C79    C     0.49791   0.29056   0.25591   0.00000  Uiso   1.00
C80    C     0.63343   0.19233   0.28295   0.00000  Uiso   1.00
C81    C     0.34951   0.19209   0.28282   0.00000  Uiso   1.00
C82    C     0.36745   0.14166   0.21662   0.00000  Uiso   1.00
C83    C     0.65151   0.14165   0.21631   0.00000  Uiso   1.00
C84    C     0.50027   0.08736   0.25034   0.00000  Uiso   1.00
C85    C     0.52566   0.16926   0.14992   0.00000  Uiso   1.00
C86    C     0.60292   0.16802   0.00981   0.00000  Uiso   1.00
C87    C     0.54037   0.17151   0.09227   0.00000  Uiso   1.00
C88    C     0.41896   0.12411   0.42601   0.00000  Uiso   1.00
C89    C     0.40560   0.11682   0.47995   0.00000  Uiso   1.00
C90    C     0.43659   0.12895   0.01062   0.00000  Uiso   1.00
Cu91   Cu    0.45311   0.16666   0.25000   0.00000  Uiso   1.00
Cu92   Cu    0.54689   0.16667   0.25000   0.00000  Uiso   1.00
H93    H     0.42188   0.03992   0.27272   0.00000  Uiso   1.00
H94    H     0.36124   0.21216   0.30938   0.00000  Uiso   1.00
H95    H     0.39364   0.12171   0.18986   0.00000  Uiso   1.00
H96    H     0.64091   0.17006   0.48825   0.00000  Uiso   1.00
H97    H     0.57621   0.29318   0.23686   0.00000  Uiso   1.00
N98    N     0.38265   0.16666   0.24998   0.00000  Uiso   1.00
N99    N     0.61735   0.16669   0.24999   0.00000  Uiso   1.00
O100   O     0.46042   0.22678   0.25000   0.00000  Uiso   1.00
O101   O     0.53961   0.22679   0.25000   0.00000  Uiso   1.00
O102   O     0.44108   0.16665   0.32549   0.00000  Uiso   1.00
O103   O     0.52027   0.16666   0.32549   0.00000  Uiso   1.00
O104   O     0.46039   0.10654   0.24999   0.00000  Uiso   1.00
O105   O     0.53958   0.10655   0.24999   0.00000  Uiso   1.00
O106   O     0.47973   0.16667   0.17451   0.00000  Uiso   1.00
O107   O     0.55892   0.16668   0.17451   0.00000  Uiso   1.00
O108   O     0.62483   0.17992   0.08980   0.00000  Uiso   1.00
H109   H     0.65748   0.17965   0.06424   0.00000  Uiso   1.00
O110   O     0.58810   0.03950   0.23556   0.00000  Uiso   1.00
H111   H     0.61476   0.01892   0.23140   0.00000  Uiso   1.00
O112   O     0.40873   0.29643   0.28514   0.00000  Uiso   1.00
H113   H     0.41086   0.27452   0.30980   0.00000  Uiso   1.00
Cl114  Cl    0.59401   0.22647   0.32693   0.00000  Uiso   1.00
Cl115  Cl    0.63645   0.10923   0.17042   0.00000  Uiso   1.00
O116   O     0.63210   0.14843   0.40466   0.00000  Uiso   1.00
H117   H     0.63667   0.14431   0.36682   0.00000  Uiso   1.00
O118   O     0.45835   0.18575   0.08614   0.00000  Uiso   1.00
H119   H     0.46015   0.20857   0.11044   0.00000  Uiso   1.00
Cl120  Cl    0.38681   0.10045   0.38620   0.00000  Uiso   1.00
O121   O     0.42563   0.11916   0.06278   0.00000  Uiso   1.00
H122   H     0.39005   0.11691   0.07722   0.00000  Uiso   1.00
Cl123  Cl    0.35206   0.08923   0.00777   0.00000  Uiso   1.00
Cl124  Cl    0.56712   0.09931   0.35340   0.00000  Uiso   1.00
C125   C     0.83238   0.24590   0.25247   0.00000  Uiso   1.00
C126   C     0.81689   0.14418   0.48536   0.00000  Uiso   1.00
C127   C     0.83222   0.14228   0.43035   0.00000  Uiso   1.00
C128   C     0.85148   0.15637   0.01207   0.00000  Uiso   1.00
C129   C     0.90146   0.15783   0.48397   0.00000  Uiso   1.00
C130   C     0.91663   0.14745   0.43077   0.00000  Uiso   1.00
C131   C     0.88211   0.13564   0.40559   0.00000  Uiso   1.00
C132   C     0.83803   0.16988   0.06467   0.00000  Uiso   1.00
C133   C     0.92322   0.17291   0.06406   0.00000  Uiso   1.00
C134   C     0.79697   0.14226   0.40233   0.00000  Uiso   1.00
C135   C     0.87573   0.31064   0.24525   0.00000  Uiso   1.00
C136   C     0.80860   0.15843   0.34819   0.00000  Uiso   1.00
C137   C     0.87750   0.01992   0.24454   0.00000  Uiso   1.00
C138   C     0.83378   0.04269   0.25254   0.00000  Uiso   1.00
C139   C     0.78917   0.02264   0.26438   0.00000  Uiso   1.00
C140   C     0.78727   0.31368   0.26830   0.00000  Uiso   1.00
C141   C     0.83124   0.29056   0.25591   0.00000  Uiso   1.00
C142   C     0.96676   0.19233   0.28295   0.00000  Uiso   1.00
C143   C     0.68284   0.19209   0.28282   0.00000  Uiso   1.00
C144   C     0.70078   0.14166   0.21662   0.00000  Uiso   1.00
C145   C     0.98484   0.14165   0.21631   0.00000  Uiso   1.00
C146   C     0.83360   0.08736   0.25034   0.00000  Uiso   1.00
C147   C     0.85899   0.16926   0.14992   0.00000  Uiso   1.00
C148   C     0.93625   0.16802   0.00981   0.00000  Uiso   1.00
C149   C     0.87371   0.17151   0.09227   0.00000  Uiso   1.00
C150   C     0.75230   0.12411   0.42601   0.00000  Uiso   1.00
C151   C     0.73893   0.11682   0.47995   0.00000  Uiso   1.00
C152   C     0.76993   0.12895   0.01062   0.00000  Uiso   1.00
Cu153  Cu    0.78645   0.16666   0.25000   0.00000  Uiso   1.00
Cu154  Cu    0.88022   0.16667   0.25000   0.00000  Uiso   1.00
H155   H     0.75521   0.03992   0.27272   0.00000  Uiso   1.00
H156   H     0.69457   0.21216   0.30938   0.00000  Uiso   1.00
H157   H     0.72697   0.12171   0.18986   0.00000  Uiso   1.00
H158   H     0.97424   0.17006   0.48825   0.00000  Uiso   1.00
H159   H     0.90954   0.29318   0.23686   0.00000  Uiso   1.00
N160   N     0.71598   0.16666   0.24998   0.00000  Uiso   1.00
N161   N     0.95069   0.16669   0.24999   0.00000  Uiso   1.00
O162   O     0.79375   0.22678   0.25000   0.00000  Uiso   1.00
O163   O     0.87294   0.22679   0.25000   0.00000  Uiso   1.00
O164   O     0.77441   0.16665   0.32549   0.00000  Uiso   1.00
O165   O     0.85360   0.16666   0.32549   0.00000  Uiso   1.00
O166   O     0.79373   0.10654   0.24999   0.00000  Uiso   1.00
O167   O     0.87292   0.10655   0.24999   0.00000  Uiso   1.00
O168   O     0.81306   0.16667   0.17451   0.00000  Uiso   1.00
O169   O     0.89225   0.16668   0.17451   0.00000  Uiso   1.00
O170   O     0.95816   0.17992   0.08980   0.00000  Uiso   1.00
H171   H     0.99081   0.17965   0.06424   0.00000  Uiso   1.00
O172   O     0.92143   0.03950   0.23556   0.00000  Uiso   1.00
H173   H     0.94809   0.01892   0.23140   0.00000  Uiso   1.00
O174   O     0.74207   0.29643   0.28514   0.00000  Uiso   1.00
H175   H     0.74420   0.27452   0.30980   0.00000  Uiso   1.00
Cl176  Cl    0.92734   0.22647   0.32693   0.00000  Uiso   1.00
Cl177  Cl    0.96979   0.10923   0.17042   0.00000  Uiso   1.00
O178   O     0.96544   0.14843   0.40466   0.00000  Uiso   1.00
H179   H     0.97000   0.14431   0.36682   0.00000  Uiso   1.00
O180   O     0.79168   0.18575   0.08614   0.00000  Uiso   1.00
H181   H     0.79349   0.20857   0.11044   0.00000  Uiso   1.00
Cl182  Cl    0.72015   0.10045   0.38620   0.00000  Uiso   1.00
O183   O     0.75896   0.11916   0.06278   0.00000  Uiso   1.00
H184   H     0.72338   0.11691   0.07722   0.00000  Uiso   1.00
Cl185  Cl    0.68540   0.08923   0.00777   0.00000  Uiso   1.00
Cl186  Cl    0.90046   0.09931   0.35340   0.00000  Uiso   1.00
C187   C     0.16571   0.57923   0.25247   0.00000  Uiso   1.00
C188   C     0.15022   0.47751   0.48536   0.00000  Uiso   1.00
C189   C     0.16555   0.47561   0.43035   0.00000  Uiso   1.00
C190   C     0.18482   0.48970   0.01207   0.00000  Uiso   1.00
C191   C     0.23480   0.49116   0.48397   0.00000  Uiso   1.00
C192   C     0.24996   0.48078   0.43077   0.00000  Uiso   1.00
C193   C     0.21544   0.46897   0.40559   0.00000  Uiso   1.00
C194   C     0.17136   0.50321   0.06467   0.00000  Uiso   1.00
C195   C     0.25655   0.50624   0.06406   0.00000  Uiso   1.00
C196   C     0.13031   0.47559   0.40233   0.00000  Uiso   1.00
C197   C     0.20906   0.64397   0.24525   0.00000  Uiso   1.00
C198   C     0.14193   0.49177   0.34819   0.00000  Uiso   1.00
C199   C     0.21083   0.35326   0.24454   0.00000  Uiso   1.00
C200   C     0.16711   0.37603   0.25254   0.00000  Uiso   1.00
C201   C     0.12250   0.35597   0.26438   0.00000  Uiso   1.00
C202   C     0.12060   0.64701   0.26830   0.00000  Uiso   1.00
C203   C     0.16458   0.62390   0.25591   0.00000  Uiso   1.00
C204   C     0.30009   0.52566   0.28295   0.00000  Uiso   1.00
C205   C     0.01617   0.52542   0.28282   0.00000  Uiso   1.00
C206   C     0.03412   0.47499   0.21662   0.00000  Uiso   1.00
C207   C     0.31817   0.47498   0.21631   0.00000  Uiso   1.00
C208   C     0.16693   0.42069   0.25034   0.00000  Uiso   1.00
C209   C     0.19232   0.50259   0.14992   0.00000  Uiso   1.00
C210   C     0.26959   0.50135   0.00981   0.00000  Uiso   1.00
C211   C     0.20704   0.50485   0.09227   0.00000  Uiso   1.00
C212   C     0.08563   0.45745   0.42601   0.00000  Uiso   1.00
C213   C     0.07227   0.45015   0.47995   0.00000  Uiso   1.00
C214   C     0.10326   0.46228   0.01062   0.00000  Uiso   1.00
Cu215  Cu    0.11978   0.49999   0.25000   0.00000  Uiso   1.00
Cu216  Cu    0.21355   0.50001   0.25000   0.00000  Uiso   1.00
H217   H     0.08855   0.37325   0.27272   0.00000  Uiso   1.00
H218   H     0.02790   0.54550   0.30938   0.00000  Uiso   1.00
H219   H     0.06031   0.45504   0.18986   0.00000  Uiso   1.00
H220   H     0.30758   0.50339   0.48825   0.00000  Uiso   1.00
H221   H     0.24288   0.62652   0.23686   0.00000  Uiso   1.00
N222   N     0.04931   0.49999   0.24998   0.00000  Uiso   1.00
N223   N     0.28402   0.50002   0.24999   0.00000  Uiso   1.00
O224   O     0.12708   0.56011   0.25000   0.00000  Uiso   1.00
O225   O     0.20627   0.56012   0.25000   0.00000  Uiso   1.00
O226   O     0.10775   0.49998   0.32549   0.00000  Uiso   1.00
O227   O     0.18694   0.49999   0.32549   0.00000  Uiso   1.00
O228   O     0.12706   0.43988   0.24999   0.00000  Uiso   1.00
O229   O     0.20625   0.43989   0.24999   0.00000  Uiso   1.00
O230   O     0.14640   0.50001   0.17451   0.00000  Uiso   1.00
O231   O     0.22559   0.50002   0.17451   0.00000  Uiso   1.00
O232   O     0.29149   0.51325   0.08980   0.00000  Uiso   1.00
H233   H     0.32415   0.51298   0.06424   0.00000  Uiso   1.00
O234   O     0.25476   0.37284   0.23556   0.00000  Uiso   1.00
H235   H     0.28142   0.35225   0.23140   0.00000  Uiso   1.00
O236   O     0.07540   0.62976   0.28514   0.00000  Uiso   1.00
H237   H     0.07753   0.60786   0.30980   0.00000  Uiso   1.00
Cl238  Cl    0.26067   0.55980   0.32693   0.00000  Uiso   1.00
Cl239  Cl    0.30312   0.44256   0.17042   0.00000  Uiso   1.00
O240   O     0.29877   0.48176   0.40466   0.00000  Uiso   1.00
H241   H     0.30333   0.47765   0.36682   0.00000  Uiso   1.00
O242   O     0.12501   0.51909   0.08614   0.00000  Uiso   1.00
H243   H     0.12682   0.54191   0.11044   0.00000  Uiso   1.00
Cl244  Cl    0.05348   0.43378   0.38620   0.00000  Uiso   1.00
O245   O     0.09230   0.45249   0.06278   0.00000  Uiso   1.00
H246   H     0.05671   0.45025   0.07722   0.00000  Uiso   1.00
Cl247  Cl    0.01873   0.42256   0.00777   0.00000  Uiso   1.00
Cl248  Cl    0.23379   0.43265   0.35340   0.00000  Uiso   1.00
C249   C     0.49905   0.57923   0.25247   0.00000  Uiso   1.00
C250   C     0.48355   0.47751   0.48536   0.00000  Uiso   1.00
C251   C     0.49889   0.47561   0.43035   0.00000  Uiso   1.00
C252   C     0.51815   0.48970   0.01207   0.00000  Uiso   1.00
C253   C     0.56813   0.49116   0.48397   0.00000  Uiso   1.00
C254   C     0.58330   0.48078   0.43077   0.00000  Uiso   1.00
C255   C     0.54877   0.46897   0.40559   0.00000  Uiso   1.00
C256   C     0.50470   0.50321   0.06467   0.00000  Uiso   1.00
C257   C     0.58988   0.50624   0.06406   0.00000  Uiso   1.00
C258   C     0.46364   0.47559   0.40233   0.00000  Uiso   1.00
C259   C     0.54239   0.64397   0.24525   0.00000  Uiso   1.00
C260   C     0.47527   0.49177   0.34819   0.00000  Uiso   1.00
C261   C     0.54416   0.35326   0.24454   0.00000  Uiso   1.00
C262   C     0.50045   0.37603   0.25254   0.00000  Uiso   1.00
C263   C     0.45584   0.35597   0.26438   0.00000  Uiso   1.00
C264   C     0.45394   0.64701   0.26830   0.00000  Uiso   1.00
C265   C     0.49791   0.62390   0.25591   0.00000  Uiso   1.00
C266   C     0.63343   0.52566   0.28295   0.00000  Uiso   1.00
C267   C     0.34951   0.52542   0.28282   0.00000  Uiso   1.00
C268   C     0.36745   0.47499   0.21662   0.00000  Uiso   1.00
C269   C     0.65151   0.47498   0.21631   0.00000  Uiso   1.00
C270   C     0.50027   0.42069   0.25034   0.00000  Uiso   1.00
C271   C     0.52566   0.50259   0.14992   0.00000  Uiso   1.00
C272   C     0.60292   0.50135   0.00981   0.00000  Uiso   1.00
C273   C     0.54037   0.50485   0.09227   0.00000  Uiso   1.00
C274   C     0.41896   0.45745   0.42601   0.00000  Uiso   1.00
C275   C     0.40560   0.45015   0.47995   0.00000  Uiso   1.00
C276   C     0.43659   0.46228   0.01062   0.00000  Uiso   1.00
Cu277  Cu    0.45311   0.49999   0.25000   0.00000  Uiso   1.00
Cu278  Cu    0.54689   0.50001   0.25000   0.00000  Uiso   1.00
H279   H     0.42188   0.37325   0.27272   0.00000  Uiso   1.00
H280   H     0.36124   0.54550   0.30938   0.00000  Uiso   1.00
H281   H     0.39364   0.45504   0.18986   0.00000  Uiso   1.00
H282   H     0.64091   0.50339   0.48825   0.00000  Uiso   1.00
H283   H     0.57621   0.62652   0.23686   0.00000  Uiso   1.00
N284   N     0.38265   0.49999   0.24998   0.00000  Uiso   1.00
N285   N     0.61735   0.50002   0.24999   0.00000  Uiso   1.00
O286   O     0.46042   0.56011   0.25000   0.00000  Uiso   1.00
O287   O     0.53961   0.56012   0.25000   0.00000  Uiso   1.00
O288   O     0.44108   0.49998   0.32549   0.00000  Uiso   1.00
O289   O     0.52027   0.49999   0.32549   0.00000  Uiso   1.00
O290   O     0.46039   0.43988   0.24999   0.00000  Uiso   1.00
O291   O     0.53958   0.43989   0.24999   0.00000  Uiso   1.00
O292   O     0.47973   0.50001   0.17451   0.00000  Uiso   1.00
O293   O     0.55892   0.50002   0.17451   0.00000  Uiso   1.00
O294   O     0.62483   0.51325   0.08980   0.00000  Uiso   1.00
H295   H     0.65748   0.51298   0.06424   0.00000  Uiso   1.00
O296   O     0.58810   0.37284   0.23556   0.00000  Uiso   1.00
H297   H     0.61476   0.35225   0.23140   0.00000  Uiso   1.00
O298   O     0.40873   0.62976   0.28514   0.00000  Uiso   1.00
H299   H     0.41086   0.60786   0.30980   0.00000  Uiso   1.00
Cl300  Cl    0.59401   0.55980   0.32693   0.00000  Uiso   1.00
Cl301  Cl    0.63645   0.44256   0.17042   0.00000  Uiso   1.00
O302   O     0.63210   0.48176   0.40466   0.00000  Uiso   1.00
H303   H     0.63667   0.47765   0.36682   0.00000  Uiso   1.00
O304   O     0.45835   0.51909   0.08614   0.00000  Uiso   1.00
H305   H     0.46015   0.54191   0.11044   0.00000  Uiso   1.00
Cl306  Cl    0.38681   0.43378   0.38620   0.00000  Uiso   1.00
O307   O     0.42563   0.45249   0.06278   0.00000  Uiso   1.00
H308   H     0.39005   0.45025   0.07722   0.00000  Uiso   1.00
Cl309  Cl    0.35206   0.42256   0.00777   0.00000  Uiso   1.00
Cl310  Cl    0.56712   0.43265   0.35340   0.00000  Uiso   1.00
C311   C     0.83238   0.57923   0.25247   0.00000  Uiso   1.00
C312   C     0.81689   0.47751   0.48536   0.00000  Uiso   1.00
C313   C     0.83222   0.47561   0.43035   0.00000  Uiso   1.00
C314   C     0.85148   0.48970   0.01207   0.00000  Uiso   1.00
C315   C     0.90146   0.49116   0.48397   0.00000  Uiso   1.00
C316   C     0.91663   0.48078   0.43077   0.00000  Uiso   1.00
C317   C     0.88211   0.46897   0.40559   0.00000  Uiso   1.00
C318   C     0.83803   0.50321   0.06467   0.00000  Uiso   1.00
C319   C     0.92322   0.50624   0.06406   0.00000  Uiso   1.00
C320   C     0.79697   0.47559   0.40233   0.00000  Uiso   1.00
C321   C     0.87573   0.64397   0.24525   0.00000  Uiso   1.00
C322   C     0.80860   0.49177   0.34819   0.00000  Uiso   1.00
C323   C     0.87750   0.35326   0.24454   0.00000  Uiso   1.00
C324   C     0.83378   0.37603   0.25254   0.00000  Uiso   1.00
C325   C     0.78917   0.35597   0.26438   0.00000  Uiso   1.00
C326   C     0.78727   0.64701   0.26830   0.00000  Uiso   1.00
C327   C     0.83124   0.62390   0.25591   0.00000  Uiso   1.00
C328   C     0.96676   0.52566   0.28295   0.00000  Uiso   1.00
C329   C     0.68284   0.52542   0.28282   0.00000  Uiso   1.00
C330   C     0.70078   0.47499   0.21662   0.00000  Uiso   1.00
C331   C     0.98484   0.47498   0.21631   0.00000  Uiso   1.00
C332   C     0.83360   0.42069   0.25034   0.00000  Uiso   1.00
C333   C     0.85899   0.50259   0.14992   0.00000  Uiso   1.00
C334   C     0.93625   0.50135   0.00981   0.00000  Uiso   1.00
C335   C     0.87371   0.50485   0.09227   0.00000  Uiso   1.00
C336   C     0.75230   0.45745   0.42601   0.00000  Uiso   1.00
C337   C     0.73893   0.45015   0.47995   0.00000  Uiso   1.00
C338   C     0.76993   0.46228   0.01062   0.00000  Uiso   1.00
Cu339  Cu    0.78645   0.49999   0.25000   0.00000  Uiso   1.00
Cu340  Cu    0.88022   0.50001   0.25000   0.00000  Uiso   1.00
H341   H     0.75521   0.37325   0.27272   0.00000  Uiso   1.00
H342   H     0.69457   0.54550   0.30938   0.00000  Uiso   1.00
H343   H     0.72697   0.45504   0.18986   0.00000  Uiso   1.00
H344   H     0.97424   0.50339   0.48825   0.00000  Uiso   1.00
H345   H     0.90954   0.62652   0.23686   0.00000  Uiso   1.00
N346   N     0.71598   0.49999   0.24998   0.00000  Uiso   1.00
N347   N     0.95069   0.50002   0.24999   0.00000  Uiso   1.00
O348   O     0.79375   0.56011   0.25000   0.00000  Uiso   1.00
O349   O     0.87294   0.56012   0.25000   0.00000  Uiso   1.00
O350   O     0.77441   0.49998   0.32549   0.00000  Uiso   1.00
O351   O     0.85360   0.49999   0.32549   0.00000  Uiso   1.00
O352   O     0.79373   0.43988   0.24999   0.00000  Uiso   1.00
O353   O     0.87292   0.43989   0.24999   0.00000  Uiso   1.00
O354   O     0.81306   0.50001   0.17451   0.00000  Uiso   1.00
O355   O     0.89225   0.50002   0.17451   0.00000  Uiso   1.00
O356   O     0.95816   0.51325   0.08980   0.00000  Uiso   1.00
H357   H     0.99081   0.51298   0.06424   0.00000  Uiso   1.00
O358   O     0.92143   0.37284   0.23556   0.00000  Uiso   1.00
H359   H     0.94809   0.35225   0.23140   0.00000  Uiso   1.00
O360   O     0.74207   0.62976   0.28514   0.00000  Uiso   1.00
H361   H     0.74420   0.60786   0.30980   0.00000  Uiso   1.00
Cl362  Cl    0.92734   0.55980   0.32693   0.00000  Uiso   1.00
Cl363  Cl    0.96979   0.44256   0.17042   0.00000  Uiso   1.00
O364   O     0.96544   0.48176   0.40466   0.00000  Uiso   1.00
H365   H     0.97000   0.47765   0.36682   0.00000  Uiso   1.00
O366   O     0.79168   0.51909   0.08614   0.00000  Uiso   1.00
H367   H     0.79349   0.54191   0.11044   0.00000  Uiso   1.00
Cl368  Cl    0.72015   0.43378   0.38620   0.00000  Uiso   1.00
O369   O     0.75896   0.45249   0.06278   0.00000  Uiso   1.00
H370   H     0.72338   0.45025   0.07722   0.00000  Uiso   1.00
Cl371  Cl    0.68540   0.42256   0.00777   0.00000  Uiso   1.00
Cl372  Cl    0.90046   0.43265   0.35340   0.00000  Uiso   1.00
C373   C     0.16571   0.91257   0.25247   0.00000  Uiso   1.00
C374   C     0.15022   0.81084   0.48536   0.00000  Uiso   1.00
C375   C     0.16555   0.80895   0.43035   0.00000  Uiso   1.00
C376   C     0.18482   0.82303   0.01207   0.00000  Uiso   1.00
C377   C     0.23480   0.82449   0.48397   0.00000  Uiso   1.00
C378   C     0.24996   0.81411   0.43077   0.00000  Uiso   1.00
C379   C     0.21544   0.80231   0.40559   0.00000  Uiso   1.00
C380   C     0.17136   0.83654   0.06467   0.00000  Uiso   1.00
C381   C     0.25655   0.83958   0.06406   0.00000  Uiso   1.00
C382   C     0.13031   0.80893   0.40233   0.00000  Uiso   1.00
C383   C     0.20906   0.97731   0.24525   0.00000  Uiso   1.00
C384   C     0.14193   0.82510   0.34819   0.00000  Uiso   1.00
C385   C     0.21083   0.68659   0.24454   0.00000  Uiso   1.00
C386   C     0.16711   0.70936   0.25254   0.00000  Uiso   1.00
C387   C     0.12250   0.68931   0.26438   0.00000  Uiso   1.00
C388   C     0.12060   0.98035   0.26830   0.00000  Uiso   1.00
C389   C     0.16458   0.95723   0.25591   0.00000  Uiso   1.00
C390   C     0.30009   0.85900   0.28295   0.00000  Uiso   1.00
C391   C     0.01617   0.85876   0.28282   0.00000  Uiso   1.00
C392   C     0.03412   0.80832   0.21662   0.00000  Uiso   1.00
C393   C     0.31817   0.80831   0.21631   0.00000  Uiso   1.00
C394   C     0.16693   0.75402   0.25034   0.00000  Uiso   1.00
C395   C     0.19232   0.83592   0.14992   0.00000  Uiso   1.00
C396   C     0.26959   0.83469   0.00981   0.00000  Uiso   1.00
C397   C     0.20704   0.83818   0.09227   0.00000  Uiso   1.00
C398   C     0.08563   0.79078   0.42601   0.00000  Uiso   1.00
C399   C     0.07227   0.78349   0.47995   0.00000  Uiso   1.00
C400   C     0.10326   0.79562   0.01062   0.00000  Uiso   1.00
Cu401  Cu    0.11978   0.83333   0.25000   0.00000  Uiso   1.00
Cu402  Cu    0.21355   0.83334   0.25000   0.00000  Uiso   1.00
H403   H     0.08855   0.70658   0.27272   0.00000  Uiso   1.00
H404   H     0.02790   0.87883   0.30938   0.00000  Uiso   1.00
H405   H     0.06031   0.78837   0.18986   0.00000  Uiso   1.00
H406   H     0.30758   0.83673   0.48825   0.00000  Uiso   1.00
H407   H     0.24288   0.95985   0.23686   0.00000  Uiso   1.00
N408   N     0.04931   0.83332   0.24998   0.00000  Uiso   1.00
N409   N     0.28402   0.83335   0.24999   0.00000  Uiso   1.00
O410   O     0.12708   0.89345   0.25000   0.00000  Uiso   1.00
O411   O     0.20627   0.89346   0.25000   0.00000  Uiso   1.00
O412   O     0.10775   0.83332   0.32549   0.00000  Uiso   1.00
O413   O     0.18694   0.83333   0.32549   0.00000  Uiso   1.00
O414   O     0.12706   0.77321   0.24999   0.00000  Uiso   1.00
O415   O     0.20625   0.77322   0.24999   0.00000  Uiso   1.00
O416   O     0.14640   0.83334   0.17451   0.00000  Uiso   1.00
O417   O     0.22559   0.83335   0.17451   0.00000  Uiso   1.00
O418   O     0.29149   0.84659   0.08980   0.00000  Uiso   1.00
H419   H     0.32415   0.84631   0.06424   0.00000  Uiso   1.00
O420   O     0.25476   0.70617   0.23556   0.00000  Uiso   1.00
H421   H     0.28142   0.68558   0.23140   0.00000  Uiso   1.00
O422   O     0.07540   0.96310   0.28514   0.00000  Uiso   1.00
H423   H     0.07753   0.94119   0.30980   0.00000  Uiso   1.00
Cl424  Cl    0.26067   0.89314   0.32693   0.00000  Uiso   1.00
Cl425  Cl    0.30312   0.77590   0.17042   0.00000  Uiso   1.00
O426   O     0.29877   0.81510   0.40466   0.00000  Uiso   1.00
H427   H     0.30333   0.81098   0.36682   0.00000  Uiso   1.00
O428   O     0.12501   0.85242   0.08614   0.00000  Uiso   1.00
H429   H     0.12682   0.87524   0.11044   0.00000  Uiso   1.00
Cl430  Cl    0.05348   0.76712   0.38620   0.00000  Uiso   1.00
O431   O     0.09230   0.78583   0.06278   0.00000  Uiso   1.00
H432   H     0.05671   0.78358   0.07722   0.00000  Uiso   1.00
Cl433  Cl    0.01873   0.75590   0.00777   0.00000  Uiso   1.00
Cl434  Cl    0.23379   0.76598   0.35340   0.00000  Uiso   1.00
C435   C     0.49905   0.91257   0.25247   0.00000  Uiso   1.00
C436   C     0.48355   0.81084   0.48536   0.00000  Uiso   1.00
C437   C     0.49889   0.80895   0.43035   0.00000  Uiso   1.00
C438   C     0.51815   0.82303   0.01207   0.00000  Uiso   1.00
C439   C     0.56813   0.82449   0.48397   0.00000  Uiso   1.00
C440   C     0.58330   0.81411   0.43077   0.00000  Uiso   1.00
C441   C     0.54877   0.80231   0.40559   0.00000  Uiso   1.00
C442   C     0.50470   0.83654   0.06467   0.00000  Uiso   1.00
C443   C     0.58988   0.83958   0.06406   0.00000  Uiso   1.00
C444   C     0.46364   0.80893   0.40233   0.00000  Uiso   1.00
C445   C     0.54239   0.97731   0.24525   0.00000  Uiso   1.00
C446   C     0.47527   0.82510   0.34819   0.00000  Uiso   1.00
C447   C     0.54416   0.68659   0.24454   0.00000  Uiso   1.00
C448   C     0.50045   0.70936   0.25254   0.00000  Uiso   1.00
C449   C     0.45584   0.68931   0.26438   0.00000  Uiso   1.00
C450   C     0.45394   0.98035   0.26830   0.00000  Uiso   1.00
C451   C     0.49791   0.95723   0.25591   0.00000  Uiso   1.00
C452   C     0.63343   0.85900   0.28295   0.00000  Uiso   1.00
C453   C     0.34951   0.85876   0.28282   0.00000  Uiso   1.00
C454   C     0.36745   0.80832   0.21662   0.00000  Uiso   1.00
C455   C     0.65151   0.80831   0.21631   0.00000  Uiso   1.00
C456   C     0.50027   0.75402   0.25034   0.00000  Uiso   1.00
C457   C     0.52566   0.83592   0.14992   0.00000  Uiso   1.00
C458   C     0.60292   0.83469   0.00981   0.00000  Uiso   1.00
C459   C     0.54037   0.83818   0.09227   0.00000  Uiso   1.00
C460   C     0.41896   0.79078   0.42601   0.00000  Uiso   1.00
C461   C     0.40560   0.78349   0.47995   0.00000  Uiso   1.00
C462   C     0.43659   0.79562   0.01062   0.00000  Uiso   1.00
Cu463  Cu    0.45311   0.83333   0.25000   0.00000  Uiso   1.00
Cu464  Cu    0.54689   0.83334   0.25000   0.00000  Uiso   1.00
H465   H     0.42188   0.70658   0.27272   0.00000  Uiso   1.00
H466   H     0.36124   0.87883   0.30938   0.00000  Uiso   1.00
H467   H     0.39364   0.78837   0.18986   0.00000  Uiso   1.00
H468   H     0.64091   0.83673   0.48825   0.00000  Uiso   1.00
H469   H     0.57621   0.95985   0.23686   0.00000  Uiso   1.00
N470   N     0.38265   0.83332   0.24998   0.00000  Uiso   1.00
N471   N     0.61735   0.83335   0.24999   0.00000  Uiso   1.00
O472   O     0.46042   0.89345   0.25000   0.00000  Uiso   1.00
O473   O     0.53961   0.89346   0.25000   0.00000  Uiso   1.00
O474   O     0.44108   0.83332   0.32549   0.00000  Uiso   1.00
O475   O     0.52027   0.83333   0.32549   0.00000  Uiso   1.00
O476   O     0.46039   0.77321   0.24999   0.00000  Uiso   1.00
O477   O     0.53958   0.77322   0.24999   0.00000  Uiso   1.00
O478   O     0.47973   0.83334   0.17451   0.00000  Uiso   1.00
O479   O     0.55892   0.83335   0.17451   0.00000  Uiso   1.00
O480   O     0.62483   0.84659   0.08980   0.00000  Uiso   1.00
H481   H     0.65748   0.84631   0.06424   0.00000  Uiso   1.00
O482   O     0.58810   0.70617   0.23556   0.00000  Uiso   1.00
H483   H     0.61476   0.68558   0.23140   0.00000  Uiso   1.00
O484   O     0.40873   0.96310   0.28514   0.00000  Uiso   1.00
H485   H     0.41086   0.94119   0.30980   0.00000  Uiso   1.00
Cl486  Cl    0.59401   0.89314   0.32693   0.00000  Uiso   1.00
Cl487  Cl    0.63645   0.77590   0.17042   0.00000  Uiso   1.00
O488   O     0.63210   0.81510   0.40466   0.00000  Uiso   1.00
H489   H     0.63667   0.81098   0.36682   0.00000  Uiso   1.00
O490   O     0.45835   0.85242   0.08614   0.00000  Uiso   1.00
H491   H     0.46015   0.87524   0.11044   0.00000  Uiso   1.00
Cl492  Cl    0.38681   0.76712   0.38620   0.00000  Uiso   1.00
O493   O     0.42563   0.78583   0.06278   0.00000  Uiso   1.00
H494   H     0.39005   0.78358   0.07722   0.00000  Uiso   1.00
Cl495  Cl    0.35206   0.75590   0.00777   0.00000  Uiso   1.00
Cl496  Cl    0.56712   0.76598   0.35340   0.00000  Uiso   1.00
C497   C     0.83238   0.91257   0.25247   0.00000  Uiso   1.00
C498   C     0.81689   0.81084   0.48536   0.00000  Uiso   1.00
C499   C     0.83222   0.80895   0.43035   0.00000  Uiso   1.00
C500   C     0.85148   0.82303   0.01207   0.00000  Uiso   1.00
C501   C     0.90146   0.82449   0.48397   0.00000  Uiso   1.00
C502   C     0.91663   0.81411   0.43077   0.00000  Uiso   1.00
C503   C     0.88211   0.80231   0.40559   0.00000  Uiso   1.00
C504   C     0.83803   0.83654   0.06467   0.00000  Uiso   1.00
C505   C     0.92322   0.83958   0.06406   0.00000  Uiso   1.00
C506   C     0.79697   0.80893   0.40233   0.00000  Uiso   1.00
C507   C     0.87573   0.97731   0.24525   0.00000  Uiso   1.00
C508   C     0.80860   0.82510   0.34819   0.00000  Uiso   1.00
C509   C     0.87750   0.68659   0.24454   0.00000  Uiso   1.00
C510   C     0.83378   0.70936   0.25254   0.00000  Uiso   1.00
C511   C     0.78917   0.68931   0.26438   0.00000  Uiso   1.00
C512   C     0.78727   0.98035   0.26830   0.00000  Uiso   1.00
C513   C     0.83124   0.95723   0.25591   0.00000  Uiso   1.00
C514   C     0.96676   0.85900   0.28295   0.00000  Uiso   1.00
C515   C     0.68284   0.85876   0.28282   0.00000  Uiso   1.00
C516   C     0.70078   0.80832   0.21662   0.00000  Uiso   1.00
C517   C     0.98484   0.80831   0.21631   0.00000  Uiso   1.00
C518   C     0.83360   0.75402   0.25034   0.00000  Uiso   1.00
C519   C     0.85899   0.83592   0.14992   0.00000  Uiso   1.00
C520   C     0.93625   0.83469   0.00981   0.00000  Uiso   1.00
C521   C     0.87371   0.83818   0.09227   0.00000  Uiso   1.00
C522   C     0.75230   0.79078   0.42601   0.00000  Uiso   1.00
C523   C     0.73893   0.78349   0.47995   0.00000  Uiso   1.00
C524   C     0.76993   0.79562   0.01062   0.00000  Uiso   1.00
Cu525  Cu    0.78645   0.83333   0.25000   0.00000  Uiso   1.00
Cu526  Cu    0.88022   0.83334   0.25000   0.00000  Uiso   1.00
H527   H     0.75521   0.70658   0.27272   0.00000  Uiso   1.00
H528   H     0.69457   0.87883   0.30938   0.00000  Uiso   1.00
H529   H     0.72697   0.78837   0.18986   0.00000  Uiso   1.00
H530   H     0.97424   0.83673   0.48825   0.00000  Uiso   1.00
H531   H     0.90954   0.95985   0.23686   0.00000  Uiso   1.00
N532   N     0.71598   0.83332   0.24998   0.00000  Uiso   1.00
N533   N     0.95069   0.83335   0.24999   0.00000  Uiso   1.00
O534   O     0.79375   0.89345   0.25000   0.00000  Uiso   1.00
O535   O     0.87294   0.89346   0.25000   0.00000  Uiso   1.00
O536   O     0.77441   0.83332   0.32549   0.00000  Uiso   1.00
O537   O     0.85360   0.83333   0.32549   0.00000  Uiso   1.00
O538   O     0.79373   0.77321   0.24999   0.00000  Uiso   1.00
O539   O     0.87292   0.77322   0.24999   0.00000  Uiso   1.00
O540   O     0.81306   0.83334   0.17451   0.00000  Uiso   1.00
O541   O     0.89225   0.83335   0.17451   0.00000  Uiso   1.00
O542   O     0.95816   0.84659   0.08980   0.00000  Uiso   1.00
H543   H     0.99081   0.84631   0.06424   0.00000  Uiso   1.00
O544   O     0.92143   0.70617   0.23556   0.00000  Uiso   1.00
H545   H     0.94809   0.68558   0.23140   0.00000  Uiso   1.00
O546   O     0.74207   0.96310   0.28514   0.00000  Uiso   1.00
H547   H     0.74420   0.94119   0.30980   0.00000  Uiso   1.00
Cl548  Cl    0.92734   0.89314   0.32693   0.00000  Uiso   1.00
Cl549  Cl    0.96979   0.77590   0.17042   0.00000  Uiso   1.00
O550   O     0.96544   0.81510   0.40466   0.00000  Uiso   1.00
H551   H     0.97000   0.81098   0.36682   0.00000  Uiso   1.00
O552   O     0.79168   0.85242   0.08614   0.00000  Uiso   1.00
H553   H     0.79349   0.87524   0.11044   0.00000  Uiso   1.00
Cl554  Cl    0.72015   0.76712   0.38620   0.00000  Uiso   1.00
O555   O     0.75896   0.78583   0.06278   0.00000  Uiso   1.00
H556   H     0.72338   0.78358   0.07722   0.00000  Uiso   1.00
Cl557  Cl    0.68540   0.75590   0.00777   0.00000  Uiso   1.00
Cl558  Cl    0.90046   0.76598   0.35340   0.00000  Uiso   1.00
C559   C     0.16571   0.24590   0.75247   0.00000  Uiso   1.00
C560   C     0.15022   0.14418   0.98536   0.00000  Uiso   1.00
C561   C     0.16555   0.14228   0.93035   0.00000  Uiso   1.00
C562   C     0.18482   0.15637   0.51207   0.00000  Uiso   1.00
C563   C     0.23480   0.15783   0.98397   0.00000  Uiso   1.00
C564   C     0.24996   0.14745   0.93077   0.00000  Uiso   1.00
C565   C     0.21544   0.13564   0.90559   0.00000  Uiso   1.00
C566   C     0.17136   0.16988   0.56467   0.00000  Uiso   1.00
C567   C     0.25655   0.17291   0.56406   0.00000  Uiso   1.00
C568   C     0.13031   0.14226   0.90233   0.00000  Uiso   1.00
C569   C     0.20906   0.31064   0.74525   0.00000  Uiso   1.00
C570   C     0.14193   0.15843   0.84819   0.00000  Uiso   1.00
C571   C     0.21083   0.01992   0.74454   0.00000  Uiso   1.00
C572   C     0.16711   0.04269   0.75254   0.00000  Uiso   1.00
C573   C     0.12250   0.02264   0.76438   0.00000  Uiso   1.00
C574   C     0.12060   0.31368   0.76830   0.00000  Uiso   1.00
C575   C     0.16458   0.29056   0.75591   0.00000  Uiso   1.00
C576   C     0.30009   0.19233   0.78295   0.00000  Uiso   1.00
C577   C     0.01617   0.19209   0.78282   0.00000  Uiso   1.00
C578   C     0.03412   0.14166   0.71662   0.00000  Uiso   1.00
C579   C     0.31817   0.14165   0.71631   0.00000  Uiso   1.00
C580   C     0.16693   0.08736   0.75034   0.00000  Uiso   1.00
C581   C     0.19232   0.16926   0.64992   0.00000  Uiso   1.00
C582   C     0.26959   0.16802   0.50981   0.00000  Uiso   1.00
C583   C     0.20704   0.17151   0.59227   0.00000  Uiso   1.00
C584   C     0.08563   0.12411   0.92601   0.00000  Uiso   1.00
C585   C     0.07227   0.11682   0.97995   0.00000  Uiso   1.00
C586   C     0.10326   0.12895   0.51062   0.00000  Uiso   1.00
Cu587  Cu    0.11978   0.16666   0.75000   0.00000  Uiso   1.00
Cu588  Cu    0.21355   0.16667   0.75000   0.00000  Uiso   1.00
H589   H     0.08855   0.03992   0.77272   0.00000  Uiso   1.00
H590   H     0.02790   0.21216   0.80938   0.00000  Uiso   1.00
H591   H     0.06031   0.12171   0.68986   0.00000  Uiso   1.00
H592   H     0.30758   0.17006   0.98825   0.00000  Uiso   1.00
H593   H     0.24288   0.29318   0.73686   0.00000  Uiso   1.00
N594   N     0.04931   0.16666   0.74998   0.00000  Uiso   1.00
N595   N     0.28402   0.16669   0.74999   0.00000  Uiso   1.00
O596   O     0.12708   0.22678   0.75000   0.00000  Uiso   1.00
O597   O     0.20627   0.22679   0.75000   0.00000  Uiso   1.00
O598   O     0.10775   0.16665   0.82549   0.00000  Uiso   1.00
O599   O     0.18694   0.16666   0.82549   0.00000  Uiso   1.00
O600   O     0.12706   0.10654   0.74999   0.00000  Uiso   1.00
O601   O     0.20625   0.10655   0.74999   0.00000  Uiso   1.00
O602   O     0.14640   0.16667   0.67451   0.00000  Uiso   1.00
O603   O     0.22559   0.16668   0.67451   0.00000  Uiso   1.00
O604   O     0.29149   0.17992   0.58980   0.00000  Uiso   1.00
H605   H     0.32415   0.17965   0.56424   0.00000  Uiso   1.00
O606   O     0.25476   0.03950   0.73556   0.00000  Uiso   1.00
H607   H     0.28142   0.01892   0.73140   0.00000  Uiso   1.00
O608   O     0.07540   0.29643   0.78514   0.00000  Uiso   1.00
H609   H     0.07753   0.27452   0.80980   0.00000  Uiso   1.00
Cl610  Cl    0.26067   0.22647   0.82693   0.00000  Uiso   1.00
Cl611  Cl    0.30312   0.10923   0.67042   0.00000  Uiso   1.00
O612   O     0.29877   0.14843   0.90466   0.00000  Uiso   1.00
H613   H     0.30333   0.14431   0.86682   0.00000  Uiso   1.00
O614   O     0.12501   0.18575   0.58614   0.00000  Uiso   1.00
H615   H     0.12682   0.20857   0.61044   0.00000  Uiso   1.00
Cl616  Cl    0.05348   0.10045   0.88620   0.00000  Uiso   1.00
O617   O     0.09230   0.11916   0.56278   0.00000  Uiso   1.00
H618   H     0.05671   0.11691   0.57722   0.00000  Uiso   1.00
Cl619  Cl    0.01873   0.08923   0.50777   0.00000  Uiso   1.00
Cl620  Cl    0.23379   0.09931   0.85340   0.00000  Uiso   1.00
C621   C     0.49905   0.24590   0.75247   0.00000  Uiso   1.00
C622   C     0.48355   0.14418   0.98536   0.00000  Uiso   1.00
C623   C     0.49889   0.14228   0.93035   0.00000  Uiso   1.00
C624   C     0.51815   0.15637   0.51207   0.00000  Uiso   1.00
C625   C     0.56813   0.15783   0.98397   0.00000  Uiso   1.00
C626   C     0.58330   0.14745   0.93077   0.00000  Uiso   1.00
C627   C     0.54877   0.13564   0.90559   0.00000  Uiso   1.00
C628   C     0.50470   0.16988   0.56467   0.00000  Uiso   1.00
C629   C     0.58988   0.17291   0.56406   0.00000  Uiso   1.00
C630   C     0.46364   0.14226   0.90233   0.00000  Uiso   1.00
C631   C     0.54239   0.31064   0.74525   0.00000  Uiso   1.00
C632   C     0.47527   0.15843   0.84819   0.00000  Uiso   1.00
C633   C     0.54416   0.01992   0.74454   0.00000  Uiso   1.00
C634   C     0.50045   0.04269   0.75254   0.00000  Uiso   1.00
C635   C     0.45584   0.02264   0.76438   0.00000  Uiso   1.00
C636   C     0.45394   0.31368   0.76830   0.00000  Uiso   1.00
C637   C     0.49791   0.29056   0.75591   0.00000  Uiso   1.00
C638   C     0.63343   0.19233   0.78295   0.00000  Uiso   1.00
C639   C     0.34951   0.19209   0.78282   0.00000  Uiso   1.00
C640   C     0.36745   0.14166   0.71662   0.00000  Uiso   1.00
C641   C     0.65151   0.14165   0.71631   0.00000  Uiso   1.00
C642   C     0.50027   0.08736   0.75034   0.00000  Uiso   1.00
C643   C     0.52566   0.16926   0.64992   0.00000  Uiso   1.00
C644   C     0.60292   0.16802   0.50981   0.00000  Uiso   1.00
C645   C     0.54037   0.17151   0.59227   0.00000  Uiso   1.00
C646   C     0.41896   0.12411   0.92601   0.00000  Uiso   1.00
C647   C     0.40560   0.11682   0.97995   0.00000  Uiso   1.00
C648   C     0.43659   0.12895   0.51062   0.00000  Uiso   1.00
Cu649  Cu    0.45311   0.16666   0.75000   0.00000  Uiso   1.00
Cu650  Cu    0.54689   0.16667   0.75000   0.00000  Uiso   1.00
H651   H     0.42188   0.03992   0.77272   0.00000  Uiso   1.00
H652   H     0.36124   0.21216   0.80938   0.00000  Uiso   1.00
H653   H     0.39364   0.12171   0.68986   0.00000  Uiso   1.00
H654   H     0.64091   0.17006   0.98825   0.00000  Uiso   1.00
H655   H     0.57621   0.29318   0.73686   0.00000  Uiso   1.00
N656   N     0.38265   0.16666   0.74998   0.00000  Uiso   1.00
N657   N     0.61735   0.16669   0.74999   0.00000  Uiso   1.00
O658   O     0.46042   0.22678   0.75000   0.00000  Uiso   1.00
O659   O     0.53961   0.22679   0.75000   0.00000  Uiso   1.00
O660   O     0.44108   0.16665   0.82549   0.00000  Uiso   1.00
O661   O     0.52027   0.16666   0.82549   0.00000  Uiso   1.00
O662   O     0.46039   0.10654   0.74999   0.00000  Uiso   1.00
O663   O     0.53958   0.10655   0.74999   0.00000  Uiso   1.00
O664   O     0.47973   0.16667   0.67451   0.00000  Uiso   1.00
O665   O     0.55892   0.16668   0.67451   0.00000  Uiso   1.00
O666   O     0.62483   0.17992   0.58980   0.00000  Uiso   1.00
H667   H     0.65748   0.17965   0.56424   0.00000  Uiso   1.00
O668   O     0.58810   0.03950   0.73556   0.00000  Uiso   1.00
H669   H     0.61476   0.01892   0.73140   0.00000  Uiso   1.00
O670   O     0.40873   0.29643   0.78514   0.00000  Uiso   1.00
H671   H     0.41086   0.27452   0.80980   0.00000  Uiso   1.00
Cl672  Cl    0.59401   0.22647   0.82693   0.00000  Uiso   1.00
Cl673  Cl    0.63645   0.10923   0.67042   0.00000  Uiso   1.00
O674   O     0.63210   0.14843   0.90466   0.00000  Uiso   1.00
H675   H     0.63667   0.14431   0.86682   0.00000  Uiso   1.00
O676   O     0.45835   0.18575   0.58614   0.00000  Uiso   1.00
H677   H     0.46015   0.20857   0.61044   0.00000  Uiso   1.00
Cl678  Cl    0.38681   0.10045   0.88620   0.00000  Uiso   1.00
O679   O     0.42563   0.11916   0.56278   0.00000  Uiso   1.00
H680   H     0.39005   0.11691   0.57722   0.00000  Uiso   1.00
Cl681  Cl    0.35206   0.08923   0.50777   0.00000  Uiso   1.00
Cl682  Cl    0.56712   0.09931   0.85340   0.00000  Uiso   1.00
C683   C     0.83238   0.24590   0.75247   0.00000  Uiso   1.00
C684   C     0.81689   0.14418   0.98536   0.00000  Uiso   1.00
C685   C     0.83222   0.14228   0.93035   0.00000  Uiso   1.00
C686   C     0.85148   0.15637   0.51207   0.00000  Uiso   1.00
C687   C     0.90146   0.15783   0.98397   0.00000  Uiso   1.00
C688   C     0.91663   0.14745   0.93077   0.00000  Uiso   1.00
C689   C     0.88211   0.13564   0.90559   0.00000  Uiso   1.00
C690   C     0.83803   0.16988   0.56467   0.00000  Uiso   1.00
C691   C     0.92322   0.17291   0.56406   0.00000  Uiso   1.00
C692   C     0.79697   0.14226   0.90233   0.00000  Uiso   1.00
C693   C     0.87573   0.31064   0.74525   0.00000  Uiso   1.00
C694   C     0.80860   0.15843   0.84819   0.00000  Uiso   1.00
C695   C     0.87750   0.01992   0.74454   0.00000  Uiso   1.00
C696   C     0.83378   0.04269   0.75254   0.00000  Uiso   1.00
C697   C     0.78917   0.02264   0.76438   0.00000  Uiso   1.00
C698   C     0.78727   0.31368   0.76830   0.00000  Uiso   1.00
C699   C     0.83124   0.29056   0.75591   0.00000  Uiso   1.00
C700   C     0.96676   0.19233   0.78295   0.00000  Uiso   1.00
C701   C     0.68284   0.19209   0.78282   0.00000  Uiso   1.00
C702   C     0.70078   0.14166   0.71662   0.00000  Uiso   1.00
C703   C     0.98484   0.14165   0.71631   0.00000  Uiso   1.00
C704   C     0.83360   0.08736   0.75034   0.00000  Uiso   1.00
C705   C     0.85899   0.16926   0.64992   0.00000  Uiso   1.00
C706   C     0.93625   0.16802   0.50981   0.00000  Uiso   1.00
C707   C     0.87371   0.17151   0.59227   0.00000  Uiso   1.00
C708   C     0.75230   0.12411   0.92601   0.00000  Uiso   1.00
C709   C     0.73893   0.11682   0.97995   0.00000  Uiso   1.00
C710   C     0.76993   0.12895   0.51062   0.00000  Uiso   1.00
Cu711  Cu    0.78645   0.16666   0.75000   0.00000  Uiso   1.00
Cu712  Cu    0.88022   0.16667   0.75000   0.00000  Uiso   1.00
H713   H     0.75521   0.03992   0.77272   0.00000  Uiso   1.00
H714   H     0.69457   0.21216   0.80938   0.00000  Uiso   1.00
H715   H     0.72697   0.12171   0.68986   0.00000  Uiso   1.00
H716   H     0.97424   0.17006   0.98825   0.00000  Uiso   1.00
H717   H     0.90954   0.29318   0.73686   0.00000  Uiso   1.00
N718   N     0.71598   0.16666   0.74998   0.00000  Uiso   1.00
N719   N     0.95069   0.16669   0.74999   0.00000  Uiso   1.00
O720   O     0.79375   0.22678   0.75000   0.00000  Uiso   1.00
O721   O     0.87294   0.22679   0.75000   0.00000  Uiso   1.00
O722   O     0.77441   0.16665   0.82549   0.00000  Uiso   1.00
O723   O     0.85360   0.16666   0.82549   0.00000  Uiso   1.00
O724   O     0.79373   0.10654   0.74999   0.00000  Uiso   1.00
O725   O     0.87292   0.10655   0.74999   0.00000  Uiso   1.00
O726   O     0.81306   0.16667   0.67451   0.00000  Uiso   1.00
O727   O     0.89225   0.16668   0.67451   0.00000  Uiso   1.00
O728   O     0.95816   0.17992   0.58980   0.00000  Uiso   1.00
H729   H     0.99081   0.17965   0.56424   0.00000  Uiso   1.00
O730   O     0.92143   0.03950   0.73556   0.00000  Uiso   1.00
H731   H     0.94809   0.01892   0.73140   0.00000  Uiso   1.00
O732   O     0.74207   0.29643   0.78514   0.00000  Uiso   1.00
H733   H     0.74420   0.27452   0.80980   0.00000  Uiso   1.00
Cl734  Cl    0.92734   0.22647   0.82693   0.00000  Uiso   1.00
Cl735  Cl    0.96979   0.10923   0.67042   0.00000  Uiso   1.00
O736   O     0.96544   0.14843   0.90466   0.00000  Uiso   1.00
H737   H     0.97000   0.14431   0.86682   0.00000  Uiso   1.00
O738   O     0.79168   0.18575   0.58614   0.00000  Uiso   1.00
H739   H     0.79349   0.20857   0.61044   0.00000  Uiso   1.00
Cl740  Cl    0.72015   0.10045   0.88620   0.00000  Uiso   1.00
O741   O     0.75896   0.11916   0.56278   0.00000  Uiso   1.00
H742   H     0.72338   0.11691   0.57722   0.00000  Uiso   1.00
Cl743  Cl    0.68540   0.08923   0.50777   0.00000  Uiso   1.00
Cl744  Cl    0.90046   0.09931   0.85340   0.00000  Uiso   1.00
C745   C     0.16571   0.57923   0.75247   0.00000  Uiso   1.00
C746   C     0.15022   0.47751   0.98536   0.00000  Uiso   1.00
C747   C     0.16555   0.47561   0.93035   0.00000  Uiso   1.00
C748   C     0.18482   0.48970   0.51207   0.00000  Uiso   1.00
C749   C     0.23480   0.49116   0.98397   0.00000  Uiso   1.00
C750   C     0.24996   0.48078   0.93077   0.00000  Uiso   1.00
C751   C     0.21544   0.46897   0.90559   0.00000  Uiso   1.00
C752   C     0.17136   0.50321   0.56467   0.00000  Uiso   1.00
C753   C     0.25655   0.50624   0.56406   0.00000  Uiso   1.00
C754   C     0.13031   0.47559   0.90233   0.00000  Uiso   1.00
C755   C     0.20906   0.64397   0.74525   0.00000  Uiso   1.00
C756   C     0.14193   0.49177   0.84819   0.00000  Uiso   1.00
C757   C     0.21083   0.35326   0.74454   0.00000  Uiso   1.00
C758   C     0.16711   0.37603   0.75254   0.00000  Uiso   1.00
C759   C     0.12250   0.35597   0.76438   0.00000  Uiso   1.00
C760   C     0.12060   0.64701   0.76830   0.00000  Uiso   1.00
C761   C     0.16458   0.62390   0.75591   0.00000  Uiso   1.00
C762   C     0.30009   0.52566   0.78295   0.00000  Uiso   1.00
C763   C     0.01617   0.52542   0.78282   0.00000  Uiso   1.00
C764   C     0.03412   0.47499   0.71662   0.00000  Uiso   1.00
C765   C     0.31817   0.47498   0.71631   0.00000  Uiso   1.00
C766   C     0.16693   0.42069   0.75034   0.00000  Uiso   1.00
C767   C     0.19232   0.50259   0.64992   0.00000  Uiso   1.00
C768   C     0.26959   0.50135   0.50981   0.00000  Uiso   1.00
C769   C     0.20704   0.50485   0.59227   0.00000  Uiso   1.00
C770   C     0.08563   0.45745   0.92601   0.00000  Uiso   1.00
C771   C     0.07227   0.45015   0.97995   0.00000  Uiso   1.00
C772   C     0.10326   0.46228   0.51062   0.00000  Uiso   1.00
Cu773  Cu    0.11978   0.49999   0.75000   0.00000  Uiso   1.00
Cu774  Cu    0.21355   0.50001   0.75000   0.00000  Uiso   1.00
H775   H     0.08855   0.37325   0.77272   0.00000  Uiso   1.00
H776   H     0.02790   0.54550   0.80938   0.00000  Uiso   1.00
H777   H     0.06031   0.45504   0.68986   0.00000  Uiso   1.00
H778   H     0.30758   0.50339   0.98825   0.00000  Uiso   1.00
H779   H     0.24288   0.62652   0.73686   0.00000  Uiso   1.00
N780   N     0.04931   0.49999   0.74998   0.00000  Uiso   1.00
N781   N     0.28402   0.50002   0.74999   0.00000  Uiso   1.00
O782   O     0.12708   0.56011   0.75000   0.00000  Uiso   1.00
O783   O     0.20627   0.56012   0.75000   0.00000  Uiso   1.00
O784   O     0.10775   0.49998   0.82549   0.00000  Uiso   1.00
O785   O     0.18694   0.49999   0.82549   0.00000  Uiso   1.00
O786   O     0.12706   0.43988   0.74999   0.00000  Uiso   1.00
O787   O     0.20625   0.43989   0.74999   0.00000  Uiso   1.00
O788   O     0.14640   0.50001   0.67451   0.00000  Uiso   1.00
O789   O     0.22559   0.50002   0.67451   0.00000  Uiso   1.00
O790   O     0.29149   0.51325   0.58980   0.00000  Uiso   1.00
H791   H     0.32415   0.51298   0.56424   0.00000  Uiso   1.00
O792   O     0.25476   0.37284   0.73556   0.00000  Uiso   1.00
H793   H     0.28142   0.35225   0.73140   0.00000  Uiso   1.00
O794   O     0.07540   0.62976   0.78514   0.00000  Uiso   1.00
H795   H     0.07753   0.60786   0.80980   0.00000  Uiso   1.00
Cl796  Cl    0.26067   0.55980   0.82693   0.00000  Uiso   1.00
Cl797  Cl    0.30312   0.44256   0.67042   0.00000  Uiso   1.00
O798   O     0.29877   0.48176   0.90466   0.00000  Uiso   1.00
H799   H     0.30333   0.47765   0.86682   0.00000  Uiso   1.00
O800   O     0.12501   0.51909   0.58614   0.00000  Uiso   1.00
H801   H     0.12682   0.54191   0.61044   0.00000  Uiso   1.00
Cl802  Cl    0.05348   0.43378   0.88620   0.00000  Uiso   1.00
O803   O     0.09230   0.45249   0.56278   0.00000  Uiso   1.00
H804   H     0.05671   0.45025   0.57722   0.00000  Uiso   1.00
Cl805  Cl    0.01873   0.42256   0.50777   0.00000  Uiso   1.00
Cl806  Cl    0.23379   0.43265   0.85340   0.00000  Uiso   1.00
C807   C     0.49905   0.57923   0.75247   0.00000  Uiso   1.00
C808   C     0.48355   0.47751   0.98536   0.00000  Uiso   1.00
C809   C     0.49889   0.47561   0.93035   0.00000  Uiso   1.00
C810   C     0.51815   0.48970   0.51207   0.00000  Uiso   1.00
C811   C     0.56813   0.49116   0.98397   0.00000  Uiso   1.00
C812   C     0.58330   0.48078   0.93077   0.00000  Uiso   1.00
C813   C     0.54877   0.46897   0.90559   0.00000  Uiso   1.00
C814   C     0.50470   0.50321   0.56467   0.00000  Uiso   1.00
C815   C     0.58988   0.50624   0.56406   0.00000  Uiso   1.00
C816   C     0.46364   0.47559   0.90233   0.00000  Uiso   1.00
C817   C     0.54239   0.64397   0.74525   0.00000  Uiso   1.00
C818   C     0.47527   0.49177   0.84819   0.00000  Uiso   1.00
C819   C     0.54416   0.35326   0.74454   0.00000  Uiso   1.00
C820   C     0.50045   0.37603   0.75254   0.00000  Uiso   1.00
C821   C     0.45584   0.35597   0.76438   0.00000  Uiso   1.00
C822   C     0.45394   0.64701   0.76830   0.00000  Uiso   1.00
C823   C     0.49791   0.62390   0.75591   0.00000  Uiso   1.00
C824   C     0.63343   0.52566   0.78295   0.00000  Uiso   1.00
C825   C     0.34951   0.52542   0.78282   0.00000  Uiso   1.00
C826   C     0.36745   0.47499   0.71662   0.00000  Uiso   1.00
C827   C     0.65151   0.47498   0.71631   0.00000  Uiso   1.00
C828   C     0.50027   0.42069   0.75034   0.00000  Uiso   1.00
C829   C     0.52566   0.50259   0.64992   0.00000  Uiso   1.00
C830   C     0.60292   0.50135   0.50981   0.00000  Uiso   1.00
C831   C     0.54037   0.50485   0.59227   0.00000  Uiso   1.00
C832   C     0.41896   0.45745   0.92601   0.00000  Uiso   1.00
C833   C     0.40560   0.45015   0.97995   0.00000  Uiso   1.00
C834   C     0.43659   0.46228   0.51062   0.00000  Uiso   1.00
Cu835  Cu    0.45311   0.49999   0.75000   0.00000  Uiso   1.00
Cu836  Cu    0.54689   0.50001   0.75000   0.00000  Uiso   1.00
H837   H     0.42188   0.37325   0.77272   0.00000  Uiso   1.00
H838   H     0.36124   0.54550   0.80938   0.00000  Uiso   1.00
H839   H     0.39364   0.45504   0.68986   0.00000  Uiso   1.00
H840   H     0.64091   0.50339   0.98825   0.00000  Uiso   1.00
H841   H     0.57621   0.62652   0.73686   0.00000  Uiso   1.00
N842   N     0.38265   0.49999   0.74998   0.00000  Uiso   1.00
N843   N     0.61735   0.50002   0.74999   0.00000  Uiso   1.00
O844   O     0.46042   0.56011   0.75000   0.00000  Uiso   1.00
O845   O     0.53961   0.56012   0.75000   0.00000  Uiso   1.00
O846   O     0.44108   0.49998   0.82549   0.00000  Uiso   1.00
O847   O     0.52027   0.49999   0.82549   0.00000  Uiso   1.00
O848   O     0.46039   0.43988   0.74999   0.00000  Uiso   1.00
O849   O     0.53958   0.43989   0.74999   0.00000  Uiso   1.00
O850   O     0.47973   0.50001   0.67451   0.00000  Uiso   1.00
O851   O     0.55892   0.50002   0.67451   0.00000  Uiso   1.00
O852   O     0.62483   0.51325   0.58980   0.00000  Uiso   1.00
H853   H     0.65748   0.51298   0.56424   0.00000  Uiso   1.00
O854   O     0.58810   0.37284   0.73556   0.00000  Uiso   1.00
H855   H     0.61476   0.35225   0.73140   0.00000  Uiso   1.00
O856   O     0.40873   0.62976   0.78514   0.00000  Uiso   1.00
H857   H     0.41086   0.60786   0.80980   0.00000  Uiso   1.00
Cl858  Cl    0.59401   0.55980   0.82693   0.00000  Uiso   1.00
Cl859  Cl    0.63645   0.44256   0.67042   0.00000  Uiso   1.00
O860   O     0.63210   0.48176   0.90466   0.00000  Uiso   1.00
H861   H     0.63667   0.47765   0.86682   0.00000  Uiso   1.00
O862   O     0.45835   0.51909   0.58614   0.00000  Uiso   1.00
H863   H     0.46015   0.54191   0.61044   0.00000  Uiso   1.00
Cl864  Cl    0.38681   0.43378   0.88620   0.00000  Uiso   1.00
O865   O     0.42563   0.45249   0.56278   0.00000  Uiso   1.00
H866   H     0.39005   0.45025   0.57722   0.00000  Uiso   1.00
Cl867  Cl    0.35206   0.42256   0.50777   0.00000  Uiso   1.00
Cl868  Cl    0.56712   0.43265   0.85340   0.00000  Uiso   1.00
C869   C     0.83238   0.57923   0.75247   0.00000  Uiso   1.00
C870   C     0.81689   0.47751   0.98536   0.00000  Uiso   1.00
C871   C     0.83222   0.47561   0.93035   0.00000  Uiso   1.00
C872   C     0.85148   0.48970   0.51207   0.00000  Uiso   1.00
C873   C     0.90146   0.49116   0.98397   0.00000  Uiso   1.00
C874   C     0.91663   0.48078   0.93077   0.00000  Uiso   1.00
C875   C     0.88211   0.46897   0.90559   0.00000  Uiso   1.00
C876   C     0.83803   0.50321   0.56467   0.00000  Uiso   1.00
C877   C     0.92322   0.50624   0.56406   0.00000  Uiso   1.00
C878   C     0.79697   0.47559   0.90233   0.00000  Uiso   1.00
C879   C     0.87573   0.64397   0.74525   0.00000  Uiso   1.00
C880   C     0.80860   0.49177   0.84819   0.00000  Uiso   1.00
C881   C     0.87750   0.35326   0.74454   0.00000  Uiso   1.00
C882   C     0.83378   0.37603   0.75254   0.00000  Uiso   1.00
C883   C     0.78917   0.35597   0.76438   0.00000  Uiso   1.00
C884   C     0.78727   0.64701   0.76830   0.00000  Uiso   1.00
C885   C     0.83124   0.62390   0.75591   0.00000  Uiso   1.00
C886   C     0.96676   0.52566   0.78295   0.00000  Uiso   1.00
C887   C     0.68284   0.52542   0.78282   0.00000  Uiso   1.00
C888   C     0.70078   0.47499   0.71662   0.00000  Uiso   1.00
C889   C     0.98484   0.47498   0.71631   0.00000  Uiso   1.00
C890   C     0.83360   0.42069   0.75034   0.00000  Uiso   1.00
C891   C     0.85899   0.50259   0.64992   0.00000  Uiso   1.00
C892   C     0.93625   0.50135   0.50981   0.00000  Uiso   1.00
C893   C     0.87371   0.50485   0.59227   0.00000  Uiso   1.00
C894   C     0.75230   0.45745   0.92601   0.00000  Uiso   1.00
C895   C     0.73893   0.45015   0.97995   0.00000  Uiso   1.00
C896   C     0.76993   0.46228   0.51062   0.00000  Uiso   1.00
Cu897  Cu    0.78645   0.49999   0.75000   0.00000  Uiso   1.00
Cu898  Cu    0.88022   0.50001   0.75000   0.00000  Uiso   1.00
H899   H     0.75521   0.37325   0.77272   0.00000  Uiso   1.00
H900   H     0.69457   0.54550   0.80938   0.00000  Uiso   1.00
H901   H     0.72697   0.45504   0.68986   0.00000  Uiso   1.00
H902   H     0.97424   0.50339   0.98825   0.00000  Uiso   1.00
H903   H     0.90954   0.62652   0.73686   0.00000  Uiso   1.00
N904   N     0.71598   0.49999   0.74998   0.00000  Uiso   1.00
N905   N     0.95069   0.50002   0.74999   0.00000  Uiso   1.00
O906   O     0.79375   0.56011   0.75000   0.00000  Uiso   1.00
O907   O     0.87294   0.56012   0.75000   0.00000  Uiso   1.00
O908   O     0.77441   0.49998   0.82549   0.00000  Uiso   1.00
O909   O     0.85360   0.49999   0.82549   0.00000  Uiso   1.00
O910   O     0.79373   0.43988   0.74999   0.00000  Uiso   1.00
O911   O     0.87292   0.43989   0.74999   0.00000  Uiso   1.00
O912   O     0.81306   0.50001   0.67451   0.00000  Uiso   1.00
O913   O     0.89225   0.50002   0.67451   0.00000  Uiso   1.00
O914   O     0.95816   0.51325   0.58980   0.00000  Uiso   1.00
H915   H     0.99081   0.51298   0.56424   0.00000  Uiso   1.00
O916   O     0.92143   0.37284   0.73556   0.00000  Uiso   1.00
H917   H     0.94809   0.35225   0.73140   0.00000  Uiso   1.00
O918   O     0.74207   0.62976   0.78514   0.00000  Uiso   1.00
H919   H     0.74420   0.60786   0.80980   0.00000  Uiso   1.00
Cl920  Cl    0.92734   0.55980   0.82693   0.00000  Uiso   1.00
Cl921  Cl    0.96979   0.44256   0.67042   0.00000  Uiso   1.00
O922   O     0.96544   0.48176   0.90466   0.00000  Uiso   1.00
H923   H     0.97000   0.47765   0.86682   0.00000  Uiso   1.00
O924   O     0.79168   0.51909   0.58614   0.00000  Uiso   1.00
H925   H     0.79349   0.54191   0.61044   0.00000  Uiso   1.00
Cl926  Cl    0.72015   0.43378   0.88620   0.00000  Uiso   1.00
O927   O     0.75896   0.45249   0.56278   0.00000  Uiso   1.00
H928   H     0.72338   0.45025   0.57722   0.00000  Uiso   1.00
Cl929  Cl    0.68540   0.42256   0.50777   0.00000  Uiso   1.00
Cl930  Cl    0.90046   0.43265   0.85340   0.00000  Uiso   1.00
C931   C     0.16571   0.91257   0.75247   0.00000  Uiso   1.00
C932   C     0.15022   0.81084   0.98536   0.00000  Uiso   1.00
C933   C     0.16555   0.80895   0.93035   0.00000  Uiso   1.00
C934   C     0.18482   0.82303   0.51207   0.00000  Uiso   1.00
C935   C     0.23480   0.82449   0.98397   0.00000  Uiso   1.00
C936   C     0.24996   0.81411   0.93077   0.00000  Uiso   1.00
C937   C     0.21544   0.80231   0.90559   0.00000  Uiso   1.00
C938   C     0.17136   0.83654   0.56467   0.00000  Uiso   1.00
C939   C     0.25655   0.83958   0.56406   0.00000  Uiso   1.00
C940   C     0.13031   0.80893   0.90233   0.00000  Uiso   1.00
C941   C     0.20906   0.97731   0.74525   0.00000  Uiso   1.00
C942   C     0.14193   0.82510   0.84819   0.00000  Uiso   1.00
C943   C     0.21083   0.68659   0.74454   0.00000  Uiso   1.00
C944   C     0.16711   0.70936   0.75254   0.00000  Uiso   1.00
C945   C     0.12250   0.68931   0.76438   0.00000  Uiso   1.00
C946   C     0.12060   0.98035   0.76830   0.00000  Uiso   1.00
C947   C     0.16458   0.95723   0.75591   0.00000  Uiso   1.00
C948   C     0.30009   0.85900   0.78295   0.00000  Uiso   1.00
C949   C     0.01617   0.85876   0.78282   0.00000  Uiso   1.00
C950   C     0.03412   0.80832   0.71662   0.00000  Uiso   1.00
C951   C     0.31817   0.80831   0.71631   0.00000  Uiso   1.00
C952   C     0.16693   0.75402   0.75034   0.00000  Uiso   1.00
C953   C     0.19232   0.83592   0.64992   0.00000  Uiso   1.00
C954   C     0.26959   0.83469   0.50981   0.00000  Uiso   1.00
C955   C     0.20704   0.83818   0.59227   0.00000  Uiso   1.00
C956   C     0.08563   0.79078   0.92601   0.00000  Uiso   1.00
C957   C     0.07227   0.78349   0.97995   0.00000  Uiso   1.00
C958   C     0.10326   0.79562   0.51062   0.00000  Uiso   1.00
Cu959  Cu    0.11978   0.83333   0.75000   0.00000  Uiso   1.00
Cu960  Cu    0.21355   0.83334   0.75000   0.00000  Uiso   1.00
H961   H     0.08855   0.70658   0.77272   0.00000  Uiso   1.00
H962   H     0.02790   0.87883   0.80938   0.00000  Uiso   1.00
H963   H     0.06031   0.78837   0.68986   0.00000  Uiso   1.00
H964   H     0.30758   0.83673   0.98825   0.00000  Uiso   1.00
H965   H     0.24288   0.95985   0.73686   0.00000  Uiso   1.00
N966   N     0.04931   0.83332   0.74998   0.00000  Uiso   1.00
N967   N     0.28402   0.83335   0.74999   0.00000  Uiso   1.00
O968   O     0.12708   0.89345   0.75000   0.00000  Uiso   1.00
O969   O     0.20627   0.89346   0.75000   0.00000  Uiso   1.00
O970   O     0.10775   0.83332   0.82549   0.00000  Uiso   1.00
O971   O     0.18694   0.83333   0.82549   0.00000  Uiso   1.00
O972   O     0.12706   0.77321   0.74999   0.00000  Uiso   1.00
O973   O     0.20625   0.77322   0.74999   0.00000  Uiso   1.00
O974   O     0.14640   0.83334   0.67451   0.00000  Uiso   1.00
O975   O     0.22559   0.83335   0.67451   0.00000  Uiso   1.00
O976   O     0.29149   0.84659   0.58980   0.00000  Uiso   1.00
H977   H     0.32415   0.84631   0.56424   0.00000  Uiso   1.00
O978   O     0.25476   0.70617   0.73556   0.00000  Uiso   1.00
H979   H     0.28142   0.68558   0.73140   0.00000  Uiso   1.00
O980   O     0.07540   0.96310   0.78514   0.00000  Uiso   1.00
H981   H     0.07753   0.94119   0.80980   0.00000  Uiso   1.00
Cl982  Cl    0.26067   0.89314   0.82693   0.00000  Uiso   1.00
Cl983  Cl    0.30312   0.77590   0.67042   0.00000  Uiso   1.00
O984   O     0.29877   0.81510   0.90466   0.00000  Uiso   1.00
H985   H     0.30333   0.81098   0.86682   0.00000  Uiso   1.00
O986   O     0.12501   0.85242   0.58614   0.00000  Uiso   1.00
H987   H     0.12682   0.87524   0.61044   0.00000  Uiso   1.00
Cl988  Cl    0.05348   0.76712   0.88620   0.00000  Uiso   1.00
O989   O     0.09230   0.78583   0.56278   0.00000  Uiso   1.00
H990   H     0.05671   0.78358   0.57722   0.00000  Uiso   1.00
Cl991  Cl    0.01873   0.75590   0.50777   0.00000  Uiso   1.00
Cl992  Cl    0.23379   0.76598   0.85340   0.00000  Uiso   1.00
C993   C     0.49905   0.91257   0.75247   0.00000  Uiso   1.00
C994   C     0.48355   0.81084   0.98536   0.00000  Uiso   1.00
C995   C     0.49889   0.80895   0.93035   0.00000  Uiso   1.00
C996   C     0.51815   0.82303   0.51207   0.00000  Uiso   1.00
C997   C     0.56813   0.82449   0.98397   0.00000  Uiso   1.00
C998   C     0.58330   0.81411   0.93077   0.00000  Uiso   1.00
C999   C     0.54877   0.80231   0.90559   0.00000  Uiso   1.00
C1000  C     0.50470   0.83654   0.56467   0.00000  Uiso   1.00
C1001  C     0.58988   0.83958   0.56406   0.00000  Uiso   1.00
C1002  C     0.46364   0.80893   0.90233   0.00000  Uiso   1.00
C1003  C     0.54239   0.97731   0.74525   0.00000  Uiso   1.00
C1004  C     0.47527   0.82510   0.84819   0.00000  Uiso   1.00
C1005  C     0.54416   0.68659   0.74454   0.00000  Uiso   1.00
C1006  C     0.50045   0.70936   0.75254   0.00000  Uiso   1.00
C1007  C     0.45584   0.68931   0.76438   0.00000  Uiso   1.00
C1008  C     0.45394   0.98035   0.76830   0.00000  Uiso   1.00
C1009  C     0.49791   0.95723   0.75591   0.00000  Uiso   1.00
C1010  C     0.63343   0.85900   0.78295   0.00000  Uiso   1.00
C1011  C     0.34951   0.85876   0.78282   0.00000  Uiso   1.00
C1012  C     0.36745   0.80832   0.71662   0.00000  Uiso   1.00
C1013  C     0.65151   0.80831   0.71631   0.00000  Uiso   1.00
C1014  C     0.50027   0.75402   0.75034   0.00000  Uiso   1.00
C1015  C     0.52566   0.83592   0.64992   0.00000  Uiso   1.00
C1016  C     0.60292   0.83469   0.50981   0.00000  Uiso   1.00
C1017  C     0.54037   0.83818   0.59227   0.00000  Uiso   1.00
C1018  C     0.41896   0.79078   0.92601   0.00000  Uiso   1.00
C1019  C     0.40560   0.78349   0.97995   0.00000  Uiso   1.00
C1020  C     0.43659   0.79562   0.51062   0.00000  Uiso   1.00
Cu1021 Cu    0.45311   0.83333   0.75000   0.00000  Uiso   1.00
Cu1022 Cu    0.54689   0.83334   0.75000   0.00000  Uiso   1.00
H1023  H     0.42188   0.70658   0.77272   0.00000  Uiso   1.00
H1024  H     0.36124   0.87883   0.80938   0.00000  Uiso   1.00
H1025  H     0.39364   0.78837   0.68986   0.00000  Uiso   1.00
H1026  H     0.64091   0.83673   0.98825   0.00000  Uiso   1.00
H1027  H     0.57621   0.95985   0.73686   0.00000  Uiso   1.00
N1028  N     0.38265   0.83332   0.74998   0.00000  Uiso   1.00
N1029  N     0.61735   0.83335   0.74999   0.00000  Uiso   1.00
O1030  O     0.46042   0.89345   0.75000   0.00000  Uiso   1.00
O1031  O     0.53961   0.89346   0.75000   0.00000  Uiso   1.00
O1032  O     0.44108   0.83332   0.82549   0.00000  Uiso   1.00
O1033  O     0.52027   0.83333   0.82549   0.00000  Uiso   1.00
O1034  O     0.46039   0.77321   0.74999   0.00000  Uiso   1.00
O1035  O     0.53958   0.77322   0.74999   0.00000  Uiso   1.00
O1036  O     0.47973   0.83334   0.67451   0.00000  Uiso   1.00
O1037  O     0.55892   0.83335   0.67451   0.00000  Uiso   1.00
O1038  O     0.62483   0.84659   0.58980   0.00000  Uiso   1.00
H1039  H     0.65748   0.84631   0.56424   0.00000  Uiso   1.00
O1040  O     0.58810   0.70617   0.73556   0.00000  Uiso   1.00
H1041  H     0.61476   0.68558   0.73140   0.00000  Uiso   1.00
O1042  O     0.40873   0.96310   0.78514   0.00000  Uiso   1.00
H1043  H     0.41086   0.94119   0.80980   0.00000  Uiso   1.00
Cl1044 Cl    0.59401   0.89314   0.82693   0.00000  Uiso   1.00
Cl1045 Cl    0.63645   0.77590   0.67042   0.00000  Uiso   1.00
O1046  O     0.63210   0.81510   0.90466   0.00000  Uiso   1.00
H1047  H     0.63667   0.81098   0.86682   0.00000  Uiso   1.00
O1048  O     0.45835   0.85242   0.58614   0.00000  Uiso   1.00
H1049  H     0.46015   0.87524   0.61044   0.00000  Uiso   1.00
Cl1050 Cl    0.38681   0.76712   0.88620   0.00000  Uiso   1.00
O1051  O     0.42563   0.78583   0.56278   0.00000  Uiso   1.00
H1052  H     0.39005   0.78358   0.57722   0.00000  Uiso   1.00
Cl1053 Cl    0.35206   0.75590   0.50777   0.00000  Uiso   1.00
Cl1054 Cl    0.56712   0.76598   0.85340   0.00000  Uiso   1.00
C1055  C     0.83238   0.91257   0.75247   0.00000  Uiso   1.00
C1056  C     0.81689   0.81084   0.98536   0.00000  Uiso   1.00
C1057  C     0.83222   0.80895   0.93035   0.00000  Uiso   1.00
C1058  C     0.85148   0.82303   0.51207   0.00000  Uiso   1.00
C1059  C     0.90146   0.82449   0.98397   0.00000  Uiso   1.00
C1060  C     0.91663   0.81411   0.93077   0.00000  Uiso   1.00
C1061  C     0.88211   0.80231   0.90559   0.00000  Uiso   1.00
C1062  C     0.83803   0.83654   0.56467   0.00000  Uiso   1.00
C1063  C     0.92322   0.83958   0.56406   0.00000  Uiso   1.00
C1064  C     0.79697   0.80893   0.90233   0.00000  Uiso   1.00
C1065  C     0.87573   0.97731   0.74525   0.00000  Uiso   1.00
C1066  C     0.80860   0.82510   0.84819   0.00000  Uiso   1.00
C1067  C     0.87750   0.68659   0.74454   0.00000  Uiso   1.00
C1068  C     0.83378   0.70936   0.75254   0.00000  Uiso   1.00
C1069  C     0.78917   0.68931   0.76438   0.00000  Uiso   1.00
C1070  C     0.78727   0.98035   0.76830   0.00000  Uiso   1.00
C1071  C     0.83124   0.95723   0.75591   0.00000  Uiso   1.00
C1072  C     0.96676   0.85900   0.78295   0.00000  Uiso   1.00
C1073  C     0.68284   0.85876   0.78282   0.00000  Uiso   1.00
C1074  C     0.70078   0.80832   0.71662   0.00000  Uiso   1.00
C1075  C     0.98484   0.80831   0.71631   0.00000  Uiso   1.00
C1076  C     0.83360   0.75402   0.75034   0.00000  Uiso   1.00
C1077  C     0.85899   0.83592   0.64992   0.00000  Uiso   1.00
C1078  C     0.93625   0.83469   0.50981   0.00000  Uiso   1.00
C1079  C     0.87371   0.83818   0.59227   0.00000  Uiso   1.00
C1080  C     0.75230   0.79078   0.92601   0.00000  Uiso   1.00
C1081  C     0.73893   0.78349   0.97995   0.00000  Uiso   1.00
C1082  C     0.76993   0.79562   0.51062   0.00000  Uiso   1.00
Cu1083 Cu    0.78645   0.83333   0.75000   0.00000  Uiso   1.00
Cu1084 Cu    0.88022   0.83334   0.75000   0.00000  Uiso   1.00
H1085  H     0.75521   0.70658   0.77272   0.00000  Uiso   1.00
H1086  H     0.69457   0.87883   0.80938   0.00000  Uiso   1.00
H1087  H     0.72697   0.78837   0.68986   0.00000  Uiso   1.00
H1088  H     0.97424   0.83673   0.98825   0.00000  Uiso   1.00
H1089  H     0.90954   0.95985   0.73686   0.00000  Uiso   1.00
N1090  N     0.71598   0.83332   0.74998   0.00000  Uiso   1.00
N1091  N     0.95069   0.83335   0.74999   0.00000  Uiso   1.00
O1092  O     0.79375   0.89345   0.75000   0.00000  Uiso   1.00
O1093  O     0.87294   0.89346   0.75000   0.00000  Uiso   1.00
O1094  O     0.77441   0.83332   0.82549   0.00000  Uiso   1.00
O1095  O     0.85360   0.83333   0.82549   0.00000  Uiso   1.00
O1096  O     0.79373   0.77321   0.74999   0.00000  Uiso   1.00
O1097  O     0.87292   0.77322   0.74999   0.00000  Uiso   1.00
O1098  O     0.81306   0.83334   0.67451   0.00000  Uiso   1.00
O1099  O     0.89225   0.83335   0.67451   0.00000  Uiso   1.00
O1100  O     0.95816   0.84659   0.58980   0.00000  Uiso   1.00
H1101  H     0.99081   0.84631   0.56424   0.00000  Uiso   1.00
O1102  O     0.92143   0.70617   0.73556   0.00000  Uiso   1.00
H1103  H     0.94809   0.68558   0.73140   0.00000  Uiso   1.00
O1104  O     0.74207   0.96310   0.78514   0.00000  Uiso   1.00
H1105  H     0.74420   0.94119   0.80980   0.00000  Uiso   1.00
Cl1106 Cl    0.92734   0.89314   0.82693   0.00000  Uiso   1.00
Cl1107 Cl    0.96979   0.77590   0.67042   0.00000  Uiso   1.00
O1108  O     0.96544   0.81510   0.90466   0.00000  Uiso   1.00
H1109  H     0.97000   0.81098   0.86682   0.00000  Uiso   1.00
O1110  O     0.79168   0.85242   0.58614   0.00000  Uiso   1.00
H1111  H     0.79349   0.87524   0.61044   0.00000  Uiso   1.00
Cl1112 Cl    0.72015   0.76712   0.88620   0.00000  Uiso   1.00
O1113  O     0.75896   0.78583   0.56278   0.00000  Uiso   1.00
H1114  H     0.72338   0.78358   0.57722   0.00000  Uiso   1.00
Cl1115 Cl    0.68540   0.75590   0.50777   0.00000  Uiso   1.00
Cl1116 Cl    0.90046   0.76598   0.85340   0.00000  Uiso   1.00
loop_
_geom_bond_atom_site_label_1
_geom_bond_atom_site_label_2
_geom_bond_distance
_geom_bond_site_symmetry_2
_ccdc_geom_bond_type
C1     C17     1.457   .     S
C1     O38     1.294   .     A
C1     O39     1.296   .     A
C2     C3      1.410   .     A
C2     C562    1.430   .     S
C2     C586    1.425   .     S
C3     C10     1.414   .     A
C3     C7      1.410   .     A
C4     C8      1.410   .     A
C4     C560    1.430   1_554 S
C4     C563    1.421   1_554 S
C5     C6      1.399   .     A
C5     C562    1.421   .     S
C5     C582    1.402   .     S
C6     O54     1.378   .     S
C6     C7      1.397   .     A
C7     Cl62    1.774   .     S
C8     O56     1.382   .     S
C8     C25     1.418   .     A
C9     O46     1.383   .     S
C9     C25     1.410   .     A
C9     C24     1.397   .     A
C10    C26     1.402   .     A
C10    C12     1.494   .     S
C11    H35     1.084   .     S
C11    C17     1.399   .     A
C11    C199    1.391   .     S
C12    O40     1.314   .     A
C12    O41     1.296   .     A
C13    O48     1.381   .     S
C13    C14     1.410   .     A
C13    C383    1.391   1_545 S
C14    C22     1.458   .     S
C14    C15     1.401   .     A
C15    H31     1.084   .     S
C15    C388    1.385   1_545 S
C16    O50     1.377   .     S
C16    C17     1.415   .     A
C16    C201    1.385   .     S
C18    Cl52    1.756   .     S
C18    N37     1.378   .     A
C18    C81     1.415   .     S
C19    N36     1.361   .     A
C19    H32     1.081   .     S
C19    C142    1.415   1_455 S
C20    H33     1.082   .     S
C20    N36     1.361   .     A
C20    C145    1.414   1_455 S
C21    Cl53    1.753   .     S
C21    N37     1.378   .     A
C21    C82     1.414   .     S
C22    O43     1.294   .     A
C22    O42     1.298   .     A
C23    O45     1.302   .     A
C23    C25     1.480   .     S
C23    O44     1.301   .     A
C24    C563    1.402   1_554 S
C24    H592    1.083   1_554 S
C26    Cl58    1.765   .     S
C26    C27     1.407   .     A
C27    C586    1.421   .     S
C27    Cl619   1.770   .     S
C28    O59     1.382   .     S
C28    C560    1.425   1_554 S
C28    C585    1.421   1_554 S
Cu29   O38     1.974   .     S
Cu29   O42     1.968   .     S
Cu29   N36     2.019   .     S
Cu29   Cu30    2.687   .     S
Cu29   O40     1.946   .     S
Cu29   O44     1.944   .     S
Cu30   O45     1.946   .     S
Cu30   O41     1.944   .     S
Cu30   O39     1.968   .     S
Cu30   O43     1.974   .     S
Cu30   N37     2.019   .     S
H34    C582    1.083   .     S
O46    H47     0.992   .     S
O48    H49     0.992   .     S
O50    H51     0.990   .     S
O54    H55     0.988   .     S
O56    H57     0.991   .     S
O59    H60     0.988   .     S
Cl61   C585    1.770   1_554 S
C63    C79     1.457   .     S
C63    O100    1.294   .     A
C63    O101    1.296   .     A
C64    C65     1.410   .     A
C64    C624    1.430   .     S
C64    C648    1.425   .     S
C65    C72     1.414   .     A
C65    C69     1.410   .     A
C66    C70     1.410   .     A
C66    C622    1.430   1_554 S
C66    C625    1.421   1_554 S
C67    C68     1.399   .     A
C67    C624    1.421   .     S
C67    C644    1.402   .     S
C68    O116    1.378   .     S
C68    C69     1.397   .     A
C69    Cl124   1.774   .     S
C70    O118    1.382   .     S
C70    C87     1.418   .     A
C71    O108    1.383   .     S
C71    C87     1.410   .     A
C71    C86     1.397   .     A
C72    C88     1.402   .     A
C72    C74     1.494   .     S
C73    H97     1.084   .     S
C73    C79     1.399   .     A
C73    C261    1.391   .     S
C74    O102    1.314   .     A
C74    O103    1.296   .     A
C75    O110    1.381   .     S
C75    C76     1.410   .     A
C75    C445    1.391   1_545 S
C76    C84     1.458   .     S
C76    C77     1.401   .     A
C77    H93     1.084   .     S
C77    C450    1.385   1_545 S
C78    O112    1.377   .     S
C78    C79     1.415   .     A
C78    C263    1.385   .     S
C80    Cl114   1.756   .     S
C80    N99     1.378   .     A
C80    C143    1.415   .     S
C81    N98     1.361   .     A
C81    H94     1.081   .     S
C82    H95     1.082   .     S
C82    N98     1.361   .     A
C83    Cl115   1.753   .     S
C83    N99     1.378   .     A
C83    C144    1.414   .     S
C84    O105    1.294   .     A
C84    O104    1.298   .     A
C85    O107    1.302   .     A
C85    C87     1.480   .     S
C85    O106    1.301   .     A
C86    C625    1.402   1_554 S
C86    H654    1.083   1_554 S
C88    Cl120   1.765   .     S
C88    C89     1.407   .     A
C89    C648    1.421   .     S
C89    Cl681   1.770   .     S
C90    O121    1.382   .     S
C90    C622    1.425   1_554 S
C90    C647    1.421   1_554 S
Cu91   O100    1.974   .     S
Cu91   O104    1.968   .     S
Cu91   N98     2.019   .     S
Cu91   Cu92    2.687   .     S
Cu91   O102    1.946   .     S
Cu91   O106    1.944   .     S
Cu92   O107    1.946   .     S
Cu92   O103    1.944   .     S
Cu92   O101    1.968   .     S
Cu92   O105    1.974   .     S
Cu92   N99     2.019   .     S
H96    C644    1.083   .     S
O108   H109    0.992   .     S
O110   H111    0.992   .     S
O112   H113    0.990   .     S
O116   H117    0.988   .     S
O118   H119    0.991   .     S
O121   H122    0.988   .     S
Cl123  C647    1.770   1_554 S
C125   C141    1.457   .     S
C125   O162    1.294   .     A
C125   O163    1.296   .     A
C126   C127    1.410   .     A
C126   C686    1.430   .     S
C126   C710    1.425   .     S
C127   C134    1.414   .     A
C127   C131    1.410   .     A
C128   C132    1.410   .     A
C128   C684    1.430   1_554 S
C128   C687    1.421   1_554 S
C129   C130    1.399   .     A
C129   C686    1.421   .     S
C129   C706    1.402   .     S
C130   O178    1.378   .     S
C130   C131    1.397   .     A
C131   Cl186   1.774   .     S
C132   O180    1.382   .     S
C132   C149    1.418   .     A
C133   O170    1.383   .     S
C133   C149    1.410   .     A
C133   C148    1.397   .     A
C134   C150    1.402   .     A
C134   C136    1.494   .     S
C135   H159    1.084   .     S
C135   C141    1.399   .     A
C135   C323    1.391   .     S
C136   O164    1.314   .     A
C136   O165    1.296   .     A
C137   O172    1.381   .     S
C137   C138    1.410   .     A
C137   C507    1.391   1_545 S
C138   C146    1.458   .     S
C138   C139    1.401   .     A
C139   H155    1.084   .     S
C139   C512    1.385   1_545 S
C140   O174    1.377   .     S
C140   C141    1.415   .     A
C140   C325    1.385   .     S
C142   Cl176   1.756   .     S
C142   N161    1.378   .     A
C142   C19     1.415   1_655 S
C143   N160    1.361   .     A
C143   H156    1.081   .     S
C144   H157    1.082   .     S
C144   N160    1.361   .     A
C145   Cl177   1.753   .     S
C145   N161    1.378   .     A
C145   C20     1.414   1_655 S
C146   O167    1.294   .     A
C146   O166    1.298   .     A
C147   O169    1.302   .     A
C147   C149    1.480   .     S
C147   O168    1.301   .     A
C148   C687    1.402   1_554 S
C148   H716    1.083   1_554 S
C150   Cl182   1.765   .     S
C150   C151    1.407   .     A
C151   C710    1.421   .     S
C151   Cl743   1.770   .     S
C152   O183    1.382   .     S
C152   C684    1.425   1_554 S
C152   C709    1.421   1_554 S
Cu153  O162    1.974   .     S
Cu153  O166    1.968   .     S
Cu153  N160    2.019   .     S
Cu153  Cu154   2.687   .     S
Cu153  O164    1.946   .     S
Cu153  O168    1.944   .     S
Cu154  O169    1.946   .     S
Cu154  O165    1.944   .     S
Cu154  O163    1.968   .     S
Cu154  O167    1.974   .     S
Cu154  N161    2.019   .     S
H158   C706    1.083   .     S
O170   H171    0.992   .     S
O172   H173    0.992   .     S
O174   H175    0.990   .     S
O178   H179    0.988   .     S
O180   H181    0.991   .     S
O183   H184    0.988   .     S
Cl185  C709    1.770   1_554 S
C187   C203    1.457   .     S
C187   O224    1.294   .     A
C187   O225    1.296   .     A
C188   C189    1.410   .     A
C188   C748    1.430   .     S
C188   C772    1.425   .     S
C189   C196    1.414   .     A
C189   C193    1.410   .     A
C190   C194    1.410   .     A
C190   C746    1.430   1_554 S
C190   C749    1.421   1_554 S
C191   C192    1.399   .     A
C191   C748    1.421   .     S
C191   C768    1.402   .     S
C192   O240    1.378   .     S
C192   C193    1.397   .     A
C193   Cl248   1.774   .     S
C194   O242    1.382   .     S
C194   C211    1.418   .     A
C195   O232    1.383   .     S
C195   C211    1.410   .     A
C195   C210    1.397   .     A
C196   C212    1.402   .     A
C196   C198    1.494   .     S
C197   H221    1.084   .     S
C197   C203    1.399   .     A
C197   C385    1.391   .     S
C198   O226    1.314   .     A
C198   O227    1.296   .     A
C199   O234    1.381   .     S
C199   C200    1.410   .     A
C200   C208    1.458   .     S
C200   C201    1.401   .     A
C201   H217    1.084   .     S
C202   O236    1.377   .     S
C202   C203    1.415   .     A
C202   C387    1.385   .     S
C204   Cl238   1.756   .     S
C204   N223    1.378   .     A
C204   C267    1.415   .     S
C205   N222    1.361   .     A
C205   H218    1.081   .     S
C205   C328    1.415   1_455 S
C206   H219    1.082   .     S
C206   N222    1.361   .     A
C206   C331    1.414   1_455 S
C207   Cl239   1.753   .     S
C207   N223    1.378   .     A
C207   C268    1.414   .     S
C208   O229    1.294   .     A
C208   O228    1.298   .     A
C209   O231    1.302   .     A
C209   C211    1.480   .     S
C209   O230    1.301   .     A
C210   C749    1.402   1_554 S
C210   H778    1.083   1_554 S
C212   Cl244   1.765   .     S
C212   C213    1.407   .     A
C213   C772    1.421   .     S
C213   Cl805   1.770   .     S
C214   O245    1.382   .     S
C214   C746    1.425   1_554 S
C214   C771    1.421   1_554 S
Cu215  O224    1.974   .     S
Cu215  O228    1.968   .     S
Cu215  N222    2.019   .     S
Cu215  Cu216   2.687   .     S
Cu215  O226    1.946   .     S
Cu215  O230    1.944   .     S
Cu216  O231    1.946   .     S
Cu216  O227    1.944   .     S
Cu216  O225    1.968   .     S
Cu216  O229    1.974   .     S
Cu216  N223    2.019   .     S
H220   C768    1.083   .     S
O232   H233    0.992   .     S
O234   H235    0.992   .     S
O236   H237    0.990   .     S
O240   H241    0.988   .     S
O242   H243    0.991   .     S
O245   H246    0.988   .     S
Cl247  C771    1.770   1_554 S
C249   C265    1.457   .     S
C249   O286    1.294   .     A
C249   O287    1.296   .     A
C250   C251    1.410   .     A
C250   C810    1.430   .     S
C250   C834    1.425   .     S
C251   C258    1.414   .     A
C251   C255    1.410   .     A
C252   C256    1.410   .     A
C252   C808    1.430   1_554 S
C252   C811    1.421   1_554 S
C253   C254    1.399   .     A
C253   C810    1.421   .     S
C253   C830    1.402   .     S
C254   O302    1.378   .     S
C254   C255    1.397   .     A
C255   Cl310   1.774   .     S
C256   O304    1.382   .     S
C256   C273    1.418   .     A
C257   O294    1.383   .     S
C257   C273    1.410   .     A
C257   C272    1.397   .     A
C258   C274    1.402   .     A
C258   C260    1.494   .     S
C259   H283    1.084   .     S
C259   C265    1.399   .     A
C259   C447    1.391   .     S
C260   O288    1.314   .     A
C260   O289    1.296   .     A
C261   O296    1.381   .     S
C261   C262    1.410   .     A
C262   C270    1.458   .     S
C262   C263    1.401   .     A
C263   H279    1.084   .     S
C264   O298    1.377   .     S
C264   C265    1.415   .     A
C264   C449    1.385   .     S
C266   Cl300   1.756   .     S
C266   N285    1.378   .     A
C266   C329    1.415   .     S
C267   N284    1.361   .     A
C267   H280    1.081   .     S
C268   H281    1.082   .     S
C268   N284    1.361   .     A
C269   Cl301   1.753   .     S
C269   N285    1.378   .     A
C269   C330    1.414   .     S
C270   O291    1.294   .     A
C270   O290    1.298   .     A
C271   O293    1.302   .     A
C271   C273    1.480   .     S
C271   O292    1.301   .     A
C272   C811    1.402   1_554 S
C272   H840    1.083   1_554 S
C274   Cl306   1.765   .     S
C274   C275    1.407   .     A
C275   C834    1.421   .     S
C275   Cl867   1.770   .     S
C276   O307    1.382   .     S
C276   C808    1.425   1_554 S
C276   C833    1.421   1_554 S
Cu277  O286    1.974   .     S
Cu277  O290    1.968   .     S
Cu277  N284    2.019   .     S
Cu277  Cu278   2.687   .     S
Cu277  O288    1.946   .     S
Cu277  O292    1.944   .     S
Cu278  O293    1.946   .     S
Cu278  O289    1.944   .     S
Cu278  O287    1.968   .     S
Cu278  O291    1.974   .     S
Cu278  N285    2.019   .     S
H282   C830    1.083   .     S
O294   H295    0.992   .     S
O296   H297    0.992   .     S
O298   H299    0.990   .     S
O302   H303    0.988   .     S
O304   H305    0.991   .     S
O307   H308    0.988   .     S
Cl309  C833    1.770   1_554 S
C311   C327    1.457   .     S
C311   O348    1.294   .     A
C311   O349    1.296   .     A
C312   C313    1.410   .     A
C312   C872    1.430   .     S
C312   C896    1.425   .     S
C313   C320    1.414   .     A
C313   C317    1.410   .     A
C314   C318    1.410   .     A
C314   C870    1.430   1_554 S
C314   C873    1.421   1_554 S
C315   C316    1.399   .     A
C315   C872    1.421   .     S
C315   C892    1.402   .     S
C316   O364    1.378   .     S
C316   C317    1.397   .     A
C317   Cl372   1.774   .     S
C318   O366    1.382   .     S
C318   C335    1.418   .     A
C319   O356    1.383   .     S
C319   C335    1.410   .     A
C319   C334    1.397   .     A
C320   C336    1.402   .     A
C320   C322    1.494   .     S
C321   H345    1.084   .     S
C321   C327    1.399   .     A
C321   C509    1.391   .     S
C322   O350    1.314   .     A
C322   O351    1.296   .     A
C323   O358    1.381   .     S
C323   C324    1.410   .     A
C324   C332    1.458   .     S
C324   C325    1.401   .     A
C325   H341    1.084   .     S
C326   O360    1.377   .     S
C326   C327    1.415   .     A
C326   C511    1.385   .     S
C328   Cl362   1.756   .     S
C328   N347    1.378   .     A
C328   C205    1.415   1_655 S
C329   N346    1.361   .     A
C329   H342    1.081   .     S
C330   H343    1.082   .     S
C330   N346    1.361   .     A
C331   Cl363   1.753   .     S
C331   N347    1.378   .     A
C331   C206    1.414   1_655 S
C332   O353    1.294   .     A
C332   O352    1.298   .     A
C333   O355    1.302   .     A
C333   C335    1.480   .     S
C333   O354    1.301   .     A
C334   C873    1.402   1_554 S
C334   H902    1.083   1_554 S
C336   Cl368   1.765   .     S
C336   C337    1.407   .     A
C337   C896    1.421   .     S
C337   Cl929   1.770   .     S
C338   O369    1.382   .     S
C338   C870    1.425   1_554 S
C338   C895    1.421   1_554 S
Cu339  O348    1.974   .     S
Cu339  O352    1.968   .     S
Cu339  N346    2.019   .     S
Cu339  Cu340   2.687   .     S
Cu339  O350    1.946   .     S
Cu339  O354    1.944   .     S
Cu340  O355    1.946   .     S
Cu340  O351    1.944   .     S
Cu340  O349    1.968   .     S
Cu340  O353    1.974   .     S
Cu340  N347    2.019   .     S
H344   C892    1.083   .     S
O356   H357    0.992   .     S
O358   H359    0.992   .     S
O360   H361    0.990   .     S
O364   H365    0.988   .     S
O366   H367    0.991   .     S
O369   H370    0.988   .     S
Cl371  C895    1.770   1_554 S
C373   C389    1.457   .     S
C373   O410    1.294   .     A
C373   O411    1.296   .     A
C374   C375    1.410   .     A
C374   C934    1.430   .     S
C374   C958    1.425   .     S
C375   C382    1.414   .     A
C375   C379    1.410   .     A
C376   C380    1.410   .     A
C376   C932    1.430   1_554 S
C376   C935    1.421   1_554 S
C377   C378    1.399   .     A
C377   C934    1.421   .     S
C377   C954    1.402   .     S
C378   O426    1.378   .     S
C378   C379    1.397   .     A
C379   Cl434   1.774   .     S
C380   O428    1.382   .     S
C380   C397    1.418   .     A
C381   O418    1.383   .     S
C381   C397    1.410   .     A
C381   C396    1.397   .     A
C382   C398    1.402   .     A
C382   C384    1.494   .     S
C383   H407    1.084   .     S
C383   C389    1.399   .     A
C383   C13     1.391   1_565 S
C384   O412    1.314   .     A
C384   O413    1.296   .     A
C385   O420    1.381   .     S
C385   C386    1.410   .     A
C386   C394    1.458   .     S
C386   C387    1.401   .     A
C387   H403    1.084   .     S
C388   O422    1.377   .     S
C388   C389    1.415   .     A
C388   C15     1.385   1_565 S
C390   Cl424   1.756   .     S
C390   N409    1.378   .     A
C390   C453    1.415   .     S
C391   N408    1.361   .     A
C391   H404    1.081   .     S
C391   C514    1.415   1_455 S
C392   H405    1.082   .     S
C392   N408    1.361   .     A
C392   C517    1.414   1_455 S
C393   Cl425   1.753   .     S
C393   N409    1.378   .     A
C393   C454    1.414   .     S
C394   O415    1.294   .     A
C394   O414    1.298   .     A
C395   O417    1.302   .     A
C395   C397    1.480   .     S
C395   O416    1.301   .     A
C396   C935    1.402   1_554 S
C396   H964    1.083   1_554 S
C398   Cl430   1.765   .     S
C398   C399    1.407   .     A
C399   C958    1.421   .     S
C399   Cl991   1.770   .     S
C400   O431    1.382   .     S
C400   C932    1.425   1_554 S
C400   C957    1.421   1_554 S
Cu401  O410    1.974   .     S
Cu401  O414    1.968   .     S
Cu401  N408    2.019   .     S
Cu401  Cu402   2.687   .     S
Cu401  O412    1.946   .     S
Cu401  O416    1.944   .     S
Cu402  O417    1.946   .     S
Cu402  O413    1.944   .     S
Cu402  O411    1.968   .     S
Cu402  O415    1.974   .     S
Cu402  N409    2.019   .     S
H406   C954    1.083   .     S
O418   H419    0.992   .     S
O420   H421    0.992   .     S
O422   H423    0.990   .     S
O426   H427    0.988   .     S
O428   H429    0.991   .     S
O431   H432    0.988   .     S
Cl433  C957    1.770   1_554 S
C435   C451    1.457   .     S
C435   O472    1.294   .     A
C435   O473    1.296   .     A
C436   C437    1.410   .     A
C436   C996    1.430   .     S
C436   C1020   1.425   .     S
C437   C444    1.414   .     A
C437   C441    1.410   .     A
C438   C442    1.410   .     A
C438   C994    1.430   1_554 S
C438   C997    1.421   1_554 S
C439   C440    1.399   .     A
C439   C996    1.421   .     S
C439   C1016   1.402   .     S
C440   O488    1.378   .     S
C440   C441    1.397   .     A
C441   Cl496   1.774   .     S
C442   O490    1.382   .     S
C442   C459    1.418   .     A
C443   O480    1.383   .     S
C443   C459    1.410   .     A
C443   C458    1.397   .     A
C444   C460    1.402   .     A
C444   C446    1.494   .     S
C445   H469    1.084   .     S
C445   C451    1.399   .     A
C445   C75     1.391   1_565 S
C446   O474    1.314   .     A
C446   O475    1.296   .     A
C447   O482    1.381   .     S
C447   C448    1.410   .     A
C448   C456    1.458   .     S
C448   C449    1.401   .     A
C449   H465    1.084   .     S
C450   O484    1.377   .     S
C450   C451    1.415   .     A
C450   C77     1.385   1_565 S
C452   Cl486   1.756   .     S
C452   N471    1.378   .     A
C452   C515    1.415   .     S
C453   N470    1.361   .     A
C453   H466    1.081   .     S
C454   H467    1.082   .     S
C454   N470    1.361   .     A
C455   Cl487   1.753   .     S
C455   N471    1.378   .     A
C455   C516    1.414   .     S
C456   O477    1.294   .     A
C456   O476    1.298   .     A
C457   O479    1.302   .     A
C457   C459    1.480   .     S
C457   O478    1.301   .     A
C458   C997    1.402   1_554 S
C458   H1026   1.083   1_554 S
C460   Cl492   1.765   .     S
C460   C461    1.407   .     A
C461   C1020   1.421   .     S
C461   Cl1053  1.770   .     S
C462   O493    1.382   .     S
C462   C994    1.425   1_554 S
C462   C1019   1.421   1_554 S
Cu463  O472    1.974   .     S
Cu463  O476    1.968   .     S
Cu463  N470    2.019   .     S
Cu463  Cu464   2.687   .     S
Cu463  O474    1.946   .     S
Cu463  O478    1.944   .     S
Cu464  O479    1.946   .     S
Cu464  O475    1.944   .     S
Cu464  O473    1.968   .     S
Cu464  O477    1.974   .     S
Cu464  N471    2.019   .     S
H468   C1016   1.083   .     S
O480   H481    0.992   .     S
O482   H483    0.992   .     S
O484   H485    0.990   .     S
O488   H489    0.988   .     S
O490   H491    0.991   .     S
O493   H494    0.988   .     S
Cl495  C1019   1.770   1_554 S
C497   C513    1.457   .     S
C497   O534    1.294   .     A
C497   O535    1.296   .     A
C498   C499    1.410   .     A
C498   C1058   1.430   .     S
C498   C1082   1.425   .     S
C499   C506    1.414   .     A
C499   C503    1.410   .     A
C500   C504    1.410   .     A
C500   C1056   1.430   1_554 S
C500   C1059   1.421   1_554 S
C501   C502    1.399   .     A
C501   C1058   1.421   .     S
C501   C1078   1.402   .     S
C502   O550    1.378   .     S
C502   C503    1.397   .     A
C503   Cl558   1.774   .     S
C504   O552    1.382   .     S
C504   C521    1.418   .     A
C505   O542    1.383   .     S
C505   C521    1.410   .     A
C505   C520    1.397   .     A
C506   C522    1.402   .     A
C506   C508    1.494   .     S
C507   H531    1.084   .     S
C507   C513    1.399   .     A
C507   C137    1.391   1_565 S
C508   O536    1.314   .     A
C508   O537    1.296   .     A
C509   O544    1.381   .     S
C509   C510    1.410   .     A
C510   C518    1.458   .     S
C510   C511    1.401   .     A
C511   H527    1.084   .     S
C512   O546    1.377   .     S
C512   C513    1.415   .     A
C512   C139    1.385   1_565 S
C514   Cl548   1.756   .     S
C514   N533    1.378   .     A
C514   C391    1.415   1_655 S
C515   N532    1.361   .     A
C515   H528    1.081   .     S
C516   H529    1.082   .     S
C516   N532    1.361   .     A
C517   Cl549   1.753   .     S
C517   N533    1.378   .     A
C517   C392    1.414   1_655 S
C518   O539    1.294   .     A
C518   O538    1.298   .     A
C519   O541    1.302   .     A
C519   C521    1.480   .     S
C519   O540    1.301   .     A
C520   C1059   1.402   1_554 S
C520   H1088   1.083   1_554 S
C522   Cl554   1.765   .     S
C522   C523    1.407   .     A
C523   C1082   1.421   .     S
C523   Cl1115  1.770   .     S
C524   O555    1.382   .     S
C524   C1056   1.425   1_554 S
C524   C1081   1.421   1_554 S
Cu525  O534    1.974   .     S
Cu525  O538    1.968   .     S
Cu525  N532    2.019   .     S
Cu525  Cu526   2.687   .     S
Cu525  O536    1.946   .     S
Cu525  O540    1.944   .     S
Cu526  O541    1.946   .     S
Cu526  O537    1.944   .     S
Cu526  O535    1.968   .     S
Cu526  O539    1.974   .     S
Cu526  N533    2.019   .     S
H530   C1078   1.083   .     S
O542   H543    0.992   .     S
O544   H545    0.992   .     S
O546   H547    0.990   .     S
O550   H551    0.988   .     S
O552   H553    0.991   .     S
O555   H556    0.988   .     S
Cl557  C1081   1.770   1_554 S
C559   C575    1.457   .     S
C559   O596    1.294   .     A
C559   O597    1.296   .     A
C560   C561    1.410   .     A
C560   C4      1.430   1_556 S
C560   C28     1.425   1_556 S
C561   C568    1.414   .     A
C561   C565    1.410   .     A
C562   C566    1.410   .     A
C563   C564    1.399   .     A
C563   C4      1.421   1_556 S
C563   C24     1.402   1_556 S
C564   O612    1.378   .     S
C564   C565    1.397   .     A
C565   Cl620   1.774   .     S
C566   O614    1.382   .     S
C566   C583    1.418   .     A
C567   O604    1.383   .     S
C567   C583    1.410   .     A
C567   C582    1.397   .     A
C568   C584    1.402   .     A
C568   C570    1.494   .     S
C569   H593    1.084   .     S
C569   C575    1.399   .     A
C569   C757    1.391   .     S
C570   O598    1.314   .     A
C570   O599    1.296   .     A
C571   O606    1.381   .     S
C571   C572    1.410   .     A
C571   C941    1.391   1_545 S
C572   C580    1.458   .     S
C572   C573    1.401   .     A
C573   H589    1.084   .     S
C573   C946    1.385   1_545 S
C574   O608    1.377   .     S
C574   C575    1.415   .     A
C574   C759    1.385   .     S
C576   Cl610   1.756   .     S
C576   N595    1.378   .     A
C576   C639    1.415   .     S
C577   N594    1.361   .     A
C577   H590    1.081   .     S
C577   C700    1.415   1_455 S
C578   H591    1.082   .     S
C578   N594    1.361   .     A
C578   C703    1.414   1_455 S
C579   Cl611   1.753   .     S
C579   N595    1.378   .     A
C579   C640    1.414   .     S
C580   O601    1.294   .     A
C580   O600    1.298   .     A
C581   O603    1.302   .     A
C581   C583    1.480   .     S
C581   O602    1.301   .     A
C584   Cl616   1.765   .     S
C584   C585    1.407   .     A
C585   C28     1.421   1_556 S
C585   Cl61    1.770   1_556 S
C586   O617    1.382   .     S
Cu587  O596    1.974   .     S
Cu587  O600    1.968   .     S
Cu587  N594    2.019   .     S
Cu587  Cu588   2.687   .     S
Cu587  O598    1.946   .     S
Cu587  O602    1.944   .     S
Cu588  O603    1.946   .     S
Cu588  O599    1.944   .     S
Cu588  O597    1.968   .     S
Cu588  O601    1.974   .     S
Cu588  N595    2.019   .     S
H592   C24     1.083   1_556 S
O604   H605    0.992   .     S
O606   H607    0.992   .     S
O608   H609    0.990   .     S
O612   H613    0.988   .     S
O614   H615    0.991   .     S
O617   H618    0.988   .     S
C621   C637    1.457   .     S
C621   O658    1.294   .     A
C621   O659    1.296   .     A
C622   C623    1.410   .     A
C622   C66     1.430   1_556 S
C622   C90     1.425   1_556 S
C623   C630    1.414   .     A
C623   C627    1.410   .     A
C624   C628    1.410   .     A
C625   C626    1.399   .     A
C625   C66     1.421   1_556 S
C625   C86     1.402   1_556 S
C626   O674    1.378   .     S
C626   C627    1.397   .     A
C627   Cl682   1.774   .     S
C628   O676    1.382   .     S
C628   C645    1.418   .     A
C629   O666    1.383   .     S
C629   C645    1.410   .     A
C629   C644    1.397   .     A
C630   C646    1.402   .     A
C630   C632    1.494   .     S
C631   H655    1.084   .     S
C631   C637    1.399   .     A
C631   C819    1.391   .     S
C632   O660    1.314   .     A
C632   O661    1.296   .     A
C633   O668    1.381   .     S
C633   C634    1.410   .     A
C633   C1003   1.391   1_545 S
C634   C642    1.458   .     S
C634   C635    1.401   .     A
C635   H651    1.084   .     S
C635   C1008   1.385   1_545 S
C636   O670    1.377   .     S
C636   C637    1.415   .     A
C636   C821    1.385   .     S
C638   Cl672   1.756   .     S
C638   N657    1.378   .     A
C638   C701    1.415   .     S
C639   N656    1.361   .     A
C639   H652    1.081   .     S
C640   H653    1.082   .     S
C640   N656    1.361   .     A
C641   Cl673   1.753   .     S
C641   N657    1.378   .     A
C641   C702    1.414   .     S
C642   O663    1.294   .     A
C642   O662    1.298   .     A
C643   O665    1.302   .     A
C643   C645    1.480   .     S
C643   O664    1.301   .     A
C646   Cl678   1.765   .     S
C646   C647    1.407   .     A
C647   C90     1.421   1_556 S
C647   Cl123   1.770   1_556 S
C648   O679    1.382   .     S
Cu649  O658    1.974   .     S
Cu649  O662    1.968   .     S
Cu649  N656    2.019   .     S
Cu649  Cu650   2.687   .     S
Cu649  O660    1.946   .     S
Cu649  O664    1.944   .     S
Cu650  O665    1.946   .     S
Cu650  O661    1.944   .     S
Cu650  O659    1.968   .     S
Cu650  O663    1.974   .     S
Cu650  N657    2.019   .     S
H654   C86     1.083   1_556 S
O666   H667    0.992   .     S
O668   H669    0.992   .     S
O670   H671    0.990   .     S
O674   H675    0.988   .     S
O676   H677    0.991   .     S
O679   H680    0.988   .     S
C683   C699    1.457   .     S
C683   O720    1.294   .     A
C683   O721    1.296   .     A
C684   C685    1.410   .     A
C684   C128    1.430   1_556 S
C684   C152    1.425   1_556 S
C685   C692    1.414   .     A
C685   C689    1.410   .     A
C686   C690    1.410   .     A
C687   C688    1.399   .     A
C687   C128    1.421   1_556 S
C687   C148    1.402   1_556 S
C688   O736    1.378   .     S
C688   C689    1.397   .     A
C689   Cl744   1.774   .     S
C690   O738    1.382   .     S
C690   C707    1.418   .     A
C691   O728    1.383   .     S
C691   C707    1.410   .     A
C691   C706    1.397   .     A
C692   C708    1.402   .     A
C692   C694    1.494   .     S
C693   H717    1.084   .     S
C693   C699    1.399   .     A
C693   C881    1.391   .     S
C694   O722    1.314   .     A
C694   O723    1.296   .     A
C695   O730    1.381   .     S
C695   C696    1.410   .     A
C695   C1065   1.391   1_545 S
C696   C704    1.458   .     S
C696   C697    1.401   .     A
C697   H713    1.084   .     S
C697   C1070   1.385   1_545 S
C698   O732    1.377   .     S
C698   C699    1.415   .     A
C698   C883    1.385   .     S
C700   Cl734   1.756   .     S
C700   N719    1.378   .     A
C700   C577    1.415   1_655 S
C701   N718    1.361   .     A
C701   H714    1.081   .     S
C702   H715    1.082   .     S
C702   N718    1.361   .     A
C703   Cl735   1.753   .     S
C703   N719    1.378   .     A
C703   C578    1.414   1_655 S
C704   O725    1.294   .     A
C704   O724    1.298   .     A
C705   O727    1.302   .     A
C705   C707    1.480   .     S
C705   O726    1.301   .     A
C708   Cl740   1.765   .     S
C708   C709    1.407   .     A
C709   C152    1.421   1_556 S
C709   Cl185   1.770   1_556 S
C710   O741    1.382   .     S
Cu711  O720    1.974   .     S
Cu711  O724    1.968   .     S
Cu711  N718    2.019   .     S
Cu711  Cu712   2.687   .     S
Cu711  O722    1.946   .     S
Cu711  O726    1.944   .     S
Cu712  O727    1.946   .     S
Cu712  O723    1.944   .     S
Cu712  O721    1.968   .     S
Cu712  O725    1.974   .     S
Cu712  N719    2.019   .     S
H716   C148    1.083   1_556 S
O728   H729    0.992   .     S
O730   H731    0.992   .     S
O732   H733    0.990   .     S
O736   H737    0.988   .     S
O738   H739    0.991   .     S
O741   H742    0.988   .     S
C745   C761    1.457   .     S
C745   O782    1.294   .     A
C745   O783    1.296   .     A
C746   C747    1.410   .     A
C746   C190    1.430   1_556 S
C746   C214    1.425   1_556 S
C747   C754    1.414   .     A
C747   C751    1.410   .     A
C748   C752    1.410   .     A
C749   C750    1.399   .     A
C749   C190    1.421   1_556 S
C749   C210    1.402   1_556 S
C750   O798    1.378   .     S
C750   C751    1.397   .     A
C751   Cl806   1.774   .     S
C752   O800    1.382   .     S
C752   C769    1.418   .     A
C753   O790    1.383   .     S
C753   C769    1.410   .     A
C753   C768    1.397   .     A
C754   C770    1.402   .     A
C754   C756    1.494   .     S
C755   H779    1.084   .     S
C755   C761    1.399   .     A
C755   C943    1.391   .     S
C756   O784    1.314   .     A
C756   O785    1.296   .     A
C757   O792    1.381   .     S
C757   C758    1.410   .     A
C758   C766    1.458   .     S
C758   C759    1.401   .     A
C759   H775    1.084   .     S
C760   O794    1.377   .     S
C760   C761    1.415   .     A
C760   C945    1.385   .     S
C762   Cl796   1.756   .     S
C762   N781    1.378   .     A
C762   C825    1.415   .     S
C763   N780    1.361   .     A
C763   H776    1.081   .     S
C763   C886    1.415   1_455 S
C764   H777    1.082   .     S
C764   N780    1.361   .     A
C764   C889    1.414   1_455 S
C765   Cl797   1.753   .     S
C765   N781    1.378   .     A
C765   C826    1.414   .     S
C766   O787    1.294   .     A
C766   O786    1.298   .     A
C767   O789    1.302   .     A
C767   C769    1.480   .     S
C767   O788    1.301   .     A
C770   Cl802   1.765   .     S
C770   C771    1.407   .     A
C771   C214    1.421   1_556 S
C771   Cl247   1.770   1_556 S
C772   O803    1.382   .     S
Cu773  O782    1.974   .     S
Cu773  O786    1.968   .     S
Cu773  N780    2.019   .     S
Cu773  Cu774   2.687   .     S
Cu773  O784    1.946   .     S
Cu773  O788    1.944   .     S
Cu774  O789    1.946   .     S
Cu774  O785    1.944   .     S
Cu774  O783    1.968   .     S
Cu774  O787    1.974   .     S
Cu774  N781    2.019   .     S
H778   C210    1.083   1_556 S
O790   H791    0.992   .     S
O792   H793    0.992   .     S
O794   H795    0.990   .     S
O798   H799    0.988   .     S
O800   H801    0.991   .     S
O803   H804    0.988   .     S
C807   C823    1.457   .     S
C807   O844    1.294   .     A
C807   O845    1.296   .     A
C808   C809    1.410   .     A
C808   C252    1.430   1_556 S
C808   C276    1.425   1_556 S
C809   C816    1.414   .     A
C809   C813    1.410   .     A
C810   C814    1.410   .     A
C811   C812    1.399   .     A
C811   C252    1.421   1_556 S
C811   C272    1.402   1_556 S
C812   O860    1.378   .     S
C812   C813    1.397   .     A
C813   Cl868   1.774   .     S
C814   O862    1.382   .     S
C814   C831    1.418   .     A
C815   O852    1.383   .     S
C815   C831    1.410   .     A
C815   C830    1.397   .     A
C816   C832    1.402   .     A
C816   C818    1.494   .     S
C817   H841    1.084   .     S
C817   C823    1.399   .     A
C817   C1005   1.391   .     S
C818   O846    1.314   .     A
C818   O847    1.296   .     A
C819   O854    1.381   .     S
C819   C820    1.410   .     A
C820   C828    1.458   .     S
C820   C821    1.401   .     A
C821   H837    1.084   .     S
C822   O856    1.377   .     S
C822   C823    1.415   .     A
C822   C1007   1.385   .     S
C824   Cl858   1.756   .     S
C824   N843    1.378   .     A
C824   C887    1.415   .     S
C825   N842    1.361   .     A
C825   H838    1.081   .     S
C826   H839    1.082   .     S
C826   N842    1.361   .     A
C827   Cl859   1.753   .     S
C827   N843    1.378   .     A
C827   C888    1.414   .     S
C828   O849    1.294   .     A
C828   O848    1.298   .     A
C829   O851    1.302   .     A
C829   C831    1.480   .     S
C829   O850    1.301   .     A
C832   Cl864   1.765   .     S
C832   C833    1.407   .     A
C833   C276    1.421   1_556 S
C833   Cl309   1.770   1_556 S
C834   O865    1.382   .     S
Cu835  O844    1.974   .     S
Cu835  O848    1.968   .     S
Cu835  N842    2.019   .     S
Cu835  Cu836   2.687   .     S
Cu835  O846    1.946   .     S
Cu835  O850    1.944   .     S
Cu836  O851    1.946   .     S
Cu836  O847    1.944   .     S
Cu836  O845    1.968   .     S
Cu836  O849    1.974   .     S
Cu836  N843    2.019   .     S
H840   C272    1.083   1_556 S
O852   H853    0.992   .     S
O854   H855    0.992   .     S
O856   H857    0.990   .     S
O860   H861    0.988   .     S
O862   H863    0.991   .     S
O865   H866    0.988   .     S
C869   C885    1.457   .     S
C869   O906    1.294   .     A
C869   O907    1.296   .     A
C870   C871    1.410   .     A
C870   C314    1.430   1_556 S
C870   C338    1.425   1_556 S
C871   C878    1.414   .     A
C871   C875    1.410   .     A
C872   C876    1.410   .     A
C873   C874    1.399   .     A
C873   C314    1.421   1_556 S
C873   C334    1.402   1_556 S
C874   O922    1.378   .     S
C874   C875    1.397   .     A
C875   Cl930   1.774   .     S
C876   O924    1.382   .     S
C876   C893    1.418   .     A
C877   O914    1.383   .     S
C877   C893    1.410   .     A
C877   C892    1.397   .     A
C878   C894    1.402   .     A
C878   C880    1.494   .     S
C879   H903    1.084   .     S
C879   C885    1.399   .     A
C879   C1067   1.391   .     S
C880   O908    1.314   .     A
C880   O909    1.296   .     A
C881   O916    1.381   .     S
C881   C882    1.410   .     A
C882   C890    1.458   .     S
C882   C883    1.401   .     A
C883   H899    1.084   .     S
C884   O918    1.377   .     S
C884   C885    1.415   .     A
C884   C1069   1.385   .     S
C886   Cl920   1.756   .     S
C886   N905    1.378   .     A
C886   C763    1.415   1_655 S
C887   N904    1.361   .     A
C887   H900    1.081   .     S
C888   H901    1.082   .     S
C888   N904    1.361   .     A
C889   Cl921   1.753   .     S
C889   N905    1.378   .     A
C889   C764    1.414   1_655 S
C890   O911    1.294   .     A
C890   O910    1.298   .     A
C891   O913    1.302   .     A
C891   C893    1.480   .     S
C891   O912    1.301   .     A
C894   Cl926   1.765   .     S
C894   C895    1.407   .     A
C895   C338    1.421   1_556 S
C895   Cl371   1.770   1_556 S
C896   O927    1.382   .     S
Cu897  O906    1.974   .     S
Cu897  O910    1.968   .     S
Cu897  N904    2.019   .     S
Cu897  Cu898   2.687   .     S
Cu897  O908    1.946   .     S
Cu897  O912    1.944   .     S
Cu898  O913    1.946   .     S
Cu898  O909    1.944   .     S
Cu898  O907    1.968   .     S
Cu898  O911    1.974   .     S
Cu898  N905    2.019   .     S
H902   C334    1.083   1_556 S
O914   H915    0.992   .     S
O916   H917    0.992   .     S
O918   H919    0.990   .     S
O922   H923    0.988   .     S
O924   H925    0.991   .     S
O927   H928    0.988   .     S
C931   C947    1.457   .     S
C931   O968    1.294   .     A
C931   O969    1.296   .     A
C932   C933    1.410   .     A
C932   C376    1.430   1_556 S
C932   C400    1.425   1_556 S
C933   C940    1.414   .     A
C933   C937    1.410   .     A
C934   C938    1.410   .     A
C935   C936    1.399   .     A
C935   C376    1.421   1_556 S
C935   C396    1.402   1_556 S
C936   O984    1.378   .     S
C936   C937    1.397   .     A
C937   Cl992   1.774   .     S
C938   O986    1.382   .     S
C938   C955    1.418   .     A
C939   O976    1.383   .     S
C939   C955    1.410   .     A
C939   C954    1.397   .     A
C940   C956    1.402   .     A
C940   C942    1.494   .     S
C941   H965    1.084   .     S
C941   C947    1.399   .     A
C941   C571    1.391   1_565 S
C942   O970    1.314   .     A
C942   O971    1.296   .     A
C943   O978    1.381   .     S
C943   C944    1.410   .     A
C944   C952    1.458   .     S
C944   C945    1.401   .     A
C945   H961    1.084   .     S
C946   O980    1.377   .     S
C946   C947    1.415   .     A
C946   C573    1.385   1_565 S
C948   Cl982   1.756   .     S
C948   N967    1.378   .     A
C948   C1011   1.415   .     S
C949   N966    1.361   .     A
C949   H962    1.081   .     S
C949   C1072   1.415   1_455 S
C950   H963    1.082   .     S
C950   N966    1.361   .     A
C950   C1075   1.414   1_455 S
C951   Cl983   1.753   .     S
C951   N967    1.378   .     A
C951   C1012   1.414   .     S
C952   O973    1.294   .     A
C952   O972    1.298   .     A
C953   O975    1.302   .     A
C953   C955    1.480   .     S
C953   O974    1.301   .     A
C956   Cl988   1.765   .     S
C956   C957    1.407   .     A
C957   C400    1.421   1_556 S
C957   Cl433   1.770   1_556 S
C958   O989    1.382   .     S
Cu959  O968    1.974   .     S
Cu959  O972    1.968   .     S
Cu959  N966    2.019   .     S
Cu959  Cu960   2.687   .     S
Cu959  O970    1.946   .     S
Cu959  O974    1.944   .     S
Cu960  O975    1.946   .     S
Cu960  O971    1.944   .     S
Cu960  O969    1.968   .     S
Cu960  O973    1.974   .     S
Cu960  N967    2.019   .     S
H964   C396    1.083   1_556 S
O976   H977    0.992   .     S
O978   H979    0.992   .     S
O980   H981    0.990   .     S
O984   H985    0.988   .     S
O986   H987    0.991   .     S
O989   H990    0.988   .     S
C993   C1009   1.457   .     S
C993   O1030   1.294   .     A
C993   O1031   1.296   .     A
C994   C995    1.410   .     A
C994   C438    1.430   1_556 S
C994   C462    1.425   1_556 S
C995   C1002   1.414   .     A
C995   C999    1.410   .     A
C996   C1000   1.410   .     A
C997   C998    1.399   .     A
C997   C438    1.421   1_556 S
C997   C458    1.402   1_556 S
C998   O1046   1.378   .     S
C998   C999    1.397   .     A
C999   Cl1054  1.774   .     S
C1000  O1048   1.382   .     S
C1000  C1017   1.418   .     A
C1001  O1038   1.383   .     S
C1001  C1017   1.410   .     A
C1001  C1016   1.397   .     A
C1002  C1018   1.402   .     A
C1002  C1004   1.494   .     S
C1003  H1027   1.084   .     S
C1003  C1009   1.399   .     A
C1003  C633    1.391   1_565 S
C1004  O1032   1.314   .     A
C1004  O1033   1.296   .     A
C1005  O1040   1.381   .     S
C1005  C1006   1.410   .     A
C1006  C1014   1.458   .     S
C1006  C1007   1.401   .     A
C1007  H1023   1.084   .     S
C1008  O1042   1.377   .     S
C1008  C1009   1.415   .     A
C1008  C635    1.385   1_565 S
C1010  Cl1044  1.756   .     S
C1010  N1029   1.378   .     A
C1010  C1073   1.415   .     S
C1011  N1028   1.361   .     A
C1011  H1024   1.081   .     S
C1012  H1025   1.082   .     S
C1012  N1028   1.361   .     A
C1013  Cl1045  1.753   .     S
C1013  N1029   1.378   .     A
C1013  C1074   1.414   .     S
C1014  O1035   1.294   .     A
C1014  O1034   1.298   .     A
C1015  O1037   1.302   .     A
C1015  C1017   1.480   .     S
C1015  O1036   1.301   .     A
C1018  Cl1050  1.765   .     S
C1018  C1019   1.407   .     A
C1019  C462    1.421   1_556 S
C1019  Cl495   1.770   1_556 S
C1020  O1051   1.382   .     S
Cu1021 O1030   1.974   .     S
Cu1021 O1034   1.968   .     S
Cu1021 N1028   2.019   .     S
Cu1021 Cu1022  2.687   .     S
Cu1021 O1032   1.946   .     S
Cu1021 O1036   1.944   .     S
Cu1022 O1037   1.946   .     S
Cu1022 O1033   1.944   .     S
Cu1022 O1031   1.968   .     S
Cu1022 O1035   1.974   .     S
Cu1022 N1029   2.019   .     S
H1026  C458    1.083   1_556 S
O1038  H1039   0.992   .     S
O1040  H1041   0.992   .     S
O1042  H1043   0.990   .     S
O1046  H1047   0.988   .     S
O1048  H1049   0.991   .     S
O1051  H1052   0.988   .     S
C1055  C1071   1.457   .     S
C1055  O1092   1.294   .     A
C1055  O1093   1.296   .     A
C1056  C1057   1.410   .     A
C1056  C500    1.430   1_556 S
C1056  C524    1.425   1_556 S
C1057  C1064   1.414   .     A
C1057  C1061   1.410   .     A
C1058  C1062   1.410   .     A
C1059  C1060   1.399   .     A
C1059  C500    1.421   1_556 S
C1059  C520    1.402   1_556 S
C1060  O1108   1.378   .     S
C1060  C1061   1.397   .     A
C1061  Cl1116  1.774   .     S
C1062  O1110   1.382   .     S
C1062  C1079   1.418   .     A
C1063  O1100   1.383   .     S
C1063  C1079   1.410   .     A
C1063  C1078   1.397   .     A
C1064  C1080   1.402   .     A
C1064  C1066   1.494   .     S
C1065  H1089   1.084   .     S
C1065  C1071   1.399   .     A
C1065  C695    1.391   1_565 S
C1066  O1094   1.314   .     A
C1066  O1095   1.296   .     A
C1067  O1102   1.381   .     S
C1067  C1068   1.410   .     A
C1068  C1076   1.458   .     S
C1068  C1069   1.401   .     A
C1069  H1085   1.084   .     S
C1070  O1104   1.377   .     S
C1070  C1071   1.415   .     A
C1070  C697    1.385   1_565 S
C1072  Cl1106  1.756   .     S
C1072  N1091   1.378   .     A
C1072  C949    1.415   1_655 S
C1073  N1090   1.361   .     A
C1073  H1086   1.081   .     S
C1074  H1087   1.082   .     S
C1074  N1090   1.361   .     A
C1075  Cl1107  1.753   .     S
C1075  N1091   1.378   .     A
C1075  C950    1.414   1_655 S
C1076  O1097   1.294   .     A
C1076  O1096   1.298   .     A
C1077  O1099   1.302   .     A
C1077  C1079   1.480   .     S
C1077  O1098   1.301   .     A
C1080  Cl1112  1.765   .     S
C1080  C1081   1.407   .     A
C1081  C524    1.421   1_556 S
C1081  Cl557   1.770   1_556 S
C1082  O1113   1.382   .     S
Cu1083 O1092   1.974   .     S
Cu1083 O1096   1.968   .     S
Cu1083 N1090   2.019   .     S
Cu1083 Cu1084  2.687   .     S
Cu1083 O1094   1.946   .     S
Cu1083 O1098   1.944   .     S
Cu1084 O1099   1.946   .     S
Cu1084 O1095   1.944   .     S
Cu1084 O1093   1.968   .     S
Cu1084 O1097   1.974   .     S
Cu1084 N1091   2.019   .     S
H1088  C520    1.083   1_556 S
O1100  H1101   0.992   .     S
O1102  H1103   0.992   .     S
O1104  H1105   0.990   .     S
O1108  H1109   0.988   .     S
O1110  H1111   0.991   .     S
O1113  H1114   0.988   .     S
