data_str_m3_o1_o1_pcu_sym.44
_audit_creation_date              2020-01-03
_audit_creation_method            'Materials Studio'
_symmetry_space_group_name_H-M    'P1'
_symmetry_Int_Tables_number       1
_symmetry_cell_setting            triclinic
loop_
_symmetry_equiv_pos_as_xyz
  x,y,z
_cell_length_a                    30.9124
_cell_length_b                    29.4636
_cell_length_c                    29.9612
_cell_angle_alpha                 90.5813
_cell_angle_beta                  89.2385
_cell_angle_gamma                 90.2831
loop_
_atom_site_label
_atom_site_type_symbol
_atom_site_fract_x
_atom_site_fract_y
_atom_site_fract_z
_atom_site_U_iso_or_equiv
_atom_site_adp_type
_atom_site_occupancy
C1     C     0.06008   0.19040   0.16627   0.00000  Uiso   1.00
C2     C     0.49560   0.21031   0.30938   0.00000  Uiso   1.00
C3     C     0.49563   0.21033   0.02332   0.00000  Uiso   1.00
C4     C     0.00437   0.28967   0.31001   0.00000  Uiso   1.00
C5     C     0.25440   0.03969   0.02395   0.00000  Uiso   1.00
C6     C     0.24560   0.46031   0.30938   0.00000  Uiso   1.00
C7     C     0.24563   0.46033   0.02332   0.00000  Uiso   1.00
C8     C     0.25437   0.03967   0.31001   0.00000  Uiso   1.00
C9     C     0.41674   0.11360   0.15056   0.00000  Uiso   1.00
C10    C     0.08326   0.38641   0.18277   0.00000  Uiso   1.00
C11    C     0.13444   0.33128   0.14912   0.00000  Uiso   1.00
C12    C     0.43992   0.30960   0.16706   0.00000  Uiso   1.00
C13    C     0.36556   0.16872   0.18421   0.00000  Uiso   1.00
C14    C     0.12937   0.16404   0.19427   0.00000  Uiso   1.00
C15    C     0.37063   0.33596   0.13907   0.00000  Uiso   1.00
C16    C     0.40996   0.37979   0.19635   0.00000  Uiso   1.00
C17    C     0.09004   0.12021   0.13698   0.00000  Uiso   1.00
C18    C     0.16674   0.36360   0.15056   0.00000  Uiso   1.00
C19    C     0.33326   0.13641   0.18277   0.00000  Uiso   1.00
C20    C     0.38444   0.08128   0.14912   0.00000  Uiso   1.00
C21    C     0.11556   0.41872   0.18421   0.00000  Uiso   1.00
C22    C     0.37937   0.41404   0.19427   0.00000  Uiso   1.00
C23    C     0.43991   0.19059   0.16682   0.00000  Uiso   1.00
C24    C     0.12063   0.08596   0.13907   0.00000  Uiso   1.00
C25    C     0.15996   0.12979   0.19635   0.00000  Uiso   1.00
C26    C     0.34004   0.37021   0.13698   0.00000  Uiso   1.00
C27    C     0.09299   0.34276   0.16590   0.00000  Uiso   1.00
C28    C     0.40701   0.15724   0.16743   0.00000  Uiso   1.00
C29    C     0.40581   0.34181   0.16804   0.00000  Uiso   1.00
C30    C     0.09419   0.15819   0.16529   0.00000  Uiso   1.00
C31    C     0.34299   0.09276   0.16590   0.00000  Uiso   1.00
C32    C     0.15701   0.40724   0.16743   0.00000  Uiso   1.00
C33    C     0.15581   0.09181   0.16804   0.00000  Uiso   1.00
C34    C     0.06009   0.30941   0.16652   0.00000  Uiso   1.00
C35    C     0.34419   0.40819   0.16529   0.00000  Uiso   1.00
C36    C     0.31008   0.44040   0.16627   0.00000  Uiso   1.00
C37    C     0.18992   0.05960   0.16706   0.00000  Uiso   1.00
C38    C     0.18991   0.44059   0.16682   0.00000  Uiso   1.00
C39    C     0.31009   0.05941   0.16652   0.00000  Uiso   1.00
C40    C     0.00440   0.28969   0.02395   0.00000  Uiso   1.00
H41    H     0.00058   0.32794   0.07637   0.00000  Uiso   1.00
H42    H     0.02042   0.37870   0.18452   0.00000  Uiso   1.00
H43    H     0.12089   0.26745   0.13444   0.00000  Uiso   1.00
H44    H     0.37911   0.23255   0.19890   0.00000  Uiso   1.00
H45    H     0.12140   0.22888   0.20558   0.00000  Uiso   1.00
H46    H     0.37860   0.27112   0.12775   0.00000  Uiso   1.00
H47    H     0.44339   0.41068   0.24320   0.00000  Uiso   1.00
H48    H     0.05661   0.08932   0.09014   0.00000  Uiso   1.00
H49    H     0.22958   0.37130   0.14881   0.00000  Uiso   1.00
H50    H     0.27042   0.12870   0.18452   0.00000  Uiso   1.00
H51    H     0.37089   0.01745   0.13444   0.00000  Uiso   1.00
H52    H     0.49942   0.17206   0.25696   0.00000  Uiso   1.00
H53    H     0.12911   0.48255   0.19890   0.00000  Uiso   1.00
H54    H     0.37140   0.47888   0.20558   0.00000  Uiso   1.00
H55    H     0.12860   0.02112   0.12775   0.00000  Uiso   1.00
H56    H     0.19339   0.16068   0.24320   0.00000  Uiso   1.00
H57    H     0.30661   0.33932   0.09014   0.00000  Uiso   1.00
H58    H     0.49986   0.17259   0.07492   0.00000  Uiso   1.00
H59    H     0.00014   0.32741   0.25842   0.00000  Uiso   1.00
H60    H     0.25058   0.07794   0.07637   0.00000  Uiso   1.00
H61    H     0.24942   0.42206   0.25696   0.00000  Uiso   1.00
H62    H     0.24986   0.42259   0.07492   0.00000  Uiso   1.00
H63    H     0.25014   0.07741   0.25842   0.00000  Uiso   1.00
H64    H     0.47958   0.12130   0.14881   0.00000  Uiso   1.00
N65    N    -0.00000   0.25000   0.28573   0.00000  Uiso   1.00
N66    N    -0.00000   0.25000   0.04760   0.00000  Uiso   1.00
N67    N     0.25000   0.00000   0.28573   0.00000  Uiso   1.00
N68    N     0.25000   0.00000   0.04760   0.00000  Uiso   1.00
O69    O     0.04580   0.20419   0.20487   0.00000  Uiso   1.00
O70    O     0.20419   0.04581   0.12846   0.00000  Uiso   1.00
O71    O     0.20419   0.04581   0.20487   0.00000  Uiso   1.00
O72    O     0.29580   0.45419   0.12846   0.00000  Uiso   1.00
O73    O     0.20419   0.45419   0.12846   0.00000  Uiso   1.00
O74    O     0.29580   0.04581   0.20487   0.00000  Uiso   1.00
O75    O     0.29580   0.04581   0.12846   0.00000  Uiso   1.00
O76    O     0.20419   0.45419   0.20487   0.00000  Uiso   1.00
O77    O     0.00858   0.33125   0.04484   0.00000  Uiso   1.00
O78    O     0.49142   0.16875   0.28850   0.00000  Uiso   1.00
O79    O     0.49163   0.16888   0.04364   0.00000  Uiso   1.00
O80    O     0.45419   0.29581   0.12846   0.00000  Uiso   1.00
O81    O     0.00837   0.33112   0.28969   0.00000  Uiso   1.00
O82    O     0.25858   0.08125   0.04484   0.00000  Uiso   1.00
O83    O     0.24142   0.41875   0.28850   0.00000  Uiso   1.00
O84    O     0.24163   0.41888   0.04364   0.00000  Uiso   1.00
O85    O     0.25837   0.08112   0.28969   0.00000  Uiso   1.00
O86    O     0.45756   0.10083   0.13580   0.00000  Uiso   1.00
O87    O     0.04244   0.39917   0.19753   0.00000  Uiso   1.00
O88    O     0.14550   0.28880   0.13236   0.00000  Uiso   1.00
O89    O     0.35450   0.21120   0.20097   0.00000  Uiso   1.00
O90    O     0.13511   0.20274   0.22015   0.00000  Uiso   1.00
O91    O     0.45419   0.29581   0.20487   0.00000  Uiso   1.00
O92    O     0.36489   0.29726   0.11319   0.00000  Uiso   1.00
O93    O     0.44536   0.38319   0.22405   0.00000  Uiso   1.00
O94    O     0.05464   0.11681   0.10928   0.00000  Uiso   1.00
O95    O     0.20756   0.35083   0.13580   0.00000  Uiso   1.00
O96    O     0.29244   0.14917   0.19753   0.00000  Uiso   1.00
O97    O     0.39550   0.03880   0.13236   0.00000  Uiso   1.00
O98    O     0.10450   0.46120   0.20097   0.00000  Uiso   1.00
O99    O     0.38511   0.45274   0.22015   0.00000  Uiso   1.00
O100   O     0.11489   0.04726   0.11319   0.00000  Uiso   1.00
O101   O     0.19536   0.13319   0.22405   0.00000  Uiso   1.00
O102   O     0.04580   0.20419   0.12846   0.00000  Uiso   1.00
O103   O     0.30464   0.36681   0.10928   0.00000  Uiso   1.00
O104   O     0.45419   0.20419   0.12846   0.00000  Uiso   1.00
O105   O     0.04580   0.29581   0.20487   0.00000  Uiso   1.00
O106   O     0.04580   0.29581   0.12846   0.00000  Uiso   1.00
O107   O     0.45419   0.20419   0.20487   0.00000  Uiso   1.00
O108   O     0.29580   0.45419   0.20487   0.00000  Uiso   1.00
Zn109  Zn   -0.00000   0.25000   0.21771   0.00000  Uiso   1.00
Zn110  Zn    0.00000   0.25000   0.11563   0.00000  Uiso   1.00
Zn111  Zn    0.25000   0.00000   0.21771   0.00000  Uiso   1.00
Zn112  Zn    0.25000   0.00000   0.11563   0.00000  Uiso   1.00
C113   C     0.56008   0.19040   0.16627   0.00000  Uiso   1.00
C114   C     0.99560   0.21031   0.30938   0.00000  Uiso   1.00
C115   C     0.99563   0.21033   0.02332   0.00000  Uiso   1.00
C116   C     0.50437   0.28967   0.31001   0.00000  Uiso   1.00
C117   C     0.75440   0.03969   0.02395   0.00000  Uiso   1.00
C118   C     0.74560   0.46031   0.30938   0.00000  Uiso   1.00
C119   C     0.74563   0.46033   0.02332   0.00000  Uiso   1.00
C120   C     0.75437   0.03967   0.31001   0.00000  Uiso   1.00
C121   C     0.91674   0.11360   0.15056   0.00000  Uiso   1.00
C122   C     0.58326   0.38641   0.18277   0.00000  Uiso   1.00
C123   C     0.63444   0.33128   0.14912   0.00000  Uiso   1.00
C124   C     0.93992   0.30960   0.16706   0.00000  Uiso   1.00
C125   C     0.86556   0.16872   0.18421   0.00000  Uiso   1.00
C126   C     0.62937   0.16404   0.19427   0.00000  Uiso   1.00
C127   C     0.87063   0.33596   0.13907   0.00000  Uiso   1.00
C128   C     0.90996   0.37979   0.19635   0.00000  Uiso   1.00
C129   C     0.59004   0.12021   0.13698   0.00000  Uiso   1.00
C130   C     0.66674   0.36360   0.15056   0.00000  Uiso   1.00
C131   C     0.83326   0.13641   0.18277   0.00000  Uiso   1.00
C132   C     0.88444   0.08128   0.14912   0.00000  Uiso   1.00
C133   C     0.61556   0.41872   0.18421   0.00000  Uiso   1.00
C134   C     0.87937   0.41404   0.19427   0.00000  Uiso   1.00
C135   C     0.93991   0.19059   0.16682   0.00000  Uiso   1.00
C136   C     0.62063   0.08596   0.13907   0.00000  Uiso   1.00
C137   C     0.65996   0.12979   0.19635   0.00000  Uiso   1.00
C138   C     0.84004   0.37021   0.13698   0.00000  Uiso   1.00
C139   C     0.59299   0.34276   0.16590   0.00000  Uiso   1.00
C140   C     0.90701   0.15724   0.16743   0.00000  Uiso   1.00
C141   C     0.90581   0.34181   0.16804   0.00000  Uiso   1.00
C142   C     0.59419   0.15819   0.16529   0.00000  Uiso   1.00
C143   C     0.84299   0.09276   0.16590   0.00000  Uiso   1.00
C144   C     0.65701   0.40724   0.16743   0.00000  Uiso   1.00
C145   C     0.65581   0.09181   0.16804   0.00000  Uiso   1.00
C146   C     0.56009   0.30941   0.16652   0.00000  Uiso   1.00
C147   C     0.84419   0.40819   0.16529   0.00000  Uiso   1.00
C148   C     0.81008   0.44040   0.16627   0.00000  Uiso   1.00
C149   C     0.68992   0.05960   0.16706   0.00000  Uiso   1.00
C150   C     0.68991   0.44059   0.16682   0.00000  Uiso   1.00
C151   C     0.81009   0.05941   0.16652   0.00000  Uiso   1.00
C152   C     0.50440   0.28969   0.02395   0.00000  Uiso   1.00
H153   H     0.50058   0.32794   0.07637   0.00000  Uiso   1.00
H154   H     0.52042   0.37870   0.18452   0.00000  Uiso   1.00
H155   H     0.62089   0.26745   0.13444   0.00000  Uiso   1.00
H156   H     0.87911   0.23255   0.19890   0.00000  Uiso   1.00
H157   H     0.62140   0.22888   0.20558   0.00000  Uiso   1.00
H158   H     0.87860   0.27112   0.12775   0.00000  Uiso   1.00
H159   H     0.94339   0.41068   0.24320   0.00000  Uiso   1.00
H160   H     0.55661   0.08932   0.09014   0.00000  Uiso   1.00
H161   H     0.72958   0.37130   0.14881   0.00000  Uiso   1.00
H162   H     0.77042   0.12870   0.18452   0.00000  Uiso   1.00
H163   H     0.87089   0.01745   0.13444   0.00000  Uiso   1.00
H164   H     0.99942   0.17206   0.25696   0.00000  Uiso   1.00
H165   H     0.62911   0.48255   0.19890   0.00000  Uiso   1.00
H166   H     0.87140   0.47888   0.20558   0.00000  Uiso   1.00
H167   H     0.62860   0.02112   0.12775   0.00000  Uiso   1.00
H168   H     0.69339   0.16068   0.24320   0.00000  Uiso   1.00
H169   H     0.80661   0.33932   0.09014   0.00000  Uiso   1.00
H170   H     0.99986   0.17259   0.07492   0.00000  Uiso   1.00
H171   H     0.50014   0.32741   0.25842   0.00000  Uiso   1.00
H172   H     0.75058   0.07794   0.07637   0.00000  Uiso   1.00
H173   H     0.74942   0.42206   0.25696   0.00000  Uiso   1.00
H174   H     0.74986   0.42259   0.07492   0.00000  Uiso   1.00
H175   H     0.75014   0.07741   0.25842   0.00000  Uiso   1.00
H176   H     0.97958   0.12130   0.14881   0.00000  Uiso   1.00
N177   N     0.50000   0.25000   0.28573   0.00000  Uiso   1.00
N178   N     0.50000   0.25000   0.04760   0.00000  Uiso   1.00
N179   N     0.75000   0.00000   0.28573   0.00000  Uiso   1.00
N180   N     0.75000   0.00000   0.04760   0.00000  Uiso   1.00
O181   O     0.54580   0.20419   0.20487   0.00000  Uiso   1.00
O182   O     0.70419   0.04581   0.12846   0.00000  Uiso   1.00
O183   O     0.70419   0.04581   0.20487   0.00000  Uiso   1.00
O184   O     0.79580   0.45419   0.12846   0.00000  Uiso   1.00
O185   O     0.70419   0.45419   0.12846   0.00000  Uiso   1.00
O186   O     0.79580   0.04581   0.20487   0.00000  Uiso   1.00
O187   O     0.79580   0.04581   0.12846   0.00000  Uiso   1.00
O188   O     0.70419   0.45419   0.20487   0.00000  Uiso   1.00
O189   O     0.50858   0.33125   0.04484   0.00000  Uiso   1.00
O190   O     0.99142   0.16875   0.28850   0.00000  Uiso   1.00
O191   O     0.99163   0.16888   0.04364   0.00000  Uiso   1.00
O192   O     0.95419   0.29581   0.12846   0.00000  Uiso   1.00
O193   O     0.50837   0.33112   0.28969   0.00000  Uiso   1.00
O194   O     0.75858   0.08125   0.04484   0.00000  Uiso   1.00
O195   O     0.74142   0.41875   0.28850   0.00000  Uiso   1.00
O196   O     0.74163   0.41888   0.04364   0.00000  Uiso   1.00
O197   O     0.75837   0.08112   0.28969   0.00000  Uiso   1.00
O198   O     0.95756   0.10083   0.13580   0.00000  Uiso   1.00
O199   O     0.54244   0.39917   0.19753   0.00000  Uiso   1.00
O200   O     0.64550   0.28880   0.13236   0.00000  Uiso   1.00
O201   O     0.85450   0.21120   0.20097   0.00000  Uiso   1.00
O202   O     0.63511   0.20274   0.22015   0.00000  Uiso   1.00
O203   O     0.95419   0.29581   0.20487   0.00000  Uiso   1.00
O204   O     0.86489   0.29726   0.11319   0.00000  Uiso   1.00
O205   O     0.94536   0.38319   0.22405   0.00000  Uiso   1.00
O206   O     0.55464   0.11681   0.10928   0.00000  Uiso   1.00
O207   O     0.70756   0.35083   0.13580   0.00000  Uiso   1.00
O208   O     0.79244   0.14917   0.19753   0.00000  Uiso   1.00
O209   O     0.89550   0.03880   0.13236   0.00000  Uiso   1.00
O210   O     0.60450   0.46120   0.20097   0.00000  Uiso   1.00
O211   O     0.88511   0.45274   0.22015   0.00000  Uiso   1.00
O212   O     0.61489   0.04726   0.11319   0.00000  Uiso   1.00
O213   O     0.69536   0.13319   0.22405   0.00000  Uiso   1.00
O214   O     0.54580   0.20419   0.12846   0.00000  Uiso   1.00
O215   O     0.80464   0.36681   0.10928   0.00000  Uiso   1.00
O216   O     0.95419   0.20419   0.12846   0.00000  Uiso   1.00
O217   O     0.54580   0.29581   0.20487   0.00000  Uiso   1.00
O218   O     0.54580   0.29581   0.12846   0.00000  Uiso   1.00
O219   O     0.95419   0.20419   0.20487   0.00000  Uiso   1.00
O220   O     0.79580   0.45419   0.20487   0.00000  Uiso   1.00
Zn221  Zn    0.50000   0.25000   0.21771   0.00000  Uiso   1.00
Zn222  Zn    0.50000   0.25000   0.11563   0.00000  Uiso   1.00
Zn223  Zn    0.75000   0.00000   0.21771   0.00000  Uiso   1.00
Zn224  Zn    0.75000   0.00000   0.11563   0.00000  Uiso   1.00
C225   C     0.06008   0.69040   0.16627   0.00000  Uiso   1.00
C226   C     0.49560   0.71031   0.30938   0.00000  Uiso   1.00
C227   C     0.49563   0.71033   0.02332   0.00000  Uiso   1.00
C228   C     0.00437   0.78967   0.31001   0.00000  Uiso   1.00
C229   C     0.25440   0.53969   0.02395   0.00000  Uiso   1.00
C230   C     0.24560   0.96031   0.30938   0.00000  Uiso   1.00
C231   C     0.24563   0.96033   0.02332   0.00000  Uiso   1.00
C232   C     0.25437   0.53967   0.31001   0.00000  Uiso   1.00
C233   C     0.41674   0.61360   0.15056   0.00000  Uiso   1.00
C234   C     0.08326   0.88641   0.18277   0.00000  Uiso   1.00
C235   C     0.13444   0.83128   0.14912   0.00000  Uiso   1.00
C236   C     0.43992   0.80960   0.16706   0.00000  Uiso   1.00
C237   C     0.36556   0.66872   0.18421   0.00000  Uiso   1.00
C238   C     0.12937   0.66404   0.19427   0.00000  Uiso   1.00
C239   C     0.37063   0.83596   0.13907   0.00000  Uiso   1.00
C240   C     0.40996   0.87979   0.19635   0.00000  Uiso   1.00
C241   C     0.09004   0.62021   0.13698   0.00000  Uiso   1.00
C242   C     0.16674   0.86360   0.15056   0.00000  Uiso   1.00
C243   C     0.33326   0.63641   0.18277   0.00000  Uiso   1.00
C244   C     0.38444   0.58128   0.14912   0.00000  Uiso   1.00
C245   C     0.11556   0.91872   0.18421   0.00000  Uiso   1.00
C246   C     0.37937   0.91404   0.19427   0.00000  Uiso   1.00
C247   C     0.43991   0.69059   0.16682   0.00000  Uiso   1.00
C248   C     0.12063   0.58596   0.13907   0.00000  Uiso   1.00
C249   C     0.15996   0.62979   0.19635   0.00000  Uiso   1.00
C250   C     0.34004   0.87021   0.13698   0.00000  Uiso   1.00
C251   C     0.09299   0.84276   0.16590   0.00000  Uiso   1.00
C252   C     0.40701   0.65724   0.16743   0.00000  Uiso   1.00
C253   C     0.40581   0.84181   0.16804   0.00000  Uiso   1.00
C254   C     0.09419   0.65819   0.16529   0.00000  Uiso   1.00
C255   C     0.34299   0.59276   0.16590   0.00000  Uiso   1.00
C256   C     0.15701   0.90724   0.16743   0.00000  Uiso   1.00
C257   C     0.15581   0.59181   0.16804   0.00000  Uiso   1.00
C258   C     0.06009   0.80941   0.16652   0.00000  Uiso   1.00
C259   C     0.34419   0.90819   0.16529   0.00000  Uiso   1.00
C260   C     0.31008   0.94040   0.16627   0.00000  Uiso   1.00
C261   C     0.18992   0.55960   0.16706   0.00000  Uiso   1.00
C262   C     0.18991   0.94059   0.16682   0.00000  Uiso   1.00
C263   C     0.31009   0.55941   0.16652   0.00000  Uiso   1.00
C264   C     0.00440   0.78969   0.02395   0.00000  Uiso   1.00
H265   H     0.00058   0.82794   0.07637   0.00000  Uiso   1.00
H266   H     0.02042   0.87870   0.18452   0.00000  Uiso   1.00
H267   H     0.12089   0.76745   0.13444   0.00000  Uiso   1.00
H268   H     0.37911   0.73255   0.19890   0.00000  Uiso   1.00
H269   H     0.12140   0.72888   0.20558   0.00000  Uiso   1.00
H270   H     0.37860   0.77112   0.12775   0.00000  Uiso   1.00
H271   H     0.44339   0.91068   0.24320   0.00000  Uiso   1.00
H272   H     0.05661   0.58932   0.09014   0.00000  Uiso   1.00
H273   H     0.22958   0.87130   0.14881   0.00000  Uiso   1.00
H274   H     0.27042   0.62870   0.18452   0.00000  Uiso   1.00
H275   H     0.37089   0.51745   0.13444   0.00000  Uiso   1.00
H276   H     0.49942   0.67206   0.25696   0.00000  Uiso   1.00
H277   H     0.12911   0.98255   0.19890   0.00000  Uiso   1.00
H278   H     0.37140   0.97888   0.20558   0.00000  Uiso   1.00
H279   H     0.12860   0.52112   0.12775   0.00000  Uiso   1.00
H280   H     0.19339   0.66068   0.24320   0.00000  Uiso   1.00
H281   H     0.30661   0.83932   0.09014   0.00000  Uiso   1.00
H282   H     0.49986   0.67259   0.07492   0.00000  Uiso   1.00
H283   H     0.00014   0.82741   0.25842   0.00000  Uiso   1.00
H284   H     0.25058   0.57794   0.07637   0.00000  Uiso   1.00
H285   H     0.24942   0.92206   0.25696   0.00000  Uiso   1.00
H286   H     0.24986   0.92259   0.07492   0.00000  Uiso   1.00
H287   H     0.25014   0.57741   0.25842   0.00000  Uiso   1.00
H288   H     0.47958   0.62130   0.14881   0.00000  Uiso   1.00
N289   N    -0.00000   0.75000   0.28573   0.00000  Uiso   1.00
N290   N    -0.00000   0.75000   0.04760   0.00000  Uiso   1.00
N291   N     0.25000   0.50000   0.28573   0.00000  Uiso   1.00
N292   N     0.25000   0.50000   0.04760   0.00000  Uiso   1.00
O293   O     0.04580   0.70419   0.20487   0.00000  Uiso   1.00
O294   O     0.20419   0.54581   0.12846   0.00000  Uiso   1.00
O295   O     0.20419   0.54581   0.20487   0.00000  Uiso   1.00
O296   O     0.29580   0.95419   0.12846   0.00000  Uiso   1.00
O297   O     0.20419   0.95419   0.12846   0.00000  Uiso   1.00
O298   O     0.29580   0.54581   0.20487   0.00000  Uiso   1.00
O299   O     0.29580   0.54581   0.12846   0.00000  Uiso   1.00
O300   O     0.20419   0.95419   0.20487   0.00000  Uiso   1.00
O301   O     0.00858   0.83125   0.04484   0.00000  Uiso   1.00
O302   O     0.49142   0.66875   0.28850   0.00000  Uiso   1.00
O303   O     0.49163   0.66888   0.04364   0.00000  Uiso   1.00
O304   O     0.45419   0.79581   0.12846   0.00000  Uiso   1.00
O305   O     0.00837   0.83112   0.28969   0.00000  Uiso   1.00
O306   O     0.25858   0.58125   0.04484   0.00000  Uiso   1.00
O307   O     0.24142   0.91875   0.28850   0.00000  Uiso   1.00
O308   O     0.24163   0.91888   0.04364   0.00000  Uiso   1.00
O309   O     0.25837   0.58112   0.28969   0.00000  Uiso   1.00
O310   O     0.45756   0.60083   0.13580   0.00000  Uiso   1.00
O311   O     0.04244   0.89917   0.19753   0.00000  Uiso   1.00
O312   O     0.14550   0.78880   0.13236   0.00000  Uiso   1.00
O313   O     0.35450   0.71120   0.20097   0.00000  Uiso   1.00
O314   O     0.13511   0.70274   0.22015   0.00000  Uiso   1.00
O315   O     0.45419   0.79581   0.20487   0.00000  Uiso   1.00
O316   O     0.36489   0.79726   0.11319   0.00000  Uiso   1.00
O317   O     0.44536   0.88319   0.22405   0.00000  Uiso   1.00
O318   O     0.05464   0.61681   0.10928   0.00000  Uiso   1.00
O319   O     0.20756   0.85083   0.13580   0.00000  Uiso   1.00
O320   O     0.29244   0.64917   0.19753   0.00000  Uiso   1.00
O321   O     0.39550   0.53880   0.13236   0.00000  Uiso   1.00
O322   O     0.10450   0.96120   0.20097   0.00000  Uiso   1.00
O323   O     0.38511   0.95274   0.22015   0.00000  Uiso   1.00
O324   O     0.11489   0.54726   0.11319   0.00000  Uiso   1.00
O325   O     0.19536   0.63319   0.22405   0.00000  Uiso   1.00
O326   O     0.04580   0.70419   0.12846   0.00000  Uiso   1.00
O327   O     0.30464   0.86681   0.10928   0.00000  Uiso   1.00
O328   O     0.45419   0.70419   0.12846   0.00000  Uiso   1.00
O329   O     0.04580   0.79581   0.20487   0.00000  Uiso   1.00
O330   O     0.04580   0.79581   0.12846   0.00000  Uiso   1.00
O331   O     0.45419   0.70419   0.20487   0.00000  Uiso   1.00
O332   O     0.29580   0.95419   0.20487   0.00000  Uiso   1.00
Zn333  Zn   -0.00000   0.75000   0.21771   0.00000  Uiso   1.00
Zn334  Zn    0.00000   0.75000   0.11563   0.00000  Uiso   1.00
Zn335  Zn    0.25000   0.50000   0.21771   0.00000  Uiso   1.00
Zn336  Zn    0.25000   0.50000   0.11563   0.00000  Uiso   1.00
C337   C     0.56008   0.69040   0.16627   0.00000  Uiso   1.00
C338   C     0.99560   0.71031   0.30938   0.00000  Uiso   1.00
C339   C     0.99563   0.71033   0.02332   0.00000  Uiso   1.00
C340   C     0.50437   0.78967   0.31001   0.00000  Uiso   1.00
C341   C     0.75440   0.53969   0.02395   0.00000  Uiso   1.00
C342   C     0.74560   0.96031   0.30938   0.00000  Uiso   1.00
C343   C     0.74563   0.96033   0.02332   0.00000  Uiso   1.00
C344   C     0.75437   0.53967   0.31001   0.00000  Uiso   1.00
C345   C     0.91674   0.61360   0.15056   0.00000  Uiso   1.00
C346   C     0.58326   0.88641   0.18277   0.00000  Uiso   1.00
C347   C     0.63444   0.83128   0.14912   0.00000  Uiso   1.00
C348   C     0.93992   0.80960   0.16706   0.00000  Uiso   1.00
C349   C     0.86556   0.66872   0.18421   0.00000  Uiso   1.00
C350   C     0.62937   0.66404   0.19427   0.00000  Uiso   1.00
C351   C     0.87063   0.83596   0.13907   0.00000  Uiso   1.00
C352   C     0.90996   0.87979   0.19635   0.00000  Uiso   1.00
C353   C     0.59004   0.62021   0.13698   0.00000  Uiso   1.00
C354   C     0.66674   0.86360   0.15056   0.00000  Uiso   1.00
C355   C     0.83326   0.63641   0.18277   0.00000  Uiso   1.00
C356   C     0.88444   0.58128   0.14912   0.00000  Uiso   1.00
C357   C     0.61556   0.91872   0.18421   0.00000  Uiso   1.00
C358   C     0.87937   0.91404   0.19427   0.00000  Uiso   1.00
C359   C     0.93991   0.69059   0.16682   0.00000  Uiso   1.00
C360   C     0.62063   0.58596   0.13907   0.00000  Uiso   1.00
C361   C     0.65996   0.62979   0.19635   0.00000  Uiso   1.00
C362   C     0.84004   0.87021   0.13698   0.00000  Uiso   1.00
C363   C     0.59299   0.84276   0.16590   0.00000  Uiso   1.00
C364   C     0.90701   0.65724   0.16743   0.00000  Uiso   1.00
C365   C     0.90581   0.84181   0.16804   0.00000  Uiso   1.00
C366   C     0.59419   0.65819   0.16529   0.00000  Uiso   1.00
C367   C     0.84299   0.59276   0.16590   0.00000  Uiso   1.00
C368   C     0.65701   0.90724   0.16743   0.00000  Uiso   1.00
C369   C     0.65581   0.59181   0.16804   0.00000  Uiso   1.00
C370   C     0.56009   0.80941   0.16652   0.00000  Uiso   1.00
C371   C     0.84419   0.90819   0.16529   0.00000  Uiso   1.00
C372   C     0.81008   0.94040   0.16627   0.00000  Uiso   1.00
C373   C     0.68992   0.55960   0.16706   0.00000  Uiso   1.00
C374   C     0.68991   0.94059   0.16682   0.00000  Uiso   1.00
C375   C     0.81009   0.55941   0.16652   0.00000  Uiso   1.00
C376   C     0.50440   0.78969   0.02395   0.00000  Uiso   1.00
H377   H     0.50058   0.82794   0.07637   0.00000  Uiso   1.00
H378   H     0.52042   0.87870   0.18452   0.00000  Uiso   1.00
H379   H     0.62089   0.76745   0.13444   0.00000  Uiso   1.00
H380   H     0.87911   0.73255   0.19890   0.00000  Uiso   1.00
H381   H     0.62140   0.72888   0.20558   0.00000  Uiso   1.00
H382   H     0.87860   0.77112   0.12775   0.00000  Uiso   1.00
H383   H     0.94339   0.91068   0.24320   0.00000  Uiso   1.00
H384   H     0.55661   0.58932   0.09014   0.00000  Uiso   1.00
H385   H     0.72958   0.87130   0.14881   0.00000  Uiso   1.00
H386   H     0.77042   0.62870   0.18452   0.00000  Uiso   1.00
H387   H     0.87089   0.51745   0.13444   0.00000  Uiso   1.00
H388   H     0.99942   0.67206   0.25696   0.00000  Uiso   1.00
H389   H     0.62911   0.98255   0.19890   0.00000  Uiso   1.00
H390   H     0.87140   0.97888   0.20558   0.00000  Uiso   1.00
H391   H     0.62860   0.52112   0.12775   0.00000  Uiso   1.00
H392   H     0.69339   0.66068   0.24320   0.00000  Uiso   1.00
H393   H     0.80661   0.83932   0.09014   0.00000  Uiso   1.00
H394   H     0.99986   0.67259   0.07492   0.00000  Uiso   1.00
H395   H     0.50014   0.82741   0.25842   0.00000  Uiso   1.00
H396   H     0.75058   0.57794   0.07637   0.00000  Uiso   1.00
H397   H     0.74942   0.92206   0.25696   0.00000  Uiso   1.00
H398   H     0.74986   0.92259   0.07492   0.00000  Uiso   1.00
H399   H     0.75014   0.57741   0.25842   0.00000  Uiso   1.00
H400   H     0.97958   0.62130   0.14881   0.00000  Uiso   1.00
N401   N     0.50000   0.75000   0.28573   0.00000  Uiso   1.00
N402   N     0.50000   0.75000   0.04760   0.00000  Uiso   1.00
N403   N     0.75000   0.50000   0.28573   0.00000  Uiso   1.00
N404   N     0.75000   0.50000   0.04760   0.00000  Uiso   1.00
O405   O     0.54580   0.70419   0.20487   0.00000  Uiso   1.00
O406   O     0.70419   0.54581   0.12846   0.00000  Uiso   1.00
O407   O     0.70419   0.54581   0.20487   0.00000  Uiso   1.00
O408   O     0.79580   0.95419   0.12846   0.00000  Uiso   1.00
O409   O     0.70419   0.95419   0.12846   0.00000  Uiso   1.00
O410   O     0.79580   0.54581   0.20487   0.00000  Uiso   1.00
O411   O     0.79580   0.54581   0.12846   0.00000  Uiso   1.00
O412   O     0.70419   0.95419   0.20487   0.00000  Uiso   1.00
O413   O     0.50858   0.83125   0.04484   0.00000  Uiso   1.00
O414   O     0.99142   0.66875   0.28850   0.00000  Uiso   1.00
O415   O     0.99163   0.66888   0.04364   0.00000  Uiso   1.00
O416   O     0.95419   0.79581   0.12846   0.00000  Uiso   1.00
O417   O     0.50837   0.83112   0.28969   0.00000  Uiso   1.00
O418   O     0.75858   0.58125   0.04484   0.00000  Uiso   1.00
O419   O     0.74142   0.91875   0.28850   0.00000  Uiso   1.00
O420   O     0.74163   0.91888   0.04364   0.00000  Uiso   1.00
O421   O     0.75837   0.58112   0.28969   0.00000  Uiso   1.00
O422   O     0.95756   0.60083   0.13580   0.00000  Uiso   1.00
O423   O     0.54244   0.89917   0.19753   0.00000  Uiso   1.00
O424   O     0.64550   0.78880   0.13236   0.00000  Uiso   1.00
O425   O     0.85450   0.71120   0.20097   0.00000  Uiso   1.00
O426   O     0.63511   0.70274   0.22015   0.00000  Uiso   1.00
O427   O     0.95419   0.79581   0.20487   0.00000  Uiso   1.00
O428   O     0.86489   0.79726   0.11319   0.00000  Uiso   1.00
O429   O     0.94536   0.88319   0.22405   0.00000  Uiso   1.00
O430   O     0.55464   0.61681   0.10928   0.00000  Uiso   1.00
O431   O     0.70756   0.85083   0.13580   0.00000  Uiso   1.00
O432   O     0.79244   0.64917   0.19753   0.00000  Uiso   1.00
O433   O     0.89550   0.53880   0.13236   0.00000  Uiso   1.00
O434   O     0.60450   0.96120   0.20097   0.00000  Uiso   1.00
O435   O     0.88511   0.95274   0.22015   0.00000  Uiso   1.00
O436   O     0.61489   0.54726   0.11319   0.00000  Uiso   1.00
O437   O     0.69536   0.63319   0.22405   0.00000  Uiso   1.00
O438   O     0.54580   0.70419   0.12846   0.00000  Uiso   1.00
O439   O     0.80464   0.86681   0.10928   0.00000  Uiso   1.00
O440   O     0.95419   0.70419   0.12846   0.00000  Uiso   1.00
O441   O     0.54580   0.79581   0.20487   0.00000  Uiso   1.00
O442   O     0.54580   0.79581   0.12846   0.00000  Uiso   1.00
O443   O     0.95419   0.70419   0.20487   0.00000  Uiso   1.00
O444   O     0.79580   0.95419   0.20487   0.00000  Uiso   1.00
Zn445  Zn    0.50000   0.75000   0.21771   0.00000  Uiso   1.00
Zn446  Zn    0.50000   0.75000   0.11563   0.00000  Uiso   1.00
Zn447  Zn    0.75000   0.50000   0.21771   0.00000  Uiso   1.00
Zn448  Zn    0.75000   0.50000   0.11563   0.00000  Uiso   1.00
C449   C     0.06008   0.19040   0.49961   0.00000  Uiso   1.00
C450   C     0.49560   0.21031   0.64272   0.00000  Uiso   1.00
C451   C     0.49563   0.21033   0.35665   0.00000  Uiso   1.00
C452   C     0.00437   0.28967   0.64335   0.00000  Uiso   1.00
C453   C     0.25440   0.03969   0.35728   0.00000  Uiso   1.00
C454   C     0.24560   0.46031   0.64272   0.00000  Uiso   1.00
C455   C     0.24563   0.46033   0.35665   0.00000  Uiso   1.00
C456   C     0.25437   0.03967   0.64335   0.00000  Uiso   1.00
C457   C     0.41674   0.11360   0.48389   0.00000  Uiso   1.00
C458   C     0.08326   0.38641   0.51611   0.00000  Uiso   1.00
C459   C     0.13444   0.33128   0.48246   0.00000  Uiso   1.00
C460   C     0.43992   0.30960   0.50040   0.00000  Uiso   1.00
C461   C     0.36556   0.16872   0.51754   0.00000  Uiso   1.00
C462   C     0.12937   0.16404   0.52760   0.00000  Uiso   1.00
C463   C     0.37063   0.33596   0.47240   0.00000  Uiso   1.00
C464   C     0.40996   0.37979   0.52969   0.00000  Uiso   1.00
C465   C     0.09004   0.12021   0.47031   0.00000  Uiso   1.00
C466   C     0.16674   0.36360   0.48389   0.00000  Uiso   1.00
C467   C     0.33326   0.13641   0.51611   0.00000  Uiso   1.00
C468   C     0.38444   0.08128   0.48246   0.00000  Uiso   1.00
C469   C     0.11556   0.41872   0.51754   0.00000  Uiso   1.00
C470   C     0.37937   0.41404   0.52760   0.00000  Uiso   1.00
C471   C     0.43991   0.19059   0.50015   0.00000  Uiso   1.00
C472   C     0.12063   0.08596   0.47240   0.00000  Uiso   1.00
C473   C     0.15996   0.12979   0.52969   0.00000  Uiso   1.00
C474   C     0.34004   0.37021   0.47031   0.00000  Uiso   1.00
C475   C     0.09299   0.34276   0.49924   0.00000  Uiso   1.00
C476   C     0.40701   0.15724   0.50076   0.00000  Uiso   1.00
C477   C     0.40581   0.34181   0.50138   0.00000  Uiso   1.00
C478   C     0.09419   0.15819   0.49862   0.00000  Uiso   1.00
C479   C     0.34299   0.09276   0.49924   0.00000  Uiso   1.00
C480   C     0.15701   0.40724   0.50076   0.00000  Uiso   1.00
C481   C     0.15581   0.09181   0.50138   0.00000  Uiso   1.00
C482   C     0.06009   0.30941   0.49985   0.00000  Uiso   1.00
C483   C     0.34419   0.40819   0.49862   0.00000  Uiso   1.00
C484   C     0.31008   0.44040   0.49961   0.00000  Uiso   1.00
C485   C     0.18992   0.05960   0.50040   0.00000  Uiso   1.00
C486   C     0.18991   0.44059   0.50015   0.00000  Uiso   1.00
C487   C     0.31009   0.05941   0.49985   0.00000  Uiso   1.00
C488   C     0.00440   0.28969   0.35728   0.00000  Uiso   1.00
H489   H     0.00058   0.32794   0.40970   0.00000  Uiso   1.00
H490   H     0.02042   0.37870   0.51785   0.00000  Uiso   1.00
H491   H     0.12089   0.26745   0.46777   0.00000  Uiso   1.00
H492   H     0.37911   0.23255   0.53223   0.00000  Uiso   1.00
H493   H     0.12140   0.22888   0.53892   0.00000  Uiso   1.00
H494   H     0.37860   0.27112   0.46108   0.00000  Uiso   1.00
H495   H     0.44339   0.41068   0.57653   0.00000  Uiso   1.00
H496   H     0.05661   0.08932   0.42347   0.00000  Uiso   1.00
H497   H     0.22958   0.37130   0.48215   0.00000  Uiso   1.00
H498   H     0.27042   0.12870   0.51785   0.00000  Uiso   1.00
H499   H     0.37089   0.01745   0.46777   0.00000  Uiso   1.00
H500   H     0.49942   0.17206   0.59030   0.00000  Uiso   1.00
H501   H     0.12911   0.48255   0.53223   0.00000  Uiso   1.00
H502   H     0.37140   0.47888   0.53892   0.00000  Uiso   1.00
H503   H     0.12860   0.02112   0.46108   0.00000  Uiso   1.00
H504   H     0.19339   0.16068   0.57653   0.00000  Uiso   1.00
H505   H     0.30661   0.33932   0.42347   0.00000  Uiso   1.00
H506   H     0.49986   0.17259   0.40825   0.00000  Uiso   1.00
H507   H     0.00014   0.32741   0.59175   0.00000  Uiso   1.00
H508   H     0.25058   0.07794   0.40970   0.00000  Uiso   1.00
H509   H     0.24942   0.42206   0.59030   0.00000  Uiso   1.00
H510   H     0.24986   0.42259   0.40825   0.00000  Uiso   1.00
H511   H     0.25014   0.07741   0.59175   0.00000  Uiso   1.00
H512   H     0.47958   0.12130   0.48215   0.00000  Uiso   1.00
N513   N    -0.00000   0.25000   0.61907   0.00000  Uiso   1.00
N514   N    -0.00000   0.25000   0.38093   0.00000  Uiso   1.00
N515   N     0.25000   0.00000   0.61907   0.00000  Uiso   1.00
N516   N     0.25000   0.00000   0.38093   0.00000  Uiso   1.00
O517   O     0.04580   0.20419   0.53821   0.00000  Uiso   1.00
O518   O     0.20419   0.04581   0.46179   0.00000  Uiso   1.00
O519   O     0.20419   0.04581   0.53821   0.00000  Uiso   1.00
O520   O     0.29580   0.45419   0.46179   0.00000  Uiso   1.00
O521   O     0.20419   0.45419   0.46179   0.00000  Uiso   1.00
O522   O     0.29580   0.04581   0.53821   0.00000  Uiso   1.00
O523   O     0.29580   0.04581   0.46179   0.00000  Uiso   1.00
O524   O     0.20419   0.45419   0.53821   0.00000  Uiso   1.00
O525   O     0.00858   0.33125   0.37817   0.00000  Uiso   1.00
O526   O     0.49142   0.16875   0.62183   0.00000  Uiso   1.00
O527   O     0.49163   0.16888   0.37697   0.00000  Uiso   1.00
O528   O     0.45419   0.29581   0.46179   0.00000  Uiso   1.00
O529   O     0.00837   0.33112   0.62303   0.00000  Uiso   1.00
O530   O     0.25858   0.08125   0.37817   0.00000  Uiso   1.00
O531   O     0.24142   0.41875   0.62183   0.00000  Uiso   1.00
O532   O     0.24163   0.41888   0.37697   0.00000  Uiso   1.00
O533   O     0.25837   0.08112   0.62303   0.00000  Uiso   1.00
O534   O     0.45756   0.10083   0.46914   0.00000  Uiso   1.00
O535   O     0.04244   0.39917   0.53086   0.00000  Uiso   1.00
O536   O     0.14550   0.28880   0.46569   0.00000  Uiso   1.00
O537   O     0.35450   0.21120   0.53431   0.00000  Uiso   1.00
O538   O     0.13511   0.20274   0.55348   0.00000  Uiso   1.00
O539   O     0.45419   0.29581   0.53821   0.00000  Uiso   1.00
O540   O     0.36489   0.29726   0.44652   0.00000  Uiso   1.00
O541   O     0.44536   0.38319   0.55739   0.00000  Uiso   1.00
O542   O     0.05464   0.11681   0.44261   0.00000  Uiso   1.00
O543   O     0.20756   0.35083   0.46914   0.00000  Uiso   1.00
O544   O     0.29244   0.14917   0.53086   0.00000  Uiso   1.00
O545   O     0.39550   0.03880   0.46569   0.00000  Uiso   1.00
O546   O     0.10450   0.46120   0.53431   0.00000  Uiso   1.00
O547   O     0.38511   0.45274   0.55348   0.00000  Uiso   1.00
O548   O     0.11489   0.04726   0.44652   0.00000  Uiso   1.00
O549   O     0.19536   0.13319   0.55739   0.00000  Uiso   1.00
O550   O     0.04580   0.20419   0.46179   0.00000  Uiso   1.00
O551   O     0.30464   0.36681   0.44261   0.00000  Uiso   1.00
O552   O     0.45419   0.20419   0.46179   0.00000  Uiso   1.00
O553   O     0.04580   0.29581   0.53821   0.00000  Uiso   1.00
O554   O     0.04580   0.29581   0.46179   0.00000  Uiso   1.00
O555   O     0.45419   0.20419   0.53821   0.00000  Uiso   1.00
O556   O     0.29580   0.45419   0.53821   0.00000  Uiso   1.00
Zn557  Zn   -0.00000   0.25000   0.55104   0.00000  Uiso   1.00
Zn558  Zn    0.00000   0.25000   0.44896   0.00000  Uiso   1.00
Zn559  Zn    0.25000   0.00000   0.55104   0.00000  Uiso   1.00
Zn560  Zn    0.25000   0.00000   0.44896   0.00000  Uiso   1.00
C561   C     0.56008   0.19040   0.49961   0.00000  Uiso   1.00
C562   C     0.99560   0.21031   0.64272   0.00000  Uiso   1.00
C563   C     0.99563   0.21033   0.35665   0.00000  Uiso   1.00
C564   C     0.50437   0.28967   0.64335   0.00000  Uiso   1.00
C565   C     0.75440   0.03969   0.35728   0.00000  Uiso   1.00
C566   C     0.74560   0.46031   0.64272   0.00000  Uiso   1.00
C567   C     0.74563   0.46033   0.35665   0.00000  Uiso   1.00
C568   C     0.75437   0.03967   0.64335   0.00000  Uiso   1.00
C569   C     0.91674   0.11360   0.48389   0.00000  Uiso   1.00
C570   C     0.58326   0.38641   0.51611   0.00000  Uiso   1.00
C571   C     0.63444   0.33128   0.48246   0.00000  Uiso   1.00
C572   C     0.93992   0.30960   0.50040   0.00000  Uiso   1.00
C573   C     0.86556   0.16872   0.51754   0.00000  Uiso   1.00
C574   C     0.62937   0.16404   0.52760   0.00000  Uiso   1.00
C575   C     0.87063   0.33596   0.47240   0.00000  Uiso   1.00
C576   C     0.90996   0.37979   0.52969   0.00000  Uiso   1.00
C577   C     0.59004   0.12021   0.47031   0.00000  Uiso   1.00
C578   C     0.66674   0.36360   0.48389   0.00000  Uiso   1.00
C579   C     0.83326   0.13641   0.51611   0.00000  Uiso   1.00
C580   C     0.88444   0.08128   0.48246   0.00000  Uiso   1.00
C581   C     0.61556   0.41872   0.51754   0.00000  Uiso   1.00
C582   C     0.87937   0.41404   0.52760   0.00000  Uiso   1.00
C583   C     0.93991   0.19059   0.50015   0.00000  Uiso   1.00
C584   C     0.62063   0.08596   0.47240   0.00000  Uiso   1.00
C585   C     0.65996   0.12979   0.52969   0.00000  Uiso   1.00
C586   C     0.84004   0.37021   0.47031   0.00000  Uiso   1.00
C587   C     0.59299   0.34276   0.49924   0.00000  Uiso   1.00
C588   C     0.90701   0.15724   0.50076   0.00000  Uiso   1.00
C589   C     0.90581   0.34181   0.50138   0.00000  Uiso   1.00
C590   C     0.59419   0.15819   0.49862   0.00000  Uiso   1.00
C591   C     0.84299   0.09276   0.49924   0.00000  Uiso   1.00
C592   C     0.65701   0.40724   0.50076   0.00000  Uiso   1.00
C593   C     0.65581   0.09181   0.50138   0.00000  Uiso   1.00
C594   C     0.56009   0.30941   0.49985   0.00000  Uiso   1.00
C595   C     0.84419   0.40819   0.49862   0.00000  Uiso   1.00
C596   C     0.81008   0.44040   0.49961   0.00000  Uiso   1.00
C597   C     0.68992   0.05960   0.50040   0.00000  Uiso   1.00
C598   C     0.68991   0.44059   0.50015   0.00000  Uiso   1.00
C599   C     0.81009   0.05941   0.49985   0.00000  Uiso   1.00
C600   C     0.50440   0.28969   0.35728   0.00000  Uiso   1.00
H601   H     0.50058   0.32794   0.40970   0.00000  Uiso   1.00
H602   H     0.52042   0.37870   0.51785   0.00000  Uiso   1.00
H603   H     0.62089   0.26745   0.46777   0.00000  Uiso   1.00
H604   H     0.87911   0.23255   0.53223   0.00000  Uiso   1.00
H605   H     0.62140   0.22888   0.53892   0.00000  Uiso   1.00
H606   H     0.87860   0.27112   0.46108   0.00000  Uiso   1.00
H607   H     0.94339   0.41068   0.57653   0.00000  Uiso   1.00
H608   H     0.55661   0.08932   0.42347   0.00000  Uiso   1.00
H609   H     0.72958   0.37130   0.48215   0.00000  Uiso   1.00
H610   H     0.77042   0.12870   0.51785   0.00000  Uiso   1.00
H611   H     0.87089   0.01745   0.46777   0.00000  Uiso   1.00
H612   H     0.99942   0.17206   0.59030   0.00000  Uiso   1.00
H613   H     0.62911   0.48255   0.53223   0.00000  Uiso   1.00
H614   H     0.87140   0.47888   0.53892   0.00000  Uiso   1.00
H615   H     0.62860   0.02112   0.46108   0.00000  Uiso   1.00
H616   H     0.69339   0.16068   0.57653   0.00000  Uiso   1.00
H617   H     0.80661   0.33932   0.42347   0.00000  Uiso   1.00
H618   H     0.99986   0.17259   0.40825   0.00000  Uiso   1.00
H619   H     0.50014   0.32741   0.59175   0.00000  Uiso   1.00
H620   H     0.75058   0.07794   0.40970   0.00000  Uiso   1.00
H621   H     0.74942   0.42206   0.59030   0.00000  Uiso   1.00
H622   H     0.74986   0.42259   0.40825   0.00000  Uiso   1.00
H623   H     0.75014   0.07741   0.59175   0.00000  Uiso   1.00
H624   H     0.97958   0.12130   0.48215   0.00000  Uiso   1.00
N625   N     0.50000   0.25000   0.61907   0.00000  Uiso   1.00
N626   N     0.50000   0.25000   0.38093   0.00000  Uiso   1.00
N627   N     0.75000   0.00000   0.61907   0.00000  Uiso   1.00
N628   N     0.75000   0.00000   0.38093   0.00000  Uiso   1.00
O629   O     0.54580   0.20419   0.53821   0.00000  Uiso   1.00
O630   O     0.70419   0.04581   0.46179   0.00000  Uiso   1.00
O631   O     0.70419   0.04581   0.53821   0.00000  Uiso   1.00
O632   O     0.79580   0.45419   0.46179   0.00000  Uiso   1.00
O633   O     0.70419   0.45419   0.46179   0.00000  Uiso   1.00
O634   O     0.79580   0.04581   0.53821   0.00000  Uiso   1.00
O635   O     0.79580   0.04581   0.46179   0.00000  Uiso   1.00
O636   O     0.70419   0.45419   0.53821   0.00000  Uiso   1.00
O637   O     0.50858   0.33125   0.37817   0.00000  Uiso   1.00
O638   O     0.99142   0.16875   0.62183   0.00000  Uiso   1.00
O639   O     0.99163   0.16888   0.37697   0.00000  Uiso   1.00
O640   O     0.95419   0.29581   0.46179   0.00000  Uiso   1.00
O641   O     0.50837   0.33112   0.62303   0.00000  Uiso   1.00
O642   O     0.75858   0.08125   0.37817   0.00000  Uiso   1.00
O643   O     0.74142   0.41875   0.62183   0.00000  Uiso   1.00
O644   O     0.74163   0.41888   0.37697   0.00000  Uiso   1.00
O645   O     0.75837   0.08112   0.62303   0.00000  Uiso   1.00
O646   O     0.95756   0.10083   0.46914   0.00000  Uiso   1.00
O647   O     0.54244   0.39917   0.53086   0.00000  Uiso   1.00
O648   O     0.64550   0.28880   0.46569   0.00000  Uiso   1.00
O649   O     0.85450   0.21120   0.53431   0.00000  Uiso   1.00
O650   O     0.63511   0.20274   0.55348   0.00000  Uiso   1.00
O651   O     0.95419   0.29581   0.53821   0.00000  Uiso   1.00
O652   O     0.86489   0.29726   0.44652   0.00000  Uiso   1.00
O653   O     0.94536   0.38319   0.55739   0.00000  Uiso   1.00
O654   O     0.55464   0.11681   0.44261   0.00000  Uiso   1.00
O655   O     0.70756   0.35083   0.46914   0.00000  Uiso   1.00
O656   O     0.79244   0.14917   0.53086   0.00000  Uiso   1.00
O657   O     0.89550   0.03880   0.46569   0.00000  Uiso   1.00
O658   O     0.60450   0.46120   0.53431   0.00000  Uiso   1.00
O659   O     0.88511   0.45274   0.55348   0.00000  Uiso   1.00
O660   O     0.61489   0.04726   0.44652   0.00000  Uiso   1.00
O661   O     0.69536   0.13319   0.55739   0.00000  Uiso   1.00
O662   O     0.54580   0.20419   0.46179   0.00000  Uiso   1.00
O663   O     0.80464   0.36681   0.44261   0.00000  Uiso   1.00
O664   O     0.95419   0.20419   0.46179   0.00000  Uiso   1.00
O665   O     0.54580   0.29581   0.53821   0.00000  Uiso   1.00
O666   O     0.54580   0.29581   0.46179   0.00000  Uiso   1.00
O667   O     0.95419   0.20419   0.53821   0.00000  Uiso   1.00
O668   O     0.79580   0.45419   0.53821   0.00000  Uiso   1.00
Zn669  Zn    0.50000   0.25000   0.55104   0.00000  Uiso   1.00
Zn670  Zn    0.50000   0.25000   0.44896   0.00000  Uiso   1.00
Zn671  Zn    0.75000   0.00000   0.55104   0.00000  Uiso   1.00
Zn672  Zn    0.75000   0.00000   0.44896   0.00000  Uiso   1.00
C673   C     0.06008   0.69040   0.49961   0.00000  Uiso   1.00
C674   C     0.49560   0.71031   0.64272   0.00000  Uiso   1.00
C675   C     0.49563   0.71033   0.35665   0.00000  Uiso   1.00
C676   C     0.00437   0.78967   0.64335   0.00000  Uiso   1.00
C677   C     0.25440   0.53969   0.35728   0.00000  Uiso   1.00
C678   C     0.24560   0.96031   0.64272   0.00000  Uiso   1.00
C679   C     0.24563   0.96033   0.35665   0.00000  Uiso   1.00
C680   C     0.25437   0.53967   0.64335   0.00000  Uiso   1.00
C681   C     0.41674   0.61360   0.48389   0.00000  Uiso   1.00
C682   C     0.08326   0.88641   0.51611   0.00000  Uiso   1.00
C683   C     0.13444   0.83128   0.48246   0.00000  Uiso   1.00
C684   C     0.43992   0.80960   0.50040   0.00000  Uiso   1.00
C685   C     0.36556   0.66872   0.51754   0.00000  Uiso   1.00
C686   C     0.12937   0.66404   0.52760   0.00000  Uiso   1.00
C687   C     0.37063   0.83596   0.47240   0.00000  Uiso   1.00
C688   C     0.40996   0.87979   0.52969   0.00000  Uiso   1.00
C689   C     0.09004   0.62021   0.47031   0.00000  Uiso   1.00
C690   C     0.16674   0.86360   0.48389   0.00000  Uiso   1.00
C691   C     0.33326   0.63641   0.51611   0.00000  Uiso   1.00
C692   C     0.38444   0.58128   0.48246   0.00000  Uiso   1.00
C693   C     0.11556   0.91872   0.51754   0.00000  Uiso   1.00
C694   C     0.37937   0.91404   0.52760   0.00000  Uiso   1.00
C695   C     0.43991   0.69059   0.50015   0.00000  Uiso   1.00
C696   C     0.12063   0.58596   0.47240   0.00000  Uiso   1.00
C697   C     0.15996   0.62979   0.52969   0.00000  Uiso   1.00
C698   C     0.34004   0.87021   0.47031   0.00000  Uiso   1.00
C699   C     0.09299   0.84276   0.49924   0.00000  Uiso   1.00
C700   C     0.40701   0.65724   0.50076   0.00000  Uiso   1.00
C701   C     0.40581   0.84181   0.50138   0.00000  Uiso   1.00
C702   C     0.09419   0.65819   0.49862   0.00000  Uiso   1.00
C703   C     0.34299   0.59276   0.49924   0.00000  Uiso   1.00
C704   C     0.15701   0.90724   0.50076   0.00000  Uiso   1.00
C705   C     0.15581   0.59181   0.50138   0.00000  Uiso   1.00
C706   C     0.06009   0.80941   0.49985   0.00000  Uiso   1.00
C707   C     0.34419   0.90819   0.49862   0.00000  Uiso   1.00
C708   C     0.31008   0.94040   0.49961   0.00000  Uiso   1.00
C709   C     0.18992   0.55960   0.50040   0.00000  Uiso   1.00
C710   C     0.18991   0.94059   0.50015   0.00000  Uiso   1.00
C711   C     0.31009   0.55941   0.49985   0.00000  Uiso   1.00
C712   C     0.00440   0.78969   0.35728   0.00000  Uiso   1.00
H713   H     0.00058   0.82794   0.40970   0.00000  Uiso   1.00
H714   H     0.02042   0.87870   0.51785   0.00000  Uiso   1.00
H715   H     0.12089   0.76745   0.46777   0.00000  Uiso   1.00
H716   H     0.37911   0.73255   0.53223   0.00000  Uiso   1.00
H717   H     0.12140   0.72888   0.53892   0.00000  Uiso   1.00
H718   H     0.37860   0.77112   0.46108   0.00000  Uiso   1.00
H719   H     0.44339   0.91068   0.57653   0.00000  Uiso   1.00
H720   H     0.05661   0.58932   0.42347   0.00000  Uiso   1.00
H721   H     0.22958   0.87130   0.48215   0.00000  Uiso   1.00
H722   H     0.27042   0.62870   0.51785   0.00000  Uiso   1.00
H723   H     0.37089   0.51745   0.46777   0.00000  Uiso   1.00
H724   H     0.49942   0.67206   0.59030   0.00000  Uiso   1.00
H725   H     0.12911   0.98255   0.53223   0.00000  Uiso   1.00
H726   H     0.37140   0.97888   0.53892   0.00000  Uiso   1.00
H727   H     0.12860   0.52112   0.46108   0.00000  Uiso   1.00
H728   H     0.19339   0.66068   0.57653   0.00000  Uiso   1.00
H729   H     0.30661   0.83932   0.42347   0.00000  Uiso   1.00
H730   H     0.49986   0.67259   0.40825   0.00000  Uiso   1.00
H731   H     0.00014   0.82741   0.59175   0.00000  Uiso   1.00
H732   H     0.25058   0.57794   0.40970   0.00000  Uiso   1.00
H733   H     0.24942   0.92206   0.59030   0.00000  Uiso   1.00
H734   H     0.24986   0.92259   0.40825   0.00000  Uiso   1.00
H735   H     0.25014   0.57741   0.59175   0.00000  Uiso   1.00
H736   H     0.47958   0.62130   0.48215   0.00000  Uiso   1.00
N737   N    -0.00000   0.75000   0.61907   0.00000  Uiso   1.00
N738   N    -0.00000   0.75000   0.38093   0.00000  Uiso   1.00
N739   N     0.25000   0.50000   0.61907   0.00000  Uiso   1.00
N740   N     0.25000   0.50000   0.38093   0.00000  Uiso   1.00
O741   O     0.04580   0.70419   0.53821   0.00000  Uiso   1.00
O742   O     0.20419   0.54581   0.46179   0.00000  Uiso   1.00
O743   O     0.20419   0.54581   0.53821   0.00000  Uiso   1.00
O744   O     0.29580   0.95419   0.46179   0.00000  Uiso   1.00
O745   O     0.20419   0.95419   0.46179   0.00000  Uiso   1.00
O746   O     0.29580   0.54581   0.53821   0.00000  Uiso   1.00
O747   O     0.29580   0.54581   0.46179   0.00000  Uiso   1.00
O748   O     0.20419   0.95419   0.53821   0.00000  Uiso   1.00
O749   O     0.00858   0.83125   0.37817   0.00000  Uiso   1.00
O750   O     0.49142   0.66875   0.62183   0.00000  Uiso   1.00
O751   O     0.49163   0.66888   0.37697   0.00000  Uiso   1.00
O752   O     0.45419   0.79581   0.46179   0.00000  Uiso   1.00
O753   O     0.00837   0.83112   0.62303   0.00000  Uiso   1.00
O754   O     0.25858   0.58125   0.37817   0.00000  Uiso   1.00
O755   O     0.24142   0.91875   0.62183   0.00000  Uiso   1.00
O756   O     0.24163   0.91888   0.37697   0.00000  Uiso   1.00
O757   O     0.25837   0.58112   0.62303   0.00000  Uiso   1.00
O758   O     0.45756   0.60083   0.46914   0.00000  Uiso   1.00
O759   O     0.04244   0.89917   0.53086   0.00000  Uiso   1.00
O760   O     0.14550   0.78880   0.46569   0.00000  Uiso   1.00
O761   O     0.35450   0.71120   0.53431   0.00000  Uiso   1.00
O762   O     0.13511   0.70274   0.55348   0.00000  Uiso   1.00
O763   O     0.45419   0.79581   0.53821   0.00000  Uiso   1.00
O764   O     0.36489   0.79726   0.44652   0.00000  Uiso   1.00
O765   O     0.44536   0.88319   0.55739   0.00000  Uiso   1.00
O766   O     0.05464   0.61681   0.44261   0.00000  Uiso   1.00
O767   O     0.20756   0.85083   0.46914   0.00000  Uiso   1.00
O768   O     0.29244   0.64917   0.53086   0.00000  Uiso   1.00
O769   O     0.39550   0.53880   0.46569   0.00000  Uiso   1.00
O770   O     0.10450   0.96120   0.53431   0.00000  Uiso   1.00
O771   O     0.38511   0.95274   0.55348   0.00000  Uiso   1.00
O772   O     0.11489   0.54726   0.44652   0.00000  Uiso   1.00
O773   O     0.19536   0.63319   0.55739   0.00000  Uiso   1.00
O774   O     0.04580   0.70419   0.46179   0.00000  Uiso   1.00
O775   O     0.30464   0.86681   0.44261   0.00000  Uiso   1.00
O776   O     0.45419   0.70419   0.46179   0.00000  Uiso   1.00
O777   O     0.04580   0.79581   0.53821   0.00000  Uiso   1.00
O778   O     0.04580   0.79581   0.46179   0.00000  Uiso   1.00
O779   O     0.45419   0.70419   0.53821   0.00000  Uiso   1.00
O780   O     0.29580   0.95419   0.53821   0.00000  Uiso   1.00
Zn781  Zn   -0.00000   0.75000   0.55104   0.00000  Uiso   1.00
Zn782  Zn    0.00000   0.75000   0.44896   0.00000  Uiso   1.00
Zn783  Zn    0.25000   0.50000   0.55104   0.00000  Uiso   1.00
Zn784  Zn    0.25000   0.50000   0.44896   0.00000  Uiso   1.00
C785   C     0.56008   0.69040   0.49961   0.00000  Uiso   1.00
C786   C     0.99560   0.71031   0.64272   0.00000  Uiso   1.00
C787   C     0.99563   0.71033   0.35665   0.00000  Uiso   1.00
C788   C     0.50437   0.78967   0.64335   0.00000  Uiso   1.00
C789   C     0.75440   0.53969   0.35728   0.00000  Uiso   1.00
C790   C     0.74560   0.96031   0.64272   0.00000  Uiso   1.00
C791   C     0.74563   0.96033   0.35665   0.00000  Uiso   1.00
C792   C     0.75437   0.53967   0.64335   0.00000  Uiso   1.00
C793   C     0.91674   0.61360   0.48389   0.00000  Uiso   1.00
C794   C     0.58326   0.88641   0.51611   0.00000  Uiso   1.00
C795   C     0.63444   0.83128   0.48246   0.00000  Uiso   1.00
C796   C     0.93992   0.80960   0.50040   0.00000  Uiso   1.00
C797   C     0.86556   0.66872   0.51754   0.00000  Uiso   1.00
C798   C     0.62937   0.66404   0.52760   0.00000  Uiso   1.00
C799   C     0.87063   0.83596   0.47240   0.00000  Uiso   1.00
C800   C     0.90996   0.87979   0.52969   0.00000  Uiso   1.00
C801   C     0.59004   0.62021   0.47031   0.00000  Uiso   1.00
C802   C     0.66674   0.86360   0.48389   0.00000  Uiso   1.00
C803   C     0.83326   0.63641   0.51611   0.00000  Uiso   1.00
C804   C     0.88444   0.58128   0.48246   0.00000  Uiso   1.00
C805   C     0.61556   0.91872   0.51754   0.00000  Uiso   1.00
C806   C     0.87937   0.91404   0.52760   0.00000  Uiso   1.00
C807   C     0.93991   0.69059   0.50015   0.00000  Uiso   1.00
C808   C     0.62063   0.58596   0.47240   0.00000  Uiso   1.00
C809   C     0.65996   0.62979   0.52969   0.00000  Uiso   1.00
C810   C     0.84004   0.87021   0.47031   0.00000  Uiso   1.00
C811   C     0.59299   0.84276   0.49924   0.00000  Uiso   1.00
C812   C     0.90701   0.65724   0.50076   0.00000  Uiso   1.00
C813   C     0.90581   0.84181   0.50138   0.00000  Uiso   1.00
C814   C     0.59419   0.65819   0.49862   0.00000  Uiso   1.00
C815   C     0.84299   0.59276   0.49924   0.00000  Uiso   1.00
C816   C     0.65701   0.90724   0.50076   0.00000  Uiso   1.00
C817   C     0.65581   0.59181   0.50138   0.00000  Uiso   1.00
C818   C     0.56009   0.80941   0.49985   0.00000  Uiso   1.00
C819   C     0.84419   0.90819   0.49862   0.00000  Uiso   1.00
C820   C     0.81008   0.94040   0.49961   0.00000  Uiso   1.00
C821   C     0.68992   0.55960   0.50040   0.00000  Uiso   1.00
C822   C     0.68991   0.94059   0.50015   0.00000  Uiso   1.00
C823   C     0.81009   0.55941   0.49985   0.00000  Uiso   1.00
C824   C     0.50440   0.78969   0.35728   0.00000  Uiso   1.00
H825   H     0.50058   0.82794   0.40970   0.00000  Uiso   1.00
H826   H     0.52042   0.87870   0.51785   0.00000  Uiso   1.00
H827   H     0.62089   0.76745   0.46777   0.00000  Uiso   1.00
H828   H     0.87911   0.73255   0.53223   0.00000  Uiso   1.00
H829   H     0.62140   0.72888   0.53892   0.00000  Uiso   1.00
H830   H     0.87860   0.77112   0.46108   0.00000  Uiso   1.00
H831   H     0.94339   0.91068   0.57653   0.00000  Uiso   1.00
H832   H     0.55661   0.58932   0.42347   0.00000  Uiso   1.00
H833   H     0.72958   0.87130   0.48215   0.00000  Uiso   1.00
H834   H     0.77042   0.62870   0.51785   0.00000  Uiso   1.00
H835   H     0.87089   0.51745   0.46777   0.00000  Uiso   1.00
H836   H     0.99942   0.67206   0.59030   0.00000  Uiso   1.00
H837   H     0.62911   0.98255   0.53223   0.00000  Uiso   1.00
H838   H     0.87140   0.97888   0.53892   0.00000  Uiso   1.00
H839   H     0.62860   0.52112   0.46108   0.00000  Uiso   1.00
H840   H     0.69339   0.66068   0.57653   0.00000  Uiso   1.00
H841   H     0.80661   0.83932   0.42347   0.00000  Uiso   1.00
H842   H     0.99986   0.67259   0.40825   0.00000  Uiso   1.00
H843   H     0.50014   0.82741   0.59175   0.00000  Uiso   1.00
H844   H     0.75058   0.57794   0.40970   0.00000  Uiso   1.00
H845   H     0.74942   0.92206   0.59030   0.00000  Uiso   1.00
H846   H     0.74986   0.92259   0.40825   0.00000  Uiso   1.00
H847   H     0.75014   0.57741   0.59175   0.00000  Uiso   1.00
H848   H     0.97958   0.62130   0.48215   0.00000  Uiso   1.00
N849   N     0.50000   0.75000   0.61907   0.00000  Uiso   1.00
N850   N     0.50000   0.75000   0.38093   0.00000  Uiso   1.00
N851   N     0.75000   0.50000   0.61907   0.00000  Uiso   1.00
N852   N     0.75000   0.50000   0.38093   0.00000  Uiso   1.00
O853   O     0.54580   0.70419   0.53821   0.00000  Uiso   1.00
O854   O     0.70419   0.54581   0.46179   0.00000  Uiso   1.00
O855   O     0.70419   0.54581   0.53821   0.00000  Uiso   1.00
O856   O     0.79580   0.95419   0.46179   0.00000  Uiso   1.00
O857   O     0.70419   0.95419   0.46179   0.00000  Uiso   1.00
O858   O     0.79580   0.54581   0.53821   0.00000  Uiso   1.00
O859   O     0.79580   0.54581   0.46179   0.00000  Uiso   1.00
O860   O     0.70419   0.95419   0.53821   0.00000  Uiso   1.00
O861   O     0.50858   0.83125   0.37817   0.00000  Uiso   1.00
O862   O     0.99142   0.66875   0.62183   0.00000  Uiso   1.00
O863   O     0.99163   0.66888   0.37697   0.00000  Uiso   1.00
O864   O     0.95419   0.79581   0.46179   0.00000  Uiso   1.00
O865   O     0.50837   0.83112   0.62303   0.00000  Uiso   1.00
O866   O     0.75858   0.58125   0.37817   0.00000  Uiso   1.00
O867   O     0.74142   0.91875   0.62183   0.00000  Uiso   1.00
O868   O     0.74163   0.91888   0.37697   0.00000  Uiso   1.00
O869   O     0.75837   0.58112   0.62303   0.00000  Uiso   1.00
O870   O     0.95756   0.60083   0.46914   0.00000  Uiso   1.00
O871   O     0.54244   0.89917   0.53086   0.00000  Uiso   1.00
O872   O     0.64550   0.78880   0.46569   0.00000  Uiso   1.00
O873   O     0.85450   0.71120   0.53431   0.00000  Uiso   1.00
O874   O     0.63511   0.70274   0.55348   0.00000  Uiso   1.00
O875   O     0.95419   0.79581   0.53821   0.00000  Uiso   1.00
O876   O     0.86489   0.79726   0.44652   0.00000  Uiso   1.00
O877   O     0.94536   0.88319   0.55739   0.00000  Uiso   1.00
O878   O     0.55464   0.61681   0.44261   0.00000  Uiso   1.00
O879   O     0.70756   0.85083   0.46914   0.00000  Uiso   1.00
O880   O     0.79244   0.64917   0.53086   0.00000  Uiso   1.00
O881   O     0.89550   0.53880   0.46569   0.00000  Uiso   1.00
O882   O     0.60450   0.96120   0.53431   0.00000  Uiso   1.00
O883   O     0.88511   0.95274   0.55348   0.00000  Uiso   1.00
O884   O     0.61489   0.54726   0.44652   0.00000  Uiso   1.00
O885   O     0.69536   0.63319   0.55739   0.00000  Uiso   1.00
O886   O     0.54580   0.70419   0.46179   0.00000  Uiso   1.00
O887   O     0.80464   0.86681   0.44261   0.00000  Uiso   1.00
O888   O     0.95419   0.70419   0.46179   0.00000  Uiso   1.00
O889   O     0.54580   0.79581   0.53821   0.00000  Uiso   1.00
O890   O     0.54580   0.79581   0.46179   0.00000  Uiso   1.00
O891   O     0.95419   0.70419   0.53821   0.00000  Uiso   1.00
O892   O     0.79580   0.95419   0.53821   0.00000  Uiso   1.00
Zn893  Zn    0.50000   0.75000   0.55104   0.00000  Uiso   1.00
Zn894  Zn    0.50000   0.75000   0.44896   0.00000  Uiso   1.00
Zn895  Zn    0.75000   0.50000   0.55104   0.00000  Uiso   1.00
Zn896  Zn    0.75000   0.50000   0.44896   0.00000  Uiso   1.00
C897   C     0.06008   0.19040   0.83294   0.00000  Uiso   1.00
C898   C     0.49560   0.21031   0.97605   0.00000  Uiso   1.00
C899   C     0.49563   0.21033   0.68999   0.00000  Uiso   1.00
C900   C     0.00437   0.28967   0.97668   0.00000  Uiso   1.00
C901   C     0.25440   0.03969   0.69062   0.00000  Uiso   1.00
C902   C     0.24560   0.46031   0.97605   0.00000  Uiso   1.00
C903   C     0.24563   0.46033   0.68999   0.00000  Uiso   1.00
C904   C     0.25437   0.03967   0.97668   0.00000  Uiso   1.00
C905   C     0.41674   0.11360   0.81723   0.00000  Uiso   1.00
C906   C     0.08326   0.38641   0.84944   0.00000  Uiso   1.00
C907   C     0.13444   0.33128   0.81579   0.00000  Uiso   1.00
C908   C     0.43992   0.30960   0.83373   0.00000  Uiso   1.00
C909   C     0.36556   0.16872   0.85088   0.00000  Uiso   1.00
C910   C     0.12937   0.16404   0.86093   0.00000  Uiso   1.00
C911   C     0.37063   0.33596   0.80573   0.00000  Uiso   1.00
C912   C     0.40996   0.37979   0.86302   0.00000  Uiso   1.00
C913   C     0.09004   0.12021   0.80365   0.00000  Uiso   1.00
C914   C     0.16674   0.36360   0.81723   0.00000  Uiso   1.00
C915   C     0.33326   0.13641   0.84944   0.00000  Uiso   1.00
C916   C     0.38444   0.08128   0.81579   0.00000  Uiso   1.00
C917   C     0.11556   0.41872   0.85088   0.00000  Uiso   1.00
C918   C     0.37937   0.41404   0.86093   0.00000  Uiso   1.00
C919   C     0.43991   0.19059   0.83348   0.00000  Uiso   1.00
C920   C     0.12063   0.08596   0.80573   0.00000  Uiso   1.00
C921   C     0.15996   0.12979   0.86302   0.00000  Uiso   1.00
C922   C     0.34004   0.37021   0.80365   0.00000  Uiso   1.00
C923   C     0.09299   0.34276   0.83257   0.00000  Uiso   1.00
C924   C     0.40701   0.15724   0.83410   0.00000  Uiso   1.00
C925   C     0.40581   0.34181   0.83471   0.00000  Uiso   1.00
C926   C     0.09419   0.15819   0.83196   0.00000  Uiso   1.00
C927   C     0.34299   0.09276   0.83257   0.00000  Uiso   1.00
C928   C     0.15701   0.40724   0.83410   0.00000  Uiso   1.00
C929   C     0.15581   0.09181   0.83471   0.00000  Uiso   1.00
C930   C     0.06009   0.30941   0.83318   0.00000  Uiso   1.00
C931   C     0.34419   0.40819   0.83196   0.00000  Uiso   1.00
C932   C     0.31008   0.44040   0.83294   0.00000  Uiso   1.00
C933   C     0.18992   0.05960   0.83373   0.00000  Uiso   1.00
C934   C     0.18991   0.44059   0.83348   0.00000  Uiso   1.00
C935   C     0.31009   0.05941   0.83318   0.00000  Uiso   1.00
C936   C     0.00440   0.28969   0.69062   0.00000  Uiso   1.00
H937   H     0.00058   0.32794   0.74304   0.00000  Uiso   1.00
H938   H     0.02042   0.37870   0.85119   0.00000  Uiso   1.00
H939   H     0.12089   0.26745   0.80110   0.00000  Uiso   1.00
H940   H     0.37911   0.23255   0.86556   0.00000  Uiso   1.00
H941   H     0.12140   0.22888   0.87225   0.00000  Uiso   1.00
H942   H     0.37860   0.27112   0.79442   0.00000  Uiso   1.00
H943   H     0.44339   0.41068   0.90987   0.00000  Uiso   1.00
H944   H     0.05661   0.08932   0.75680   0.00000  Uiso   1.00
H945   H     0.22958   0.37130   0.81548   0.00000  Uiso   1.00
H946   H     0.27042   0.12870   0.85119   0.00000  Uiso   1.00
H947   H     0.37089   0.01745   0.80110   0.00000  Uiso   1.00
H948   H     0.49942   0.17206   0.92363   0.00000  Uiso   1.00
H949   H     0.12911   0.48255   0.86556   0.00000  Uiso   1.00
H950   H     0.37140   0.47888   0.87225   0.00000  Uiso   1.00
H951   H     0.12860   0.02112   0.79442   0.00000  Uiso   1.00
H952   H     0.19339   0.16068   0.90986   0.00000  Uiso   1.00
H953   H     0.30661   0.33932   0.75680   0.00000  Uiso   1.00
H954   H     0.49986   0.17259   0.74158   0.00000  Uiso   1.00
H955   H     0.00014   0.32741   0.92508   0.00000  Uiso   1.00
H956   H     0.25058   0.07794   0.74304   0.00000  Uiso   1.00
H957   H     0.24942   0.42206   0.92363   0.00000  Uiso   1.00
H958   H     0.24986   0.42259   0.74158   0.00000  Uiso   1.00
H959   H     0.25014   0.07741   0.92508   0.00000  Uiso   1.00
H960   H     0.47958   0.12130   0.81548   0.00000  Uiso   1.00
N961   N    -0.00000   0.25000   0.95240   0.00000  Uiso   1.00
N962   N    -0.00000   0.25000   0.71427   0.00000  Uiso   1.00
N963   N     0.25000   0.00000   0.95240   0.00000  Uiso   1.00
N964   N     0.25000   0.00000   0.71427   0.00000  Uiso   1.00
O965   O     0.04580   0.20419   0.87154   0.00000  Uiso   1.00
O966   O     0.20419   0.04581   0.79513   0.00000  Uiso   1.00
O967   O     0.20419   0.04581   0.87154   0.00000  Uiso   1.00
O968   O     0.29580   0.45419   0.79513   0.00000  Uiso   1.00
O969   O     0.20419   0.45419   0.79513   0.00000  Uiso   1.00
O970   O     0.29580   0.04581   0.87154   0.00000  Uiso   1.00
O971   O     0.29580   0.04581   0.79513   0.00000  Uiso   1.00
O972   O     0.20419   0.45419   0.87154   0.00000  Uiso   1.00
O973   O     0.00858   0.33125   0.71150   0.00000  Uiso   1.00
O974   O     0.49142   0.16875   0.95516   0.00000  Uiso   1.00
O975   O     0.49163   0.16888   0.71031   0.00000  Uiso   1.00
O976   O     0.45419   0.29581   0.79513   0.00000  Uiso   1.00
O977   O     0.00837   0.33112   0.95636   0.00000  Uiso   1.00
O978   O     0.25858   0.08125   0.71150   0.00000  Uiso   1.00
O979   O     0.24142   0.41875   0.95516   0.00000  Uiso   1.00
O980   O     0.24163   0.41888   0.71031   0.00000  Uiso   1.00
O981   O     0.25837   0.08112   0.95636   0.00000  Uiso   1.00
O982   O     0.45756   0.10083   0.80247   0.00000  Uiso   1.00
O983   O     0.04244   0.39917   0.86420   0.00000  Uiso   1.00
O984   O     0.14550   0.28880   0.79903   0.00000  Uiso   1.00
O985   O     0.35450   0.21120   0.86764   0.00000  Uiso   1.00
O986   O     0.13511   0.20274   0.88681   0.00000  Uiso   1.00
O987   O     0.45419   0.29581   0.87154   0.00000  Uiso   1.00
O988   O     0.36489   0.29726   0.77985   0.00000  Uiso   1.00
O989   O     0.44536   0.38319   0.89072   0.00000  Uiso   1.00
O990   O     0.05464   0.11681   0.77595   0.00000  Uiso   1.00
O991   O     0.20756   0.35083   0.80247   0.00000  Uiso   1.00
O992   O     0.29244   0.14917   0.86420   0.00000  Uiso   1.00
O993   O     0.39550   0.03880   0.79903   0.00000  Uiso   1.00
O994   O     0.10450   0.46120   0.86764   0.00000  Uiso   1.00
O995   O     0.38511   0.45274   0.88681   0.00000  Uiso   1.00
O996   O     0.11489   0.04726   0.77985   0.00000  Uiso   1.00
O997   O     0.19536   0.13319   0.89072   0.00000  Uiso   1.00
O998   O     0.04580   0.20419   0.79513   0.00000  Uiso   1.00
O999   O     0.30464   0.36681   0.77595   0.00000  Uiso   1.00
O1000  O     0.45419   0.20419   0.79513   0.00000  Uiso   1.00
O1001  O     0.04580   0.29581   0.87154   0.00000  Uiso   1.00
O1002  O     0.04580   0.29581   0.79513   0.00000  Uiso   1.00
O1003  O     0.45419   0.20419   0.87154   0.00000  Uiso   1.00
O1004  O     0.29580   0.45419   0.87154   0.00000  Uiso   1.00
Zn1005 Zn   -0.00000   0.25000   0.88437   0.00000  Uiso   1.00
Zn1006 Zn    0.00000   0.25000   0.78229   0.00000  Uiso   1.00
Zn1007 Zn    0.25000   0.00000   0.88437   0.00000  Uiso   1.00
Zn1008 Zn    0.25000   0.00000   0.78229   0.00000  Uiso   1.00
C1009  C     0.56008   0.19040   0.83294   0.00000  Uiso   1.00
C1010  C     0.99560   0.21031   0.97605   0.00000  Uiso   1.00
C1011  C     0.99563   0.21033   0.68999   0.00000  Uiso   1.00
C1012  C     0.50437   0.28967   0.97668   0.00000  Uiso   1.00
C1013  C     0.75440   0.03969   0.69062   0.00000  Uiso   1.00
C1014  C     0.74560   0.46031   0.97605   0.00000  Uiso   1.00
C1015  C     0.74563   0.46033   0.68999   0.00000  Uiso   1.00
C1016  C     0.75437   0.03967   0.97668   0.00000  Uiso   1.00
C1017  C     0.91674   0.11360   0.81723   0.00000  Uiso   1.00
C1018  C     0.58326   0.38641   0.84944   0.00000  Uiso   1.00
C1019  C     0.63444   0.33128   0.81579   0.00000  Uiso   1.00
C1020  C     0.93992   0.30960   0.83373   0.00000  Uiso   1.00
C1021  C     0.86556   0.16872   0.85088   0.00000  Uiso   1.00
C1022  C     0.62937   0.16404   0.86093   0.00000  Uiso   1.00
C1023  C     0.87063   0.33596   0.80573   0.00000  Uiso   1.00
C1024  C     0.90996   0.37979   0.86302   0.00000  Uiso   1.00
C1025  C     0.59004   0.12021   0.80365   0.00000  Uiso   1.00
C1026  C     0.66674   0.36360   0.81723   0.00000  Uiso   1.00
C1027  C     0.83326   0.13641   0.84944   0.00000  Uiso   1.00
C1028  C     0.88444   0.08128   0.81579   0.00000  Uiso   1.00
C1029  C     0.61556   0.41872   0.85088   0.00000  Uiso   1.00
C1030  C     0.87937   0.41404   0.86093   0.00000  Uiso   1.00
C1031  C     0.93991   0.19059   0.83348   0.00000  Uiso   1.00
C1032  C     0.62063   0.08596   0.80573   0.00000  Uiso   1.00
C1033  C     0.65996   0.12979   0.86302   0.00000  Uiso   1.00
C1034  C     0.84004   0.37021   0.80365   0.00000  Uiso   1.00
C1035  C     0.59299   0.34276   0.83257   0.00000  Uiso   1.00
C1036  C     0.90701   0.15724   0.83410   0.00000  Uiso   1.00
C1037  C     0.90581   0.34181   0.83471   0.00000  Uiso   1.00
C1038  C     0.59419   0.15819   0.83196   0.00000  Uiso   1.00
C1039  C     0.84299   0.09276   0.83257   0.00000  Uiso   1.00
C1040  C     0.65701   0.40724   0.83410   0.00000  Uiso   1.00
C1041  C     0.65581   0.09181   0.83471   0.00000  Uiso   1.00
C1042  C     0.56009   0.30941   0.83318   0.00000  Uiso   1.00
C1043  C     0.84419   0.40819   0.83196   0.00000  Uiso   1.00
C1044  C     0.81008   0.44040   0.83294   0.00000  Uiso   1.00
C1045  C     0.68992   0.05960   0.83373   0.00000  Uiso   1.00
C1046  C     0.68991   0.44059   0.83348   0.00000  Uiso   1.00
C1047  C     0.81009   0.05941   0.83318   0.00000  Uiso   1.00
C1048  C     0.50440   0.28969   0.69062   0.00000  Uiso   1.00
H1049  H     0.50058   0.32794   0.74304   0.00000  Uiso   1.00
H1050  H     0.52042   0.37870   0.85119   0.00000  Uiso   1.00
H1051  H     0.62089   0.26745   0.80110   0.00000  Uiso   1.00
H1052  H     0.87911   0.23255   0.86556   0.00000  Uiso   1.00
H1053  H     0.62140   0.22888   0.87225   0.00000  Uiso   1.00
H1054  H     0.87860   0.27112   0.79442   0.00000  Uiso   1.00
H1055  H     0.94339   0.41068   0.90987   0.00000  Uiso   1.00
H1056  H     0.55661   0.08932   0.75680   0.00000  Uiso   1.00
H1057  H     0.72958   0.37130   0.81548   0.00000  Uiso   1.00
H1058  H     0.77042   0.12870   0.85119   0.00000  Uiso   1.00
H1059  H     0.87089   0.01745   0.80110   0.00000  Uiso   1.00
H1060  H     0.99942   0.17206   0.92363   0.00000  Uiso   1.00
H1061  H     0.62911   0.48255   0.86556   0.00000  Uiso   1.00
H1062  H     0.87140   0.47888   0.87225   0.00000  Uiso   1.00
H1063  H     0.62860   0.02112   0.79442   0.00000  Uiso   1.00
H1064  H     0.69339   0.16068   0.90986   0.00000  Uiso   1.00
H1065  H     0.80661   0.33932   0.75680   0.00000  Uiso   1.00
H1066  H     0.99986   0.17259   0.74158   0.00000  Uiso   1.00
H1067  H     0.50014   0.32741   0.92508   0.00000  Uiso   1.00
H1068  H     0.75058   0.07794   0.74304   0.00000  Uiso   1.00
H1069  H     0.74942   0.42206   0.92363   0.00000  Uiso   1.00
H1070  H     0.74986   0.42259   0.74158   0.00000  Uiso   1.00
H1071  H     0.75014   0.07741   0.92508   0.00000  Uiso   1.00
H1072  H     0.97958   0.12130   0.81548   0.00000  Uiso   1.00
N1073  N     0.50000   0.25000   0.95240   0.00000  Uiso   1.00
N1074  N     0.50000   0.25000   0.71427   0.00000  Uiso   1.00
N1075  N     0.75000   0.00000   0.95240   0.00000  Uiso   1.00
N1076  N     0.75000   0.00000   0.71427   0.00000  Uiso   1.00
O1077  O     0.54580   0.20419   0.87154   0.00000  Uiso   1.00
O1078  O     0.70419   0.04581   0.79513   0.00000  Uiso   1.00
O1079  O     0.70419   0.04581   0.87154   0.00000  Uiso   1.00
O1080  O     0.79580   0.45419   0.79513   0.00000  Uiso   1.00
O1081  O     0.70419   0.45419   0.79513   0.00000  Uiso   1.00
O1082  O     0.79580   0.04581   0.87154   0.00000  Uiso   1.00
O1083  O     0.79580   0.04581   0.79513   0.00000  Uiso   1.00
O1084  O     0.70419   0.45419   0.87154   0.00000  Uiso   1.00
O1085  O     0.50858   0.33125   0.71150   0.00000  Uiso   1.00
O1086  O     0.99142   0.16875   0.95516   0.00000  Uiso   1.00
O1087  O     0.99163   0.16888   0.71031   0.00000  Uiso   1.00
O1088  O     0.95419   0.29581   0.79513   0.00000  Uiso   1.00
O1089  O     0.50837   0.33112   0.95636   0.00000  Uiso   1.00
O1090  O     0.75858   0.08125   0.71150   0.00000  Uiso   1.00
O1091  O     0.74142   0.41875   0.95516   0.00000  Uiso   1.00
O1092  O     0.74163   0.41888   0.71031   0.00000  Uiso   1.00
O1093  O     0.75837   0.08112   0.95636   0.00000  Uiso   1.00
O1094  O     0.95756   0.10083   0.80247   0.00000  Uiso   1.00
O1095  O     0.54244   0.39917   0.86420   0.00000  Uiso   1.00
O1096  O     0.64550   0.28880   0.79903   0.00000  Uiso   1.00
O1097  O     0.85450   0.21120   0.86764   0.00000  Uiso   1.00
O1098  O     0.63511   0.20274   0.88681   0.00000  Uiso   1.00
O1099  O     0.95419   0.29581   0.87154   0.00000  Uiso   1.00
O1100  O     0.86489   0.29726   0.77985   0.00000  Uiso   1.00
O1101  O     0.94536   0.38319   0.89072   0.00000  Uiso   1.00
O1102  O     0.55464   0.11681   0.77595   0.00000  Uiso   1.00
O1103  O     0.70756   0.35083   0.80247   0.00000  Uiso   1.00
O1104  O     0.79244   0.14917   0.86420   0.00000  Uiso   1.00
O1105  O     0.89550   0.03880   0.79903   0.00000  Uiso   1.00
O1106  O     0.60450   0.46120   0.86764   0.00000  Uiso   1.00
O1107  O     0.88511   0.45274   0.88681   0.00000  Uiso   1.00
O1108  O     0.61489   0.04726   0.77985   0.00000  Uiso   1.00
O1109  O     0.69536   0.13319   0.89072   0.00000  Uiso   1.00
O1110  O     0.54580   0.20419   0.79513   0.00000  Uiso   1.00
O1111  O     0.80464   0.36681   0.77595   0.00000  Uiso   1.00
O1112  O     0.95419   0.20419   0.79513   0.00000  Uiso   1.00
O1113  O     0.54580   0.29581   0.87154   0.00000  Uiso   1.00
O1114  O     0.54580   0.29581   0.79513   0.00000  Uiso   1.00
O1115  O     0.95419   0.20419   0.87154   0.00000  Uiso   1.00
O1116  O     0.79580   0.45419   0.87154   0.00000  Uiso   1.00
Zn1117 Zn    0.50000   0.25000   0.88437   0.00000  Uiso   1.00
Zn1118 Zn    0.50000   0.25000   0.78229   0.00000  Uiso   1.00
Zn1119 Zn    0.75000   0.00000   0.88437   0.00000  Uiso   1.00
Zn1120 Zn    0.75000   0.00000   0.78229   0.00000  Uiso   1.00
C1121  C     0.06008   0.69040   0.83294   0.00000  Uiso   1.00
C1122  C     0.49560   0.71031   0.97605   0.00000  Uiso   1.00
C1123  C     0.49563   0.71033   0.68999   0.00000  Uiso   1.00
C1124  C     0.00437   0.78967   0.97668   0.00000  Uiso   1.00
C1125  C     0.25440   0.53969   0.69062   0.00000  Uiso   1.00
C1126  C     0.24560   0.96031   0.97605   0.00000  Uiso   1.00
C1127  C     0.24563   0.96033   0.68999   0.00000  Uiso   1.00
C1128  C     0.25437   0.53967   0.97668   0.00000  Uiso   1.00
C1129  C     0.41674   0.61360   0.81723   0.00000  Uiso   1.00
C1130  C     0.08326   0.88641   0.84944   0.00000  Uiso   1.00
C1131  C     0.13444   0.83128   0.81579   0.00000  Uiso   1.00
C1132  C     0.43992   0.80960   0.83373   0.00000  Uiso   1.00
C1133  C     0.36556   0.66872   0.85088   0.00000  Uiso   1.00
C1134  C     0.12937   0.66404   0.86093   0.00000  Uiso   1.00
C1135  C     0.37063   0.83596   0.80573   0.00000  Uiso   1.00
C1136  C     0.40996   0.87979   0.86302   0.00000  Uiso   1.00
C1137  C     0.09004   0.62021   0.80365   0.00000  Uiso   1.00
C1138  C     0.16674   0.86360   0.81723   0.00000  Uiso   1.00
C1139  C     0.33326   0.63641   0.84944   0.00000  Uiso   1.00
C1140  C     0.38444   0.58128   0.81579   0.00000  Uiso   1.00
C1141  C     0.11556   0.91872   0.85088   0.00000  Uiso   1.00
C1142  C     0.37937   0.91404   0.86093   0.00000  Uiso   1.00
C1143  C     0.43991   0.69059   0.83348   0.00000  Uiso   1.00
C1144  C     0.12063   0.58596   0.80573   0.00000  Uiso   1.00
C1145  C     0.15996   0.62979   0.86302   0.00000  Uiso   1.00
C1146  C     0.34004   0.87021   0.80365   0.00000  Uiso   1.00
C1147  C     0.09299   0.84276   0.83257   0.00000  Uiso   1.00
C1148  C     0.40701   0.65724   0.83410   0.00000  Uiso   1.00
C1149  C     0.40581   0.84181   0.83471   0.00000  Uiso   1.00
C1150  C     0.09419   0.65819   0.83196   0.00000  Uiso   1.00
C1151  C     0.34299   0.59276   0.83257   0.00000  Uiso   1.00
C1152  C     0.15701   0.90724   0.83410   0.00000  Uiso   1.00
C1153  C     0.15581   0.59181   0.83471   0.00000  Uiso   1.00
C1154  C     0.06009   0.80941   0.83318   0.00000  Uiso   1.00
C1155  C     0.34419   0.90819   0.83196   0.00000  Uiso   1.00
C1156  C     0.31008   0.94040   0.83294   0.00000  Uiso   1.00
C1157  C     0.18992   0.55960   0.83373   0.00000  Uiso   1.00
C1158  C     0.18991   0.94059   0.83348   0.00000  Uiso   1.00
C1159  C     0.31009   0.55941   0.83318   0.00000  Uiso   1.00
C1160  C     0.00440   0.78969   0.69062   0.00000  Uiso   1.00
H1161  H     0.00058   0.82794   0.74304   0.00000  Uiso   1.00
H1162  H     0.02042   0.87870   0.85119   0.00000  Uiso   1.00
H1163  H     0.12089   0.76745   0.80110   0.00000  Uiso   1.00
H1164  H     0.37911   0.73255   0.86556   0.00000  Uiso   1.00
H1165  H     0.12140   0.72888   0.87225   0.00000  Uiso   1.00
H1166  H     0.37860   0.77112   0.79442   0.00000  Uiso   1.00
H1167  H     0.44339   0.91068   0.90987   0.00000  Uiso   1.00
H1168  H     0.05661   0.58932   0.75680   0.00000  Uiso   1.00
H1169  H     0.22958   0.87130   0.81548   0.00000  Uiso   1.00
H1170  H     0.27042   0.62870   0.85119   0.00000  Uiso   1.00
H1171  H     0.37089   0.51745   0.80110   0.00000  Uiso   1.00
H1172  H     0.49942   0.67206   0.92363   0.00000  Uiso   1.00
H1173  H     0.12911   0.98255   0.86556   0.00000  Uiso   1.00
H1174  H     0.37140   0.97888   0.87225   0.00000  Uiso   1.00
H1175  H     0.12860   0.52112   0.79442   0.00000  Uiso   1.00
H1176  H     0.19339   0.66068   0.90986   0.00000  Uiso   1.00
H1177  H     0.30661   0.83932   0.75680   0.00000  Uiso   1.00
H1178  H     0.49986   0.67259   0.74158   0.00000  Uiso   1.00
H1179  H     0.00014   0.82741   0.92508   0.00000  Uiso   1.00
H1180  H     0.25058   0.57794   0.74304   0.00000  Uiso   1.00
H1181  H     0.24942   0.92206   0.92363   0.00000  Uiso   1.00
H1182  H     0.24986   0.92259   0.74158   0.00000  Uiso   1.00
H1183  H     0.25014   0.57741   0.92508   0.00000  Uiso   1.00
H1184  H     0.47958   0.62130   0.81548   0.00000  Uiso   1.00
N1185  N    -0.00000   0.75000   0.95240   0.00000  Uiso   1.00
N1186  N    -0.00000   0.75000   0.71427   0.00000  Uiso   1.00
N1187  N     0.25000   0.50000   0.95240   0.00000  Uiso   1.00
N1188  N     0.25000   0.50000   0.71427   0.00000  Uiso   1.00
O1189  O     0.04580   0.70419   0.87154   0.00000  Uiso   1.00
O1190  O     0.20419   0.54581   0.79513   0.00000  Uiso   1.00
O1191  O     0.20419   0.54581   0.87154   0.00000  Uiso   1.00
O1192  O     0.29580   0.95419   0.79513   0.00000  Uiso   1.00
O1193  O     0.20419   0.95419   0.79513   0.00000  Uiso   1.00
O1194  O     0.29580   0.54581   0.87154   0.00000  Uiso   1.00
O1195  O     0.29580   0.54581   0.79513   0.00000  Uiso   1.00
O1196  O     0.20419   0.95419   0.87154   0.00000  Uiso   1.00
O1197  O     0.00858   0.83125   0.71150   0.00000  Uiso   1.00
O1198  O     0.49142   0.66875   0.95516   0.00000  Uiso   1.00
O1199  O     0.49163   0.66888   0.71031   0.00000  Uiso   1.00
O1200  O     0.45419   0.79581   0.79513   0.00000  Uiso   1.00
O1201  O     0.00837   0.83112   0.95636   0.00000  Uiso   1.00
O1202  O     0.25858   0.58125   0.71150   0.00000  Uiso   1.00
O1203  O     0.24142   0.91875   0.95516   0.00000  Uiso   1.00
O1204  O     0.24163   0.91888   0.71031   0.00000  Uiso   1.00
O1205  O     0.25837   0.58112   0.95636   0.00000  Uiso   1.00
O1206  O     0.45756   0.60083   0.80247   0.00000  Uiso   1.00
O1207  O     0.04244   0.89917   0.86420   0.00000  Uiso   1.00
O1208  O     0.14550   0.78880   0.79903   0.00000  Uiso   1.00
O1209  O     0.35450   0.71120   0.86764   0.00000  Uiso   1.00
O1210  O     0.13511   0.70274   0.88681   0.00000  Uiso   1.00
O1211  O     0.45419   0.79581   0.87154   0.00000  Uiso   1.00
O1212  O     0.36489   0.79726   0.77985   0.00000  Uiso   1.00
O1213  O     0.44536   0.88319   0.89072   0.00000  Uiso   1.00
O1214  O     0.05464   0.61681   0.77595   0.00000  Uiso   1.00
O1215  O     0.20756   0.85083   0.80247   0.00000  Uiso   1.00
O1216  O     0.29244   0.64917   0.86420   0.00000  Uiso   1.00
O1217  O     0.39550   0.53880   0.79903   0.00000  Uiso   1.00
O1218  O     0.10450   0.96120   0.86764   0.00000  Uiso   1.00
O1219  O     0.38511   0.95274   0.88681   0.00000  Uiso   1.00
O1220  O     0.11489   0.54726   0.77985   0.00000  Uiso   1.00
O1221  O     0.19536   0.63319   0.89072   0.00000  Uiso   1.00
O1222  O     0.04580   0.70419   0.79513   0.00000  Uiso   1.00
O1223  O     0.30464   0.86681   0.77595   0.00000  Uiso   1.00
O1224  O     0.45419   0.70419   0.79513   0.00000  Uiso   1.00
O1225  O     0.04580   0.79581   0.87154   0.00000  Uiso   1.00
O1226  O     0.04580   0.79581   0.79513   0.00000  Uiso   1.00
O1227  O     0.45419   0.70419   0.87154   0.00000  Uiso   1.00
O1228  O     0.29580   0.95419   0.87154   0.00000  Uiso   1.00
Zn1229 Zn   -0.00000   0.75000   0.88437   0.00000  Uiso   1.00
Zn1230 Zn    0.00000   0.75000   0.78229   0.00000  Uiso   1.00
Zn1231 Zn    0.25000   0.50000   0.88437   0.00000  Uiso   1.00
Zn1232 Zn    0.25000   0.50000   0.78229   0.00000  Uiso   1.00
C1233  C     0.56008   0.69040   0.83294   0.00000  Uiso   1.00
C1234  C     0.99560   0.71031   0.97605   0.00000  Uiso   1.00
C1235  C     0.99563   0.71033   0.68999   0.00000  Uiso   1.00
C1236  C     0.50437   0.78967   0.97668   0.00000  Uiso   1.00
C1237  C     0.75440   0.53969   0.69062   0.00000  Uiso   1.00
C1238  C     0.74560   0.96031   0.97605   0.00000  Uiso   1.00
C1239  C     0.74563   0.96033   0.68999   0.00000  Uiso   1.00
C1240  C     0.75437   0.53967   0.97668   0.00000  Uiso   1.00
C1241  C     0.91674   0.61360   0.81723   0.00000  Uiso   1.00
C1242  C     0.58326   0.88641   0.84944   0.00000  Uiso   1.00
C1243  C     0.63444   0.83128   0.81579   0.00000  Uiso   1.00
C1244  C     0.93992   0.80960   0.83373   0.00000  Uiso   1.00
C1245  C     0.86556   0.66872   0.85088   0.00000  Uiso   1.00
C1246  C     0.62937   0.66404   0.86093   0.00000  Uiso   1.00
C1247  C     0.87063   0.83596   0.80573   0.00000  Uiso   1.00
C1248  C     0.90996   0.87979   0.86302   0.00000  Uiso   1.00
C1249  C     0.59004   0.62021   0.80365   0.00000  Uiso   1.00
C1250  C     0.66674   0.86360   0.81723   0.00000  Uiso   1.00
C1251  C     0.83326   0.63641   0.84944   0.00000  Uiso   1.00
C1252  C     0.88444   0.58128   0.81579   0.00000  Uiso   1.00
C1253  C     0.61556   0.91872   0.85088   0.00000  Uiso   1.00
C1254  C     0.87937   0.91404   0.86093   0.00000  Uiso   1.00
C1255  C     0.93991   0.69059   0.83348   0.00000  Uiso   1.00
C1256  C     0.62063   0.58596   0.80573   0.00000  Uiso   1.00
C1257  C     0.65996   0.62979   0.86302   0.00000  Uiso   1.00
C1258  C     0.84004   0.87021   0.80365   0.00000  Uiso   1.00
C1259  C     0.59299   0.84276   0.83257   0.00000  Uiso   1.00
C1260  C     0.90701   0.65724   0.83410   0.00000  Uiso   1.00
C1261  C     0.90581   0.84181   0.83471   0.00000  Uiso   1.00
C1262  C     0.59419   0.65819   0.83196   0.00000  Uiso   1.00
C1263  C     0.84299   0.59276   0.83257   0.00000  Uiso   1.00
C1264  C     0.65701   0.90724   0.83410   0.00000  Uiso   1.00
C1265  C     0.65581   0.59181   0.83471   0.00000  Uiso   1.00
C1266  C     0.56009   0.80941   0.83318   0.00000  Uiso   1.00
C1267  C     0.84419   0.90819   0.83196   0.00000  Uiso   1.00
C1268  C     0.81008   0.94040   0.83294   0.00000  Uiso   1.00
C1269  C     0.68992   0.55960   0.83373   0.00000  Uiso   1.00
C1270  C     0.68991   0.94059   0.83348   0.00000  Uiso   1.00
C1271  C     0.81009   0.55941   0.83318   0.00000  Uiso   1.00
C1272  C     0.50440   0.78969   0.69062   0.00000  Uiso   1.00
H1273  H     0.50058   0.82794   0.74304   0.00000  Uiso   1.00
H1274  H     0.52042   0.87870   0.85119   0.00000  Uiso   1.00
H1275  H     0.62089   0.76745   0.80110   0.00000  Uiso   1.00
H1276  H     0.87911   0.73255   0.86556   0.00000  Uiso   1.00
H1277  H     0.62140   0.72888   0.87225   0.00000  Uiso   1.00
H1278  H     0.87860   0.77112   0.79442   0.00000  Uiso   1.00
H1279  H     0.94339   0.91068   0.90987   0.00000  Uiso   1.00
H1280  H     0.55661   0.58932   0.75680   0.00000  Uiso   1.00
H1281  H     0.72958   0.87130   0.81548   0.00000  Uiso   1.00
H1282  H     0.77042   0.62870   0.85119   0.00000  Uiso   1.00
H1283  H     0.87089   0.51745   0.80110   0.00000  Uiso   1.00
H1284  H     0.99942   0.67206   0.92363   0.00000  Uiso   1.00
H1285  H     0.62911   0.98255   0.86556   0.00000  Uiso   1.00
H1286  H     0.87140   0.97888   0.87225   0.00000  Uiso   1.00
H1287  H     0.62860   0.52112   0.79442   0.00000  Uiso   1.00
H1288  H     0.69339   0.66068   0.90986   0.00000  Uiso   1.00
H1289  H     0.80661   0.83932   0.75680   0.00000  Uiso   1.00
H1290  H     0.99986   0.67259   0.74158   0.00000  Uiso   1.00
H1291  H     0.50014   0.82741   0.92508   0.00000  Uiso   1.00
H1292  H     0.75058   0.57794   0.74304   0.00000  Uiso   1.00
H1293  H     0.74942   0.92206   0.92363   0.00000  Uiso   1.00
H1294  H     0.74986   0.92259   0.74158   0.00000  Uiso   1.00
H1295  H     0.75014   0.57741   0.92508   0.00000  Uiso   1.00
H1296  H     0.97958   0.62130   0.81548   0.00000  Uiso   1.00
N1297  N     0.50000   0.75000   0.95240   0.00000  Uiso   1.00
N1298  N     0.50000   0.75000   0.71427   0.00000  Uiso   1.00
N1299  N     0.75000   0.50000   0.95240   0.00000  Uiso   1.00
N1300  N     0.75000   0.50000   0.71427   0.00000  Uiso   1.00
O1301  O     0.54580   0.70419   0.87154   0.00000  Uiso   1.00
O1302  O     0.70419   0.54581   0.79513   0.00000  Uiso   1.00
O1303  O     0.70419   0.54581   0.87154   0.00000  Uiso   1.00
O1304  O     0.79580   0.95419   0.79513   0.00000  Uiso   1.00
O1305  O     0.70419   0.95419   0.79513   0.00000  Uiso   1.00
O1306  O     0.79580   0.54581   0.87154   0.00000  Uiso   1.00
O1307  O     0.79580   0.54581   0.79513   0.00000  Uiso   1.00
O1308  O     0.70419   0.95419   0.87154   0.00000  Uiso   1.00
O1309  O     0.50858   0.83125   0.71150   0.00000  Uiso   1.00
O1310  O     0.99142   0.66875   0.95516   0.00000  Uiso   1.00
O1311  O     0.99163   0.66888   0.71031   0.00000  Uiso   1.00
O1312  O     0.95419   0.79581   0.79513   0.00000  Uiso   1.00
O1313  O     0.50837   0.83112   0.95636   0.00000  Uiso   1.00
O1314  O     0.75858   0.58125   0.71150   0.00000  Uiso   1.00
O1315  O     0.74142   0.91875   0.95516   0.00000  Uiso   1.00
O1316  O     0.74163   0.91888   0.71031   0.00000  Uiso   1.00
O1317  O     0.75837   0.58112   0.95636   0.00000  Uiso   1.00
O1318  O     0.95756   0.60083   0.80247   0.00000  Uiso   1.00
O1319  O     0.54244   0.89917   0.86420   0.00000  Uiso   1.00
O1320  O     0.64550   0.78880   0.79903   0.00000  Uiso   1.00
O1321  O     0.85450   0.71120   0.86764   0.00000  Uiso   1.00
O1322  O     0.63511   0.70274   0.88681   0.00000  Uiso   1.00
O1323  O     0.95419   0.79581   0.87154   0.00000  Uiso   1.00
O1324  O     0.86489   0.79726   0.77985   0.00000  Uiso   1.00
O1325  O     0.94536   0.88319   0.89072   0.00000  Uiso   1.00
O1326  O     0.55464   0.61681   0.77595   0.00000  Uiso   1.00
O1327  O     0.70756   0.85083   0.80247   0.00000  Uiso   1.00
O1328  O     0.79244   0.64917   0.86420   0.00000  Uiso   1.00
O1329  O     0.89550   0.53880   0.79903   0.00000  Uiso   1.00
O1330  O     0.60450   0.96120   0.86764   0.00000  Uiso   1.00
O1331  O     0.88511   0.95274   0.88681   0.00000  Uiso   1.00
O1332  O     0.61489   0.54726   0.77985   0.00000  Uiso   1.00
O1333  O     0.69536   0.63319   0.89072   0.00000  Uiso   1.00
O1334  O     0.54580   0.70419   0.79513   0.00000  Uiso   1.00
O1335  O     0.80464   0.86681   0.77595   0.00000  Uiso   1.00
O1336  O     0.95419   0.70419   0.79513   0.00000  Uiso   1.00
O1337  O     0.54580   0.79581   0.87154   0.00000  Uiso   1.00
O1338  O     0.54580   0.79581   0.79513   0.00000  Uiso   1.00
O1339  O     0.95419   0.70419   0.87154   0.00000  Uiso   1.00
O1340  O     0.79580   0.95419   0.87154   0.00000  Uiso   1.00
Zn1341 Zn    0.50000   0.75000   0.88437   0.00000  Uiso   1.00
Zn1342 Zn    0.50000   0.75000   0.78229   0.00000  Uiso   1.00
Zn1343 Zn    0.75000   0.50000   0.88437   0.00000  Uiso   1.00
Zn1344 Zn    0.75000   0.50000   0.78229   0.00000  Uiso   1.00
loop_
_geom_bond_atom_site_label_1
_geom_bond_atom_site_label_2
_geom_bond_distance
_geom_bond_site_symmetry_2
_ccdc_geom_bond_type
C1     O69     1.295   .     A
C1     C30     1.422   .     S
C1     O102    1.291   .     A
C2     N177    1.379   .     A
C2     O78     1.376   .     S
C2     C451    1.416   .     S
C3     O79     1.375   .     S
C3     N178    1.377   .     A
C3     C898    1.416   1_554 S
C4     O81     1.375   .     S
C4     C488    1.416   .     S
C4     N65     1.377   .     S
C5     O82     1.376   .     S
C5     C904    1.416   1_554 S
C5     N68     1.379   .     S
C6     O83     1.376   .     S
C6     N291    1.379   .     A
C6     C455    1.416   .     S
C7     O84     1.375   .     S
C7     N292    1.377   .     A
C7     C902    1.416   1_554 S
C8     O85     1.375   .     S
C8     C453    1.416   .     S
C8     N67     1.377   .     S
C9     O86     1.384   .     S
C9     C20     1.377   .     A
C9     C28     1.409   .     A
C10    C27     1.409   .     A
C10    C21     1.377   .     A
C10    O87     1.384   .     S
C11    C18     1.377   .     A
C11    C27     1.412   .     A
C11    O88     1.386   .     S
C12    C29     1.422   .     S
C12    O91     1.291   .     A
C12    O80     1.295   .     A
C13    C28     1.412   .     A
C13    C19     1.377   .     A
C13    O89     1.386   .     S
C14    O90     1.385   .     S
C14    C30     1.409   .     A
C14    C25     1.389   .     A
C15    O92     1.384   .     S
C15    C29     1.409   .     A
C15    C26     1.389   .     A
C16    O93     1.385   .     S
C16    C29     1.404   .     A
C16    C22     1.389   .     A
C17    C30     1.404   .     A
C17    C24     1.389   .     A
C17    O94     1.385   .     S
C18    O95     1.384   .     S
C18    C32     1.409   .     A
C19    C31     1.409   .     A
C19    O96     1.384   .     S
C20    O97     1.386   .     S
C20    C31     1.412   .     A
C21    C32     1.412   .     A
C21    O98     1.386   .     S
C22    C35     1.409   .     A
C22    O99     1.384   .     S
C23    O104    1.292   .     A
C23    O107    1.288   .     A
C23    C28     1.411   .     S
C24    O100    1.385   .     S
C24    C33     1.409   .     A
C25    O101    1.385   .     S
C25    C33     1.404   .     A
C26    O103    1.385   .     S
C26    C35     1.404   .     A
C27    C34     1.411   .     S
C31    C39     1.411   .     S
C32    C38     1.411   .     S
C33    C37     1.422   .     S
C34    O106    1.288   .     A
C34    O105    1.292   .     A
C35    C36     1.422   .     S
C36    O108    1.295   .     A
C36    O72     1.291   .     A
C37    O70     1.295   .     A
C37    O71     1.291   .     A
C38    O76     1.288   .     A
C38    O73     1.292   .     A
C39    O74     1.292   .     A
C39    O75     1.288   .     A
C40    O77     1.376   .     S
C40    C900    1.416   1_554 S
C40    N66     1.379   .     S
H41    O77     0.979   .     S
H42    O87     0.988   .     S
H43    O88     0.986   .     S
H44    O89     0.986   .     S
H45    O90     0.989   .     S
H46    O92     0.989   .     S
H47    O93     0.989   .     S
H48    O94     0.989   .     S
H49    O95     0.988   .     S
H50    O96     0.988   .     S
H51    O97     0.986   .     S
H52    O78     0.979   .     S
H53    O98     0.986   .     S
H54    O99     0.989   .     S
H55    O100    0.989   .     S
H56    O101    0.989   .     S
H57    O103    0.989   .     S
H58    O79     0.979   .     S
H59    O81     0.979   .     S
H60    O82     0.979   .     S
H61    O83     0.979   .     S
H62    O84     0.979   .     S
H63    O85     0.979   .     S
H64    O86     0.988   .     S
N65    C114    1.379   1_455 A
N65    Zn109   2.038   .     S
N66    C115    1.377   1_455 A
N66    Zn110   2.038   .     S
N67    C230    1.379   1_545 A
N67    Zn111   2.038   .     S
N68    Zn112   2.038   .     S
N68    C231    1.377   1_545 A
O69    Zn109   1.992   .     S
O70    Zn112   1.992   .     S
O71    Zn111   2.005   .     S
O72    Zn336   2.005   .     S
O73    Zn336   1.988   .     S
O74    Zn111   1.988   .     S
O75    Zn112   1.990   .     S
O76    Zn335   1.990   .     S
O80    Zn222   1.992   .     S
O91    Zn221   2.005   .     S
O102   Zn110   2.005   .     S
O104   Zn222   1.988   .     S
O105   Zn109   1.988   .     S
O106   Zn110   1.990   .     S
O107   Zn221   1.990   .     S
O108   Zn335   1.992   .     S
Zn109  O219    1.990   1_455 S
Zn109  O203    2.005   1_455 S
Zn110  O216    1.988   1_455 S
Zn110  O192    1.992   1_455 S
Zn111  O300    1.990   1_545 S
Zn111  O332    1.992   1_545 S
Zn112  O296    2.005   1_545 S
Zn112  O297    1.988   1_545 S
C113   O181    1.295   .     A
C113   C142    1.422   .     S
C113   O214    1.291   .     A
C114   N65     1.379   1_655 A
C114   O190    1.376   .     S
C114   C563    1.416   .     S
C115   O191    1.375   .     S
C115   N66     1.377   1_655 A
C115   C1010   1.416   1_554 S
C116   O193    1.375   .     S
C116   C600    1.416   .     S
C116   N177    1.377   .     S
C117   O194    1.376   .     S
C117   C1016   1.416   1_554 S
C117   N180    1.379   .     S
C118   O195    1.376   .     S
C118   N403    1.379   .     A
C118   C567    1.416   .     S
C119   O196    1.375   .     S
C119   N404    1.377   .     A
C119   C1014   1.416   1_554 S
C120   O197    1.375   .     S
C120   C565    1.416   .     S
C120   N179    1.377   .     S
C121   O198    1.384   .     S
C121   C132    1.377   .     A
C121   C140    1.409   .     A
C122   C139    1.409   .     A
C122   C133    1.377   .     A
C122   O199    1.384   .     S
C123   C130    1.377   .     A
C123   C139    1.412   .     A
C123   O200    1.386   .     S
C124   C141    1.422   .     S
C124   O203    1.291   .     A
C124   O192    1.295   .     A
C125   C140    1.412   .     A
C125   C131    1.377   .     A
C125   O201    1.386   .     S
C126   O202    1.385   .     S
C126   C142    1.409   .     A
C126   C137    1.389   .     A
C127   O204    1.384   .     S
C127   C141    1.409   .     A
C127   C138    1.389   .     A
C128   O205    1.385   .     S
C128   C141    1.404   .     A
C128   C134    1.389   .     A
C129   C142    1.404   .     A
C129   C136    1.389   .     A
C129   O206    1.385   .     S
C130   O207    1.384   .     S
C130   C144    1.409   .     A
C131   C143    1.409   .     A
C131   O208    1.384   .     S
C132   O209    1.386   .     S
C132   C143    1.412   .     A
C133   C144    1.412   .     A
C133   O210    1.386   .     S
C134   C147    1.409   .     A
C134   O211    1.384   .     S
C135   O216    1.292   .     A
C135   O219    1.288   .     A
C135   C140    1.411   .     S
C136   O212    1.385   .     S
C136   C145    1.409   .     A
C137   O213    1.385   .     S
C137   C145    1.404   .     A
C138   O215    1.385   .     S
C138   C147    1.404   .     A
C139   C146    1.411   .     S
C143   C151    1.411   .     S
C144   C150    1.411   .     S
C145   C149    1.422   .     S
C146   O218    1.288   .     A
C146   O217    1.292   .     A
C147   C148    1.422   .     S
C148   O220    1.295   .     A
C148   O184    1.291   .     A
C149   O182    1.295   .     A
C149   O183    1.291   .     A
C150   O188    1.288   .     A
C150   O185    1.292   .     A
C151   O186    1.292   .     A
C151   O187    1.288   .     A
C152   O189    1.376   .     S
C152   C1012   1.416   1_554 S
C152   N178    1.379   .     S
H153   O189    0.979   .     S
H154   O199    0.988   .     S
H155   O200    0.986   .     S
H156   O201    0.986   .     S
H157   O202    0.989   .     S
H158   O204    0.989   .     S
H159   O205    0.989   .     S
H160   O206    0.989   .     S
H161   O207    0.988   .     S
H162   O208    0.988   .     S
H163   O209    0.986   .     S
H164   O190    0.979   .     S
H165   O210    0.986   .     S
H166   O211    0.989   .     S
H167   O212    0.989   .     S
H168   O213    0.989   .     S
H169   O215    0.989   .     S
H170   O191    0.979   .     S
H171   O193    0.979   .     S
H172   O194    0.979   .     S
H173   O195    0.979   .     S
H174   O196    0.979   .     S
H175   O197    0.979   .     S
H176   O198    0.988   .     S
N177   Zn221   2.038   .     S
N178   Zn222   2.038   .     S
N179   C342    1.379   1_545 A
N179   Zn223   2.038   .     S
N180   Zn224   2.038   .     S
N180   C343    1.377   1_545 A
O181   Zn221   1.992   .     S
O182   Zn224   1.992   .     S
O183   Zn223   2.005   .     S
O184   Zn448   2.005   .     S
O185   Zn448   1.988   .     S
O186   Zn223   1.988   .     S
O187   Zn224   1.990   .     S
O188   Zn447   1.990   .     S
O192   Zn110   1.992   1_655 S
O203   Zn109   2.005   1_655 S
O214   Zn222   2.005   .     S
O216   Zn110   1.988   1_655 S
O217   Zn221   1.988   .     S
O218   Zn222   1.990   .     S
O219   Zn109   1.990   1_655 S
O220   Zn447   1.992   .     S
Zn223  O412    1.990   1_545 S
Zn223  O444    1.992   1_545 S
Zn224  O408    2.005   1_545 S
Zn224  O409    1.988   1_545 S
C225   O293    1.295   .     A
C225   C254    1.422   .     S
C225   O326    1.291   .     A
C226   N401    1.379   .     A
C226   O302    1.376   .     S
C226   C675    1.416   .     S
C227   O303    1.375   .     S
C227   N402    1.377   .     A
C227   C1122   1.416   1_554 S
C228   O305    1.375   .     S
C228   C712    1.416   .     S
C228   N289    1.377   .     S
C229   O306    1.376   .     S
C229   C1128   1.416   1_554 S
C229   N292    1.379   .     S
C230   O307    1.376   .     S
C230   N67     1.379   1_565 A
C230   C679    1.416   .     S
C231   O308    1.375   .     S
C231   N68     1.377   1_565 A
C231   C1126   1.416   1_554 S
C232   O309    1.375   .     S
C232   C677    1.416   .     S
C232   N291    1.377   .     S
C233   O310    1.384   .     S
C233   C244    1.377   .     A
C233   C252    1.409   .     A
C234   C251    1.409   .     A
C234   C245    1.377   .     A
C234   O311    1.384   .     S
C235   C242    1.377   .     A
C235   C251    1.412   .     A
C235   O312    1.386   .     S
C236   C253    1.422   .     S
C236   O315    1.291   .     A
C236   O304    1.295   .     A
C237   C252    1.412   .     A
C237   C243    1.377   .     A
C237   O313    1.386   .     S
C238   O314    1.385   .     S
C238   C254    1.409   .     A
C238   C249    1.389   .     A
C239   O316    1.384   .     S
C239   C253    1.409   .     A
C239   C250    1.389   .     A
C240   O317    1.385   .     S
C240   C253    1.404   .     A
C240   C246    1.389   .     A
C241   C254    1.404   .     A
C241   C248    1.389   .     A
C241   O318    1.385   .     S
C242   O319    1.384   .     S
C242   C256    1.409   .     A
C243   C255    1.409   .     A
C243   O320    1.384   .     S
C244   O321    1.386   .     S
C244   C255    1.412   .     A
C245   C256    1.412   .     A
C245   O322    1.386   .     S
C246   C259    1.409   .     A
C246   O323    1.384   .     S
C247   O328    1.292   .     A
C247   O331    1.288   .     A
C247   C252    1.411   .     S
C248   O324    1.385   .     S
C248   C257    1.409   .     A
C249   O325    1.385   .     S
C249   C257    1.404   .     A
C250   O327    1.385   .     S
C250   C259    1.404   .     A
C251   C258    1.411   .     S
C255   C263    1.411   .     S
C256   C262    1.411   .     S
C257   C261    1.422   .     S
C258   O330    1.288   .     A
C258   O329    1.292   .     A
C259   C260    1.422   .     S
C260   O332    1.295   .     A
C260   O296    1.291   .     A
C261   O294    1.295   .     A
C261   O295    1.291   .     A
C262   O300    1.288   .     A
C262   O297    1.292   .     A
C263   O298    1.292   .     A
C263   O299    1.288   .     A
C264   O301    1.376   .     S
C264   C1124   1.416   1_554 S
C264   N290    1.379   .     S
H265   O301    0.979   .     S
H266   O311    0.988   .     S
H267   O312    0.986   .     S
H268   O313    0.986   .     S
H269   O314    0.989   .     S
H270   O316    0.989   .     S
H271   O317    0.989   .     S
H272   O318    0.989   .     S
H273   O319    0.988   .     S
H274   O320    0.988   .     S
H275   O321    0.986   .     S
H276   O302    0.979   .     S
H277   O322    0.986   .     S
H278   O323    0.989   .     S
H279   O324    0.989   .     S
H280   O325    0.989   .     S
H281   O327    0.989   .     S
H282   O303    0.979   .     S
H283   O305    0.979   .     S
H284   O306    0.979   .     S
H285   O307    0.979   .     S
H286   O308    0.979   .     S
H287   O309    0.979   .     S
H288   O310    0.988   .     S
N289   C338    1.379   1_455 A
N289   Zn333   2.038   .     S
N290   C339    1.377   1_455 A
N290   Zn334   2.038   .     S
N291   Zn335   2.038   .     S
N292   Zn336   2.038   .     S
O293   Zn333   1.992   .     S
O294   Zn336   1.992   .     S
O295   Zn335   2.005   .     S
O296   Zn112   2.005   1_565 S
O297   Zn112   1.988   1_565 S
O298   Zn335   1.988   .     S
O299   Zn336   1.990   .     S
O300   Zn111   1.990   1_565 S
O304   Zn446   1.992   .     S
O315   Zn445   2.005   .     S
O326   Zn334   2.005   .     S
O328   Zn446   1.988   .     S
O329   Zn333   1.988   .     S
O330   Zn334   1.990   .     S
O331   Zn445   1.990   .     S
O332   Zn111   1.992   1_565 S
Zn333  O443    1.990   1_455 S
Zn333  O427    2.005   1_455 S
Zn334  O440    1.988   1_455 S
Zn334  O416    1.992   1_455 S
C337   O405    1.295   .     A
C337   C366    1.422   .     S
C337   O438    1.291   .     A
C338   N289    1.379   1_655 A
C338   O414    1.376   .     S
C338   C787    1.416   .     S
C339   O415    1.375   .     S
C339   N290    1.377   1_655 A
C339   C1234   1.416   1_554 S
C340   O417    1.375   .     S
C340   C824    1.416   .     S
C340   N401    1.377   .     S
C341   O418    1.376   .     S
C341   C1240   1.416   1_554 S
C341   N404    1.379   .     S
C342   O419    1.376   .     S
C342   N179    1.379   1_565 A
C342   C791    1.416   .     S
C343   O420    1.375   .     S
C343   N180    1.377   1_565 A
C343   C1238   1.416   1_554 S
C344   O421    1.375   .     S
C344   C789    1.416   .     S
C344   N403    1.377   .     S
C345   O422    1.384   .     S
C345   C356    1.377   .     A
C345   C364    1.409   .     A
C346   C363    1.409   .     A
C346   C357    1.377   .     A
C346   O423    1.384   .     S
C347   C354    1.377   .     A
C347   C363    1.412   .     A
C347   O424    1.386   .     S
C348   C365    1.422   .     S
C348   O427    1.291   .     A
C348   O416    1.295   .     A
C349   C364    1.412   .     A
C349   C355    1.377   .     A
C349   O425    1.386   .     S
C350   O426    1.385   .     S
C350   C366    1.409   .     A
C350   C361    1.389   .     A
C351   O428    1.384   .     S
C351   C365    1.409   .     A
C351   C362    1.389   .     A
C352   O429    1.385   .     S
C352   C365    1.404   .     A
C352   C358    1.389   .     A
C353   C366    1.404   .     A
C353   C360    1.389   .     A
C353   O430    1.385   .     S
C354   O431    1.384   .     S
C354   C368    1.409   .     A
C355   C367    1.409   .     A
C355   O432    1.384   .     S
C356   O433    1.386   .     S
C356   C367    1.412   .     A
C357   C368    1.412   .     A
C357   O434    1.386   .     S
C358   C371    1.409   .     A
C358   O435    1.384   .     S
C359   O440    1.292   .     A
C359   O443    1.288   .     A
C359   C364    1.411   .     S
C360   O436    1.385   .     S
C360   C369    1.409   .     A
C361   O437    1.385   .     S
C361   C369    1.404   .     A
C362   O439    1.385   .     S
C362   C371    1.404   .     A
C363   C370    1.411   .     S
C367   C375    1.411   .     S
C368   C374    1.411   .     S
C369   C373    1.422   .     S
C370   O442    1.288   .     A
C370   O441    1.292   .     A
C371   C372    1.422   .     S
C372   O444    1.295   .     A
C372   O408    1.291   .     A
C373   O406    1.295   .     A
C373   O407    1.291   .     A
C374   O412    1.288   .     A
C374   O409    1.292   .     A
C375   O410    1.292   .     A
C375   O411    1.288   .     A
C376   O413    1.376   .     S
C376   C1236   1.416   1_554 S
C376   N402    1.379   .     S
H377   O413    0.979   .     S
H378   O423    0.988   .     S
H379   O424    0.986   .     S
H380   O425    0.986   .     S
H381   O426    0.989   .     S
H382   O428    0.989   .     S
H383   O429    0.989   .     S
H384   O430    0.989   .     S
H385   O431    0.988   .     S
H386   O432    0.988   .     S
H387   O433    0.986   .     S
H388   O414    0.979   .     S
H389   O434    0.986   .     S
H390   O435    0.989   .     S
H391   O436    0.989   .     S
H392   O437    0.989   .     S
H393   O439    0.989   .     S
H394   O415    0.979   .     S
H395   O417    0.979   .     S
H396   O418    0.979   .     S
H397   O419    0.979   .     S
H398   O420    0.979   .     S
H399   O421    0.979   .     S
H400   O422    0.988   .     S
N401   Zn445   2.038   .     S
N402   Zn446   2.038   .     S
N403   Zn447   2.038   .     S
N404   Zn448   2.038   .     S
O405   Zn445   1.992   .     S
O406   Zn448   1.992   .     S
O407   Zn447   2.005   .     S
O408   Zn224   2.005   1_565 S
O409   Zn224   1.988   1_565 S
O410   Zn447   1.988   .     S
O411   Zn448   1.990   .     S
O412   Zn223   1.990   1_565 S
O416   Zn334   1.992   1_655 S
O427   Zn333   2.005   1_655 S
O438   Zn446   2.005   .     S
O440   Zn334   1.988   1_655 S
O441   Zn445   1.988   .     S
O442   Zn446   1.990   .     S
O443   Zn333   1.990   1_655 S
O444   Zn223   1.992   1_565 S
C449   O517    1.295   .     A
C449   C478    1.422   .     S
C449   O550    1.291   .     A
C450   N625    1.379   .     A
C450   O526    1.376   .     S
C450   C899    1.416   .     S
C451   O527    1.375   .     S
C451   N626    1.377   .     A
C452   O529    1.375   .     S
C452   C936    1.416   .     S
C452   N513    1.377   .     S
C453   O530    1.376   .     S
C453   N516    1.379   .     S
C454   O531    1.376   .     S
C454   N739    1.379   .     A
C454   C903    1.416   .     S
C455   O532    1.375   .     S
C455   N740    1.377   .     A
C456   O533    1.375   .     S
C456   C901    1.416   .     S
C456   N515    1.377   .     S
C457   O534    1.384   .     S
C457   C468    1.377   .     A
C457   C476    1.409   .     A
C458   C475    1.409   .     A
C458   C469    1.377   .     A
C458   O535    1.384   .     S
C459   C466    1.377   .     A
C459   C475    1.412   .     A
C459   O536    1.386   .     S
C460   C477    1.422   .     S
C460   O539    1.291   .     A
C460   O528    1.295   .     A
C461   C476    1.412   .     A
C461   C467    1.377   .     A
C461   O537    1.386   .     S
C462   O538    1.385   .     S
C462   C478    1.409   .     A
C462   C473    1.389   .     A
C463   O540    1.384   .     S
C463   C477    1.409   .     A
C463   C474    1.389   .     A
C464   O541    1.385   .     S
C464   C477    1.404   .     A
C464   C470    1.389   .     A
C465   C478    1.404   .     A
C465   C472    1.389   .     A
C465   O542    1.385   .     S
C466   O543    1.384   .     S
C466   C480    1.409   .     A
C467   C479    1.409   .     A
C467   O544    1.384   .     S
C468   O545    1.386   .     S
C468   C479    1.412   .     A
C469   C480    1.412   .     A
C469   O546    1.386   .     S
C470   C483    1.409   .     A
C470   O547    1.384   .     S
C471   O552    1.292   .     A
C471   O555    1.288   .     A
C471   C476    1.411   .     S
C472   O548    1.385   .     S
C472   C481    1.409   .     A
C473   O549    1.385   .     S
C473   C481    1.404   .     A
C474   O551    1.385   .     S
C474   C483    1.404   .     A
C475   C482    1.411   .     S
C479   C487    1.411   .     S
C480   C486    1.411   .     S
C481   C485    1.422   .     S
C482   O554    1.288   .     A
C482   O553    1.292   .     A
C483   C484    1.422   .     S
C484   O556    1.295   .     A
C484   O520    1.291   .     A
C485   O518    1.295   .     A
C485   O519    1.291   .     A
C486   O524    1.288   .     A
C486   O521    1.292   .     A
C487   O522    1.292   .     A
C487   O523    1.288   .     A
C488   O525    1.376   .     S
C488   N514    1.379   .     S
H489   O525    0.979   .     S
H490   O535    0.988   .     S
H491   O536    0.986   .     S
H492   O537    0.986   .     S
H493   O538    0.989   .     S
H494   O540    0.989   .     S
H495   O541    0.989   .     S
H496   O542    0.989   .     S
H497   O543    0.988   .     S
H498   O544    0.988   .     S
H499   O545    0.986   .     S
H500   O526    0.979   .     S
H501   O546    0.986   .     S
H502   O547    0.989   .     S
H503   O548    0.989   .     S
H504   O549    0.989   .     S
H505   O551    0.989   .     S
H506   O527    0.979   .     S
H507   O529    0.979   .     S
H508   O530    0.979   .     S
H509   O531    0.979   .     S
H510   O532    0.979   .     S
H511   O533    0.979   .     S
H512   O534    0.988   .     S
N513   C562    1.379   1_455 A
N513   Zn557   2.038   .     S
N514   C563    1.377   1_455 A
N514   Zn558   2.038   .     S
N515   C678    1.379   1_545 A
N515   Zn559   2.038   .     S
N516   Zn560   2.038   .     S
N516   C679    1.377   1_545 A
O517   Zn557   1.992   .     S
O518   Zn560   1.992   .     S
O519   Zn559   2.005   .     S
O520   Zn784   2.005   .     S
O521   Zn784   1.988   .     S
O522   Zn559   1.988   .     S
O523   Zn560   1.990   .     S
O524   Zn783   1.990   .     S
O528   Zn670   1.992   .     S
O539   Zn669   2.005   .     S
O550   Zn558   2.005   .     S
O552   Zn670   1.988   .     S
O553   Zn557   1.988   .     S
O554   Zn558   1.990   .     S
O555   Zn669   1.990   .     S
O556   Zn783   1.992   .     S
Zn557  O667    1.990   1_455 S
Zn557  O651    2.005   1_455 S
Zn558  O664    1.988   1_455 S
Zn558  O640    1.992   1_455 S
Zn559  O748    1.990   1_545 S
Zn559  O780    1.992   1_545 S
Zn560  O744    2.005   1_545 S
Zn560  O745    1.988   1_545 S
C561   O629    1.295   .     A
C561   C590    1.422   .     S
C561   O662    1.291   .     A
C562   N513    1.379   1_655 A
C562   O638    1.376   .     S
C562   C1011   1.416   .     S
C563   O639    1.375   .     S
C563   N514    1.377   1_655 A
C564   O641    1.375   .     S
C564   C1048   1.416   .     S
C564   N625    1.377   .     S
C565   O642    1.376   .     S
C565   N628    1.379   .     S
C566   O643    1.376   .     S
C566   N851    1.379   .     A
C566   C1015   1.416   .     S
C567   O644    1.375   .     S
C567   N852    1.377   .     A
C568   O645    1.375   .     S
C568   C1013   1.416   .     S
C568   N627    1.377   .     S
C569   O646    1.384   .     S
C569   C580    1.377   .     A
C569   C588    1.409   .     A
C570   C587    1.409   .     A
C570   C581    1.377   .     A
C570   O647    1.384   .     S
C571   C578    1.377   .     A
C571   C587    1.412   .     A
C571   O648    1.386   .     S
C572   C589    1.422   .     S
C572   O651    1.291   .     A
C572   O640    1.295   .     A
C573   C588    1.412   .     A
C573   C579    1.377   .     A
C573   O649    1.386   .     S
C574   O650    1.385   .     S
C574   C590    1.409   .     A
C574   C585    1.389   .     A
C575   O652    1.384   .     S
C575   C589    1.409   .     A
C575   C586    1.389   .     A
C576   O653    1.385   .     S
C576   C589    1.404   .     A
C576   C582    1.389   .     A
C577   C590    1.404   .     A
C577   C584    1.389   .     A
C577   O654    1.385   .     S
C578   O655    1.384   .     S
C578   C592    1.409   .     A
C579   C591    1.409   .     A
C579   O656    1.384   .     S
C580   O657    1.386   .     S
C580   C591    1.412   .     A
C581   C592    1.412   .     A
C581   O658    1.386   .     S
C582   C595    1.409   .     A
C582   O659    1.384   .     S
C583   O664    1.292   .     A
C583   O667    1.288   .     A
C583   C588    1.411   .     S
C584   O660    1.385   .     S
C584   C593    1.409   .     A
C585   O661    1.385   .     S
C585   C593    1.404   .     A
C586   O663    1.385   .     S
C586   C595    1.404   .     A
C587   C594    1.411   .     S
C591   C599    1.411   .     S
C592   C598    1.411   .     S
C593   C597    1.422   .     S
C594   O666    1.288   .     A
C594   O665    1.292   .     A
C595   C596    1.422   .     S
C596   O668    1.295   .     A
C596   O632    1.291   .     A
C597   O630    1.295   .     A
C597   O631    1.291   .     A
C598   O636    1.288   .     A
C598   O633    1.292   .     A
C599   O634    1.292   .     A
C599   O635    1.288   .     A
C600   O637    1.376   .     S
C600   N626    1.379   .     S
H601   O637    0.979   .     S
H602   O647    0.988   .     S
H603   O648    0.986   .     S
H604   O649    0.986   .     S
H605   O650    0.989   .     S
H606   O652    0.989   .     S
H607   O653    0.989   .     S
H608   O654    0.989   .     S
H609   O655    0.988   .     S
H610   O656    0.988   .     S
H611   O657    0.986   .     S
H612   O638    0.979   .     S
H613   O658    0.986   .     S
H614   O659    0.989   .     S
H615   O660    0.989   .     S
H616   O661    0.989   .     S
H617   O663    0.989   .     S
H618   O639    0.979   .     S
H619   O641    0.979   .     S
H620   O642    0.979   .     S
H621   O643    0.979   .     S
H622   O644    0.979   .     S
H623   O645    0.979   .     S
H624   O646    0.988   .     S
N625   Zn669   2.038   .     S
N626   Zn670   2.038   .     S
N627   C790    1.379   1_545 A
N627   Zn671   2.038   .     S
N628   Zn672   2.038   .     S
N628   C791    1.377   1_545 A
O629   Zn669   1.992   .     S
O630   Zn672   1.992   .     S
O631   Zn671   2.005   .     S
O632   Zn896   2.005   .     S
O633   Zn896   1.988   .     S
O634   Zn671   1.988   .     S
O635   Zn672   1.990   .     S
O636   Zn895   1.990   .     S
O640   Zn558   1.992   1_655 S
O651   Zn557   2.005   1_655 S
O662   Zn670   2.005   .     S
O664   Zn558   1.988   1_655 S
O665   Zn669   1.988   .     S
O666   Zn670   1.990   .     S
O667   Zn557   1.990   1_655 S
O668   Zn895   1.992   .     S
Zn671  O860    1.990   1_545 S
Zn671  O892    1.992   1_545 S
Zn672  O856    2.005   1_545 S
Zn672  O857    1.988   1_545 S
C673   O741    1.295   .     A
C673   C702    1.422   .     S
C673   O774    1.291   .     A
C674   N849    1.379   .     A
C674   O750    1.376   .     S
C674   C1123   1.416   .     S
C675   O751    1.375   .     S
C675   N850    1.377   .     A
C676   O753    1.375   .     S
C676   C1160   1.416   .     S
C676   N737    1.377   .     S
C677   O754    1.376   .     S
C677   N740    1.379   .     S
C678   O755    1.376   .     S
C678   N515    1.379   1_565 A
C678   C1127   1.416   .     S
C679   O756    1.375   .     S
C679   N516    1.377   1_565 A
C680   O757    1.375   .     S
C680   C1125   1.416   .     S
C680   N739    1.377   .     S
C681   O758    1.384   .     S
C681   C692    1.377   .     A
C681   C700    1.409   .     A
C682   C699    1.409   .     A
C682   C693    1.377   .     A
C682   O759    1.384   .     S
C683   C690    1.377   .     A
C683   C699    1.412   .     A
C683   O760    1.386   .     S
C684   C701    1.422   .     S
C684   O763    1.291   .     A
C684   O752    1.295   .     A
C685   C700    1.412   .     A
C685   C691    1.377   .     A
C685   O761    1.386   .     S
C686   O762    1.385   .     S
C686   C702    1.409   .     A
C686   C697    1.389   .     A
C687   O764    1.384   .     S
C687   C701    1.409   .     A
C687   C698    1.389   .     A
C688   O765    1.385   .     S
C688   C701    1.404   .     A
C688   C694    1.389   .     A
C689   C702    1.404   .     A
C689   C696    1.389   .     A
C689   O766    1.385   .     S
C690   O767    1.384   .     S
C690   C704    1.409   .     A
C691   C703    1.409   .     A
C691   O768    1.384   .     S
C692   O769    1.386   .     S
C692   C703    1.412   .     A
C693   C704    1.412   .     A
C693   O770    1.386   .     S
C694   C707    1.409   .     A
C694   O771    1.384   .     S
C695   O776    1.292   .     A
C695   O779    1.288   .     A
C695   C700    1.411   .     S
C696   O772    1.385   .     S
C696   C705    1.409   .     A
C697   O773    1.385   .     S
C697   C705    1.404   .     A
C698   O775    1.385   .     S
C698   C707    1.404   .     A
C699   C706    1.411   .     S
C703   C711    1.411   .     S
C704   C710    1.411   .     S
C705   C709    1.422   .     S
C706   O778    1.288   .     A
C706   O777    1.292   .     A
C707   C708    1.422   .     S
C708   O780    1.295   .     A
C708   O744    1.291   .     A
C709   O742    1.295   .     A
C709   O743    1.291   .     A
C710   O748    1.288   .     A
C710   O745    1.292   .     A
C711   O746    1.292   .     A
C711   O747    1.288   .     A
C712   O749    1.376   .     S
C712   N738    1.379   .     S
H713   O749    0.979   .     S
H714   O759    0.988   .     S
H715   O760    0.986   .     S
H716   O761    0.986   .     S
H717   O762    0.989   .     S
H718   O764    0.989   .     S
H719   O765    0.989   .     S
H720   O766    0.989   .     S
H721   O767    0.988   .     S
H722   O768    0.988   .     S
H723   O769    0.986   .     S
H724   O750    0.979   .     S
H725   O770    0.986   .     S
H726   O771    0.989   .     S
H727   O772    0.989   .     S
H728   O773    0.989   .     S
H729   O775    0.989   .     S
H730   O751    0.979   .     S
H731   O753    0.979   .     S
H732   O754    0.979   .     S
H733   O755    0.979   .     S
H734   O756    0.979   .     S
H735   O757    0.979   .     S
H736   O758    0.988   .     S
N737   C786    1.379   1_455 A
N737   Zn781   2.038   .     S
N738   C787    1.377   1_455 A
N738   Zn782   2.038   .     S
N739   Zn783   2.038   .     S
N740   Zn784   2.038   .     S
O741   Zn781   1.992   .     S
O742   Zn784   1.992   .     S
O743   Zn783   2.005   .     S
O744   Zn560   2.005   1_565 S
O745   Zn560   1.988   1_565 S
O746   Zn783   1.988   .     S
O747   Zn784   1.990   .     S
O748   Zn559   1.990   1_565 S
O752   Zn894   1.992   .     S
O763   Zn893   2.005   .     S
O774   Zn782   2.005   .     S
O776   Zn894   1.988   .     S
O777   Zn781   1.988   .     S
O778   Zn782   1.990   .     S
O779   Zn893   1.990   .     S
O780   Zn559   1.992   1_565 S
Zn781  O891    1.990   1_455 S
Zn781  O875    2.005   1_455 S
Zn782  O888    1.988   1_455 S
Zn782  O864    1.992   1_455 S
C785   O853    1.295   .     A
C785   C814    1.422   .     S
C785   O886    1.291   .     A
C786   N737    1.379   1_655 A
C786   O862    1.376   .     S
C786   C1235   1.416   .     S
C787   O863    1.375   .     S
C787   N738    1.377   1_655 A
C788   O865    1.375   .     S
C788   C1272   1.416   .     S
C788   N849    1.377   .     S
C789   O866    1.376   .     S
C789   N852    1.379   .     S
C790   O867    1.376   .     S
C790   N627    1.379   1_565 A
C790   C1239   1.416   .     S
C791   O868    1.375   .     S
C791   N628    1.377   1_565 A
C792   O869    1.375   .     S
C792   C1237   1.416   .     S
C792   N851    1.377   .     S
C793   O870    1.384   .     S
C793   C804    1.377   .     A
C793   C812    1.409   .     A
C794   C811    1.409   .     A
C794   C805    1.377   .     A
C794   O871    1.384   .     S
C795   C802    1.377   .     A
C795   C811    1.412   .     A
C795   O872    1.386   .     S
C796   C813    1.422   .     S
C796   O875    1.291   .     A
C796   O864    1.295   .     A
C797   C812    1.412   .     A
C797   C803    1.377   .     A
C797   O873    1.386   .     S
C798   O874    1.385   .     S
C798   C814    1.409   .     A
C798   C809    1.389   .     A
C799   O876    1.384   .     S
C799   C813    1.409   .     A
C799   C810    1.389   .     A
C800   O877    1.385   .     S
C800   C813    1.404   .     A
C800   C806    1.389   .     A
C801   C814    1.404   .     A
C801   C808    1.389   .     A
C801   O878    1.385   .     S
C802   O879    1.384   .     S
C802   C816    1.409   .     A
C803   C815    1.409   .     A
C803   O880    1.384   .     S
C804   O881    1.386   .     S
C804   C815    1.412   .     A
C805   C816    1.412   .     A
C805   O882    1.386   .     S
C806   C819    1.409   .     A
C806   O883    1.384   .     S
C807   O888    1.292   .     A
C807   O891    1.288   .     A
C807   C812    1.411   .     S
C808   O884    1.385   .     S
C808   C817    1.409   .     A
C809   O885    1.385   .     S
C809   C817    1.404   .     A
C810   O887    1.385   .     S
C810   C819    1.404   .     A
C811   C818    1.411   .     S
C815   C823    1.411   .     S
C816   C822    1.411   .     S
C817   C821    1.422   .     S
C818   O890    1.288   .     A
C818   O889    1.292   .     A
C819   C820    1.422   .     S
C820   O892    1.295   .     A
C820   O856    1.291   .     A
C821   O854    1.295   .     A
C821   O855    1.291   .     A
C822   O860    1.288   .     A
C822   O857    1.292   .     A
C823   O858    1.292   .     A
C823   O859    1.288   .     A
C824   O861    1.376   .     S
C824   N850    1.379   .     S
H825   O861    0.979   .     S
H826   O871    0.988   .     S
H827   O872    0.986   .     S
H828   O873    0.986   .     S
H829   O874    0.989   .     S
H830   O876    0.989   .     S
H831   O877    0.989   .     S
H832   O878    0.989   .     S
H833   O879    0.988   .     S
H834   O880    0.988   .     S
H835   O881    0.986   .     S
H836   O862    0.979   .     S
H837   O882    0.986   .     S
H838   O883    0.989   .     S
H839   O884    0.989   .     S
H840   O885    0.989   .     S
H841   O887    0.989   .     S
H842   O863    0.979   .     S
H843   O865    0.979   .     S
H844   O866    0.979   .     S
H845   O867    0.979   .     S
H846   O868    0.979   .     S
H847   O869    0.979   .     S
H848   O870    0.988   .     S
N849   Zn893   2.038   .     S
N850   Zn894   2.038   .     S
N851   Zn895   2.038   .     S
N852   Zn896   2.038   .     S
O853   Zn893   1.992   .     S
O854   Zn896   1.992   .     S
O855   Zn895   2.005   .     S
O856   Zn672   2.005   1_565 S
O857   Zn672   1.988   1_565 S
O858   Zn895   1.988   .     S
O859   Zn896   1.990   .     S
O860   Zn671   1.990   1_565 S
O864   Zn782   1.992   1_655 S
O875   Zn781   2.005   1_655 S
O886   Zn894   2.005   .     S
O888   Zn782   1.988   1_655 S
O889   Zn893   1.988   .     S
O890   Zn894   1.990   .     S
O891   Zn781   1.990   1_655 S
O892   Zn671   1.992   1_565 S
C897   O965    1.295   .     A
C897   C926    1.422   .     S
C897   O998    1.291   .     A
C898   N1073   1.379   .     A
C898   O974    1.376   .     S
C898   C3      1.416   1_556 S
C899   O975    1.375   .     S
C899   N1074   1.377   .     A
C900   O977    1.375   .     S
C900   C40     1.416   1_556 S
C900   N961    1.377   .     S
C901   O978    1.376   .     S
C901   N964    1.379   .     S
C902   O979    1.376   .     S
C902   N1187   1.379   .     A
C902   C7      1.416   1_556 S
C903   O980    1.375   .     S
C903   N1188   1.377   .     A
C904   O981    1.375   .     S
C904   C5      1.416   1_556 S
C904   N963    1.377   .     S
C905   O982    1.384   .     S
C905   C916    1.377   .     A
C905   C924    1.409   .     A
C906   C923    1.409   .     A
C906   C917    1.377   .     A
C906   O983    1.384   .     S
C907   C914    1.377   .     A
C907   C923    1.412   .     A
C907   O984    1.386   .     S
C908   C925    1.422   .     S
C908   O987    1.291   .     A
C908   O976    1.295   .     A
C909   C924    1.412   .     A
C909   C915    1.377   .     A
C909   O985    1.386   .     S
C910   O986    1.385   .     S
C910   C926    1.409   .     A
C910   C921    1.389   .     A
C911   O988    1.384   .     S
C911   C925    1.409   .     A
C911   C922    1.389   .     A
C912   O989    1.385   .     S
C912   C925    1.404   .     A
C912   C918    1.389   .     A
C913   C926    1.404   .     A
C913   C920    1.389   .     A
C913   O990    1.385   .     S
C914   O991    1.384   .     S
C914   C928    1.409   .     A
C915   C927    1.409   .     A
C915   O992    1.384   .     S
C916   O993    1.386   .     S
C916   C927    1.412   .     A
C917   C928    1.412   .     A
C917   O994    1.386   .     S
C918   C931    1.409   .     A
C918   O995    1.384   .     S
C919   O1000   1.292   .     A
C919   O1003   1.288   .     A
C919   C924    1.411   .     S
C920   O996    1.385   .     S
C920   C929    1.409   .     A
C921   O997    1.385   .     S
C921   C929    1.404   .     A
C922   O999    1.385   .     S
C922   C931    1.404   .     A
C923   C930    1.411   .     S
C927   C935    1.411   .     S
C928   C934    1.411   .     S
C929   C933    1.422   .     S
C930   O1002   1.288   .     A
C930   O1001   1.292   .     A
C931   C932    1.422   .     S
C932   O1004   1.295   .     A
C932   O968    1.291   .     A
C933   O966    1.295   .     A
C933   O967    1.291   .     A
C934   O972    1.288   .     A
C934   O969    1.292   .     A
C935   O970    1.292   .     A
C935   O971    1.288   .     A
C936   O973    1.376   .     S
C936   N962    1.379   .     S
H937   O973    0.979   .     S
H938   O983    0.988   .     S
H939   O984    0.986   .     S
H940   O985    0.986   .     S
H941   O986    0.989   .     S
H942   O988    0.989   .     S
H943   O989    0.989   .     S
H944   O990    0.989   .     S
H945   O991    0.988   .     S
H946   O992    0.988   .     S
H947   O993    0.986   .     S
H948   O974    0.979   .     S
H949   O994    0.986   .     S
H950   O995    0.989   .     S
H951   O996    0.989   .     S
H952   O997    0.989   .     S
H953   O999    0.989   .     S
H954   O975    0.979   .     S
H955   O977    0.979   .     S
H956   O978    0.979   .     S
H957   O979    0.979   .     S
H958   O980    0.979   .     S
H959   O981    0.979   .     S
H960   O982    0.988   .     S
N961   C1010   1.379   1_455 A
N961   Zn1005  2.038   .     S
N962   C1011   1.377   1_455 A
N962   Zn1006  2.038   .     S
N963   C1126   1.379   1_545 A
N963   Zn1007  2.038   .     S
N964   Zn1008  2.038   .     S
N964   C1127   1.377   1_545 A
O965   Zn1005  1.992   .     S
O966   Zn1008  1.992   .     S
O967   Zn1007  2.005   .     S
O968   Zn1232  2.005   .     S
O969   Zn1232  1.988   .     S
O970   Zn1007  1.988   .     S
O971   Zn1008  1.990   .     S
O972   Zn1231  1.990   .     S
O976   Zn1118  1.992   .     S
O987   Zn1117  2.005   .     S
O998   Zn1006  2.005   .     S
O1000  Zn1118  1.988   .     S
O1001  Zn1005  1.988   .     S
O1002  Zn1006  1.990   .     S
O1003  Zn1117  1.990   .     S
O1004  Zn1231  1.992   .     S
Zn1005 O1115   1.990   1_455 S
Zn1005 O1099   2.005   1_455 S
Zn1006 O1112   1.988   1_455 S
Zn1006 O1088   1.992   1_455 S
Zn1007 O1196   1.990   1_545 S
Zn1007 O1228   1.992   1_545 S
Zn1008 O1192   2.005   1_545 S
Zn1008 O1193   1.988   1_545 S
C1009  O1077   1.295   .     A
C1009  C1038   1.422   .     S
C1009  O1110   1.291   .     A
C1010  N961    1.379   1_655 A
C1010  O1086   1.376   .     S
C1010  C115    1.416   1_556 S
C1011  O1087   1.375   .     S
C1011  N962    1.377   1_655 A
C1012  O1089   1.375   .     S
C1012  C152    1.416   1_556 S
C1012  N1073   1.377   .     S
C1013  O1090   1.376   .     S
C1013  N1076   1.379   .     S
C1014  O1091   1.376   .     S
C1014  N1299   1.379   .     A
C1014  C119    1.416   1_556 S
C1015  O1092   1.375   .     S
C1015  N1300   1.377   .     A
C1016  O1093   1.375   .     S
C1016  C117    1.416   1_556 S
C1016  N1075   1.377   .     S
C1017  O1094   1.384   .     S
C1017  C1028   1.377   .     A
C1017  C1036   1.409   .     A
C1018  C1035   1.409   .     A
C1018  C1029   1.377   .     A
C1018  O1095   1.384   .     S
C1019  C1026   1.377   .     A
C1019  C1035   1.412   .     A
C1019  O1096   1.386   .     S
C1020  C1037   1.422   .     S
C1020  O1099   1.291   .     A
C1020  O1088   1.295   .     A
C1021  C1036   1.412   .     A
C1021  C1027   1.377   .     A
C1021  O1097   1.386   .     S
C1022  O1098   1.385   .     S
C1022  C1038   1.409   .     A
C1022  C1033   1.389   .     A
C1023  O1100   1.384   .     S
C1023  C1037   1.409   .     A
C1023  C1034   1.389   .     A
C1024  O1101   1.385   .     S
C1024  C1037   1.404   .     A
C1024  C1030   1.389   .     A
C1025  C1038   1.404   .     A
C1025  C1032   1.389   .     A
C1025  O1102   1.385   .     S
C1026  O1103   1.384   .     S
C1026  C1040   1.409   .     A
C1027  C1039   1.409   .     A
C1027  O1104   1.384   .     S
C1028  O1105   1.386   .     S
C1028  C1039   1.412   .     A
C1029  C1040   1.412   .     A
C1029  O1106   1.386   .     S
C1030  C1043   1.409   .     A
C1030  O1107   1.384   .     S
C1031  O1112   1.292   .     A
C1031  O1115   1.288   .     A
C1031  C1036   1.411   .     S
C1032  O1108   1.385   .     S
C1032  C1041   1.409   .     A
C1033  O1109   1.385   .     S
C1033  C1041   1.404   .     A
C1034  O1111   1.385   .     S
C1034  C1043   1.404   .     A
C1035  C1042   1.411   .     S
C1039  C1047   1.411   .     S
C1040  C1046   1.411   .     S
C1041  C1045   1.422   .     S
C1042  O1114   1.288   .     A
C1042  O1113   1.292   .     A
C1043  C1044   1.422   .     S
C1044  O1116   1.295   .     A
C1044  O1080   1.291   .     A
C1045  O1078   1.295   .     A
C1045  O1079   1.291   .     A
C1046  O1084   1.288   .     A
C1046  O1081   1.292   .     A
C1047  O1082   1.292   .     A
C1047  O1083   1.288   .     A
C1048  O1085   1.376   .     S
C1048  N1074   1.379   .     S
H1049  O1085   0.979   .     S
H1050  O1095   0.988   .     S
H1051  O1096   0.986   .     S
H1052  O1097   0.986   .     S
H1053  O1098   0.989   .     S
H1054  O1100   0.989   .     S
H1055  O1101   0.989   .     S
H1056  O1102   0.989   .     S
H1057  O1103   0.988   .     S
H1058  O1104   0.988   .     S
H1059  O1105   0.986   .     S
H1060  O1086   0.979   .     S
H1061  O1106   0.986   .     S
H1062  O1107   0.989   .     S
H1063  O1108   0.989   .     S
H1064  O1109   0.989   .     S
H1065  O1111   0.989   .     S
H1066  O1087   0.979   .     S
H1067  O1089   0.979   .     S
H1068  O1090   0.979   .     S
H1069  O1091   0.979   .     S
H1070  O1092   0.979   .     S
H1071  O1093   0.979   .     S
H1072  O1094   0.988   .     S
N1073  Zn1117  2.038   .     S
N1074  Zn1118  2.038   .     S
N1075  C1238   1.379   1_545 A
N1075  Zn1119  2.038   .     S
N1076  Zn1120  2.038   .     S
N1076  C1239   1.377   1_545 A
O1077  Zn1117  1.992   .     S
O1078  Zn1120  1.992   .     S
O1079  Zn1119  2.005   .     S
O1080  Zn1344  2.005   .     S
O1081  Zn1344  1.988   .     S
O1082  Zn1119  1.988   .     S
O1083  Zn1120  1.990   .     S
O1084  Zn1343  1.990   .     S
O1088  Zn1006  1.992   1_655 S
O1099  Zn1005  2.005   1_655 S
O1110  Zn1118  2.005   .     S
O1112  Zn1006  1.988   1_655 S
O1113  Zn1117  1.988   .     S
O1114  Zn1118  1.990   .     S
O1115  Zn1005  1.990   1_655 S
O1116  Zn1343  1.992   .     S
Zn1119 O1308   1.990   1_545 S
Zn1119 O1340   1.992   1_545 S
Zn1120 O1304   2.005   1_545 S
Zn1120 O1305   1.988   1_545 S
C1121  O1189   1.295   .     A
C1121  C1150   1.422   .     S
C1121  O1222   1.291   .     A
C1122  N1297   1.379   .     A
C1122  O1198   1.376   .     S
C1122  C227    1.416   1_556 S
C1123  O1199   1.375   .     S
C1123  N1298   1.377   .     A
C1124  O1201   1.375   .     S
C1124  C264    1.416   1_556 S
C1124  N1185   1.377   .     S
C1125  O1202   1.376   .     S
C1125  N1188   1.379   .     S
C1126  O1203   1.376   .     S
C1126  N963    1.379   1_565 A
C1126  C231    1.416   1_556 S
C1127  O1204   1.375   .     S
C1127  N964    1.377   1_565 A
C1128  O1205   1.375   .     S
C1128  C229    1.416   1_556 S
C1128  N1187   1.377   .     S
C1129  O1206   1.384   .     S
C1129  C1140   1.377   .     A
C1129  C1148   1.409   .     A
C1130  C1147   1.409   .     A
C1130  C1141   1.377   .     A
C1130  O1207   1.384   .     S
C1131  C1138   1.377   .     A
C1131  C1147   1.412   .     A
C1131  O1208   1.386   .     S
C1132  C1149   1.422   .     S
C1132  O1211   1.291   .     A
C1132  O1200   1.295   .     A
C1133  C1148   1.412   .     A
C1133  C1139   1.377   .     A
C1133  O1209   1.386   .     S
C1134  O1210   1.385   .     S
C1134  C1150   1.409   .     A
C1134  C1145   1.389   .     A
C1135  O1212   1.384   .     S
C1135  C1149   1.409   .     A
C1135  C1146   1.389   .     A
C1136  O1213   1.385   .     S
C1136  C1149   1.404   .     A
C1136  C1142   1.389   .     A
C1137  C1150   1.404   .     A
C1137  C1144   1.389   .     A
C1137  O1214   1.385   .     S
C1138  O1215   1.384   .     S
C1138  C1152   1.409   .     A
C1139  C1151   1.409   .     A
C1139  O1216   1.384   .     S
C1140  O1217   1.386   .     S
C1140  C1151   1.412   .     A
C1141  C1152   1.412   .     A
C1141  O1218   1.386   .     S
C1142  C1155   1.409   .     A
C1142  O1219   1.384   .     S
C1143  O1224   1.292   .     A
C1143  O1227   1.288   .     A
C1143  C1148   1.411   .     S
C1144  O1220   1.385   .     S
C1144  C1153   1.409   .     A
C1145  O1221   1.385   .     S
C1145  C1153   1.404   .     A
C1146  O1223   1.385   .     S
C1146  C1155   1.404   .     A
C1147  C1154   1.411   .     S
C1151  C1159   1.411   .     S
C1152  C1158   1.411   .     S
C1153  C1157   1.422   .     S
C1154  O1226   1.288   .     A
C1154  O1225   1.292   .     A
C1155  C1156   1.422   .     S
C1156  O1228   1.295   .     A
C1156  O1192   1.291   .     A
C1157  O1190   1.295   .     A
C1157  O1191   1.291   .     A
C1158  O1196   1.288   .     A
C1158  O1193   1.292   .     A
C1159  O1194   1.292   .     A
C1159  O1195   1.288   .     A
C1160  O1197   1.376   .     S
C1160  N1186   1.379   .     S
H1161  O1197   0.979   .     S
H1162  O1207   0.988   .     S
H1163  O1208   0.986   .     S
H1164  O1209   0.986   .     S
H1165  O1210   0.989   .     S
H1166  O1212   0.989   .     S
H1167  O1213   0.989   .     S
H1168  O1214   0.989   .     S
H1169  O1215   0.988   .     S
H1170  O1216   0.988   .     S
H1171  O1217   0.986   .     S
H1172  O1198   0.979   .     S
H1173  O1218   0.986   .     S
H1174  O1219   0.989   .     S
H1175  O1220   0.989   .     S
H1176  O1221   0.989   .     S
H1177  O1223   0.989   .     S
H1178  O1199   0.979   .     S
H1179  O1201   0.979   .     S
H1180  O1202   0.979   .     S
H1181  O1203   0.979   .     S
H1182  O1204   0.979   .     S
H1183  O1205   0.979   .     S
H1184  O1206   0.988   .     S
N1185  C1234   1.379   1_455 A
N1185  Zn1229  2.038   .     S
N1186  C1235   1.377   1_455 A
N1186  Zn1230  2.038   .     S
N1187  Zn1231  2.038   .     S
N1188  Zn1232  2.038   .     S
O1189  Zn1229  1.992   .     S
O1190  Zn1232  1.992   .     S
O1191  Zn1231  2.005   .     S
O1192  Zn1008  2.005   1_565 S
O1193  Zn1008  1.988   1_565 S
O1194  Zn1231  1.988   .     S
O1195  Zn1232  1.990   .     S
O1196  Zn1007  1.990   1_565 S
O1200  Zn1342  1.992   .     S
O1211  Zn1341  2.005   .     S
O1222  Zn1230  2.005   .     S
O1224  Zn1342  1.988   .     S
O1225  Zn1229  1.988   .     S
O1226  Zn1230  1.990   .     S
O1227  Zn1341  1.990   .     S
O1228  Zn1007  1.992   1_565 S
Zn1229 O1339   1.990   1_455 S
Zn1229 O1323   2.005   1_455 S
Zn1230 O1336   1.988   1_455 S
Zn1230 O1312   1.992   1_455 S
C1233  O1301   1.295   .     A
C1233  C1262   1.422   .     S
C1233  O1334   1.291   .     A
C1234  N1185   1.379   1_655 A
C1234  O1310   1.376   .     S
C1234  C339    1.416   1_556 S
C1235  O1311   1.375   .     S
C1235  N1186   1.377   1_655 A
C1236  O1313   1.375   .     S
C1236  C376    1.416   1_556 S
C1236  N1297   1.377   .     S
C1237  O1314   1.376   .     S
C1237  N1300   1.379   .     S
C1238  O1315   1.376   .     S
C1238  N1075   1.379   1_565 A
C1238  C343    1.416   1_556 S
C1239  O1316   1.375   .     S
C1239  N1076   1.377   1_565 A
C1240  O1317   1.375   .     S
C1240  C341    1.416   1_556 S
C1240  N1299   1.377   .     S
C1241  O1318   1.384   .     S
C1241  C1252   1.377   .     A
C1241  C1260   1.409   .     A
C1242  C1259   1.409   .     A
C1242  C1253   1.377   .     A
C1242  O1319   1.384   .     S
C1243  C1250   1.377   .     A
C1243  C1259   1.412   .     A
C1243  O1320   1.386   .     S
C1244  C1261   1.422   .     S
C1244  O1323   1.291   .     A
C1244  O1312   1.295   .     A
C1245  C1260   1.412   .     A
C1245  C1251   1.377   .     A
C1245  O1321   1.386   .     S
C1246  O1322   1.385   .     S
C1246  C1262   1.409   .     A
C1246  C1257   1.389   .     A
C1247  O1324   1.384   .     S
C1247  C1261   1.409   .     A
C1247  C1258   1.389   .     A
C1248  O1325   1.385   .     S
C1248  C1261   1.404   .     A
C1248  C1254   1.389   .     A
C1249  C1262   1.404   .     A
C1249  C1256   1.389   .     A
C1249  O1326   1.385   .     S
C1250  O1327   1.384   .     S
C1250  C1264   1.409   .     A
C1251  C1263   1.409   .     A
C1251  O1328   1.384   .     S
C1252  O1329   1.386   .     S
C1252  C1263   1.412   .     A
C1253  C1264   1.412   .     A
C1253  O1330   1.386   .     S
C1254  C1267   1.409   .     A
C1254  O1331   1.384   .     S
C1255  O1336   1.292   .     A
C1255  O1339   1.288   .     A
C1255  C1260   1.411   .     S
C1256  O1332   1.385   .     S
C1256  C1265   1.409   .     A
C1257  O1333   1.385   .     S
C1257  C1265   1.404   .     A
C1258  O1335   1.385   .     S
C1258  C1267   1.404   .     A
C1259  C1266   1.411   .     S
C1263  C1271   1.411   .     S
C1264  C1270   1.411   .     S
C1265  C1269   1.422   .     S
C1266  O1338   1.288   .     A
C1266  O1337   1.292   .     A
C1267  C1268   1.422   .     S
C1268  O1340   1.295   .     A
C1268  O1304   1.291   .     A
C1269  O1302   1.295   .     A
C1269  O1303   1.291   .     A
C1270  O1308   1.288   .     A
C1270  O1305   1.292   .     A
C1271  O1306   1.292   .     A
C1271  O1307   1.288   .     A
C1272  O1309   1.376   .     S
C1272  N1298   1.379   .     S
H1273  O1309   0.979   .     S
H1274  O1319   0.988   .     S
H1275  O1320   0.986   .     S
H1276  O1321   0.986   .     S
H1277  O1322   0.989   .     S
H1278  O1324   0.989   .     S
H1279  O1325   0.989   .     S
H1280  O1326   0.989   .     S
H1281  O1327   0.988   .     S
H1282  O1328   0.988   .     S
H1283  O1329   0.986   .     S
H1284  O1310   0.979   .     S
H1285  O1330   0.986   .     S
H1286  O1331   0.989   .     S
H1287  O1332   0.989   .     S
H1288  O1333   0.989   .     S
H1289  O1335   0.989   .     S
H1290  O1311   0.979   .     S
H1291  O1313   0.979   .     S
H1292  O1314   0.979   .     S
H1293  O1315   0.979   .     S
H1294  O1316   0.979   .     S
H1295  O1317   0.979   .     S
H1296  O1318   0.988   .     S
N1297  Zn1341  2.038   .     S
N1298  Zn1342  2.038   .     S
N1299  Zn1343  2.038   .     S
N1300  Zn1344  2.038   .     S
O1301  Zn1341  1.992   .     S
O1302  Zn1344  1.992   .     S
O1303  Zn1343  2.005   .     S
O1304  Zn1120  2.005   1_565 S
O1305  Zn1120  1.988   1_565 S
O1306  Zn1343  1.988   .     S
O1307  Zn1344  1.990   .     S
O1308  Zn1119  1.990   1_565 S
O1312  Zn1230  1.992   1_655 S
O1323  Zn1229  2.005   1_655 S
O1334  Zn1342  2.005   .     S
O1336  Zn1230  1.988   1_655 S
O1337  Zn1341  1.988   .     S
O1338  Zn1342  1.990   .     S
O1339  Zn1229  1.990   1_655 S
O1340  Zn1119  1.992   1_565 S
