data_str_m3_o1_o17_pcu_sym.206
_audit_creation_date              2020-01-03
_audit_creation_method            'Materials Studio'
_symmetry_space_group_name_H-M    'P1'
_symmetry_Int_Tables_number       1
_symmetry_cell_setting            triclinic
loop_
_symmetry_equiv_pos_as_xyz
  x,y,z
_cell_length_a                    32.0118
_cell_length_b                    29.5155
_cell_length_c                    29.9787
_cell_angle_alpha                 90.6250
_cell_angle_beta                  89.5565
_cell_angle_gamma                 89.8064
loop_
_atom_site_label
_atom_site_type_symbol
_atom_site_fract_x
_atom_site_fract_y
_atom_site_fract_z
_atom_site_U_iso_or_equiv
_atom_site_adp_type
_atom_site_occupancy
O1     O     0.10559   0.20487   0.25000   0.00000  Uiso   1.00
O2     O     0.22774   0.12846   0.25001   0.00000  Uiso   1.00
O3     O     0.22774   0.20487   0.25001   0.00000  Uiso   1.00
O4     O     0.10559   0.12846   0.25000   0.00000  Uiso   1.00
C5     C     0.08672   0.16672   0.24993   0.00000  Uiso   1.00
C6     C     0.24662   0.16661   0.25007   0.00000  Uiso   1.00
O7     O     0.16666   0.20489   0.18393   0.00000  Uiso   1.00
O8     O     0.16667   0.12844   0.31608   0.00000  Uiso   1.00
O9     O     0.16667   0.20489   0.31608   0.00000  Uiso   1.00
O10    O     0.16666   0.12844   0.18393   0.00000  Uiso   1.00
C11    C     0.16428   0.16645   0.16346   0.00000  Uiso   1.00
C12    C     0.16905   0.16689   0.33654   0.00000  Uiso   1.00
Zn13   Zn    0.16667   0.21771   0.25000   0.00000  Uiso   1.00
Zn14   Zn    0.16667   0.11563   0.25000   0.00000  Uiso   1.00
C15    C     0.19511   0.13361   0.40728   0.00000  Uiso   1.00
C16    C     0.13822   0.19972   0.09272   0.00000  Uiso   1.00
C17    C     0.17307   0.16769   0.38440   0.00000  Uiso   1.00
C18    C     0.16027   0.16564   0.11560   0.00000  Uiso   1.00
C19    C     0.15315   0.20306   0.40730   0.00000  Uiso   1.00
C20    C     0.18018   0.13027   0.09270   0.00000  Uiso   1.00
C21    C     0.15076   0.20302   0.45316   0.00000  Uiso   1.00
C22    C     0.18258   0.13031   0.04684   0.00000  Uiso   1.00
C23    C     0.16871   0.16703   0.47676   0.00000  Uiso   1.00
C24    C     0.16462   0.16631   0.02324   0.00000  Uiso   1.00
C25    C     0.19092   0.13197   0.45397   0.00000  Uiso   1.00
C26    C     0.14241   0.20137   0.04603   0.00000  Uiso   1.00
C27    C     0.12950   0.23797   0.47549   0.00000  Uiso   1.00
C28    C     0.20383   0.09537   0.02451   0.00000  Uiso   1.00
C29    C     0.12535   0.23725   0.02148   0.00000  Uiso   1.00
C30    C     0.20798   0.09608   0.47852   0.00000  Uiso   1.00
H31    H     0.13819   0.23020   0.38922   0.00000  Uiso   1.00
H32    H     0.19514   0.10314   0.11078   0.00000  Uiso   1.00
H33    H     0.11583   0.26582   0.45730   0.00000  Uiso   1.00
H34    H     0.21750   0.06752   0.04270   0.00000  Uiso   1.00
H35    H     0.10914   0.26536   0.03739   0.00000  Uiso   1.00
H36    H     0.22419   0.06797   0.46261   0.00000  Uiso   1.00
C37    C     0.02198   0.14702   0.21349   0.00000  Uiso   1.00
C38    C     0.31135   0.18631   0.28651   0.00000  Uiso   1.00
C39    C     0.31202   0.14695   0.21359   0.00000  Uiso   1.00
C40    C     0.02132   0.18638   0.28641   0.00000  Uiso   1.00
C41    C     0.29073   0.16653   0.25011   0.00000  Uiso   1.00
C42    C     0.04260   0.16680   0.24989   0.00000  Uiso   1.00
C43    C     0.19432   0.02416   0.27554   0.00000  Uiso   1.00
C44    C     0.13901   0.30917   0.22446   0.00000  Uiso   1.00
C45    C     0.13904   0.02380   0.22441   0.00000  Uiso   1.00
C46    C     0.19429   0.30954   0.27559   0.00000  Uiso   1.00
H47    H     0.21650   0.04246   0.29588   0.00000  Uiso   1.00
H48    H     0.11684   0.29087   0.20412   0.00000  Uiso   1.00
H49    H     0.11699   0.04180   0.20394   0.00000  Uiso   1.00
H50    H     0.21635   0.29153   0.29606   0.00000  Uiso   1.00
N51    N     0.16667   0.28573   0.25000   0.00000  Uiso   1.00
N52    N     0.16667   0.04760   0.25000   0.00000  Uiso   1.00
C53    C     0.22458   0.10114   0.38293   0.00000  Uiso   1.00
H54    H     0.25484   0.09930   0.40070   0.00000  Uiso   1.00
H55    H     0.21044   0.06689   0.38102   0.00000  Uiso   1.00
H56    H     0.23300   0.11245   0.34894   0.00000  Uiso   1.00
C57    C     0.10875   0.23219   0.11707   0.00000  Uiso   1.00
H58    H     0.07849   0.23403   0.09930   0.00000  Uiso   1.00
H59    H     0.10033   0.22089   0.15106   0.00000  Uiso   1.00
H60    H     0.12289   0.26644   0.11897   0.00000  Uiso   1.00
I61    I     0.05625   0.11896   0.15778   0.00000  Uiso   1.00
I62    I     0.27708   0.21438   0.34222   0.00000  Uiso   1.00
I63    I     0.27871   0.11942   0.15784   0.00000  Uiso   1.00
I64    I     0.05462   0.21391   0.34216   0.00000  Uiso   1.00
O65    O     0.43892   0.20487   0.25000   0.00000  Uiso   1.00
O66    O     0.56108   0.12846   0.25001   0.00000  Uiso   1.00
O67    O     0.56108   0.20487   0.25001   0.00000  Uiso   1.00
O68    O     0.43892   0.12846   0.25000   0.00000  Uiso   1.00
C69    C     0.42005   0.16672   0.24993   0.00000  Uiso   1.00
C70    C     0.57995   0.16661   0.25007   0.00000  Uiso   1.00
O71    O     0.49999   0.20489   0.18393   0.00000  Uiso   1.00
O72    O     0.50001   0.12844   0.31608   0.00000  Uiso   1.00
O73    O     0.50001   0.20489   0.31608   0.00000  Uiso   1.00
O74    O     0.49999   0.12844   0.18393   0.00000  Uiso   1.00
C75    C     0.49762   0.16645   0.16346   0.00000  Uiso   1.00
C76    C     0.50238   0.16689   0.33654   0.00000  Uiso   1.00
Zn77   Zn    0.50000   0.21771   0.25000   0.00000  Uiso   1.00
Zn78   Zn    0.50000   0.11563   0.25000   0.00000  Uiso   1.00
C79    C     0.52845   0.13361   0.40728   0.00000  Uiso   1.00
C80    C     0.47155   0.19972   0.09272   0.00000  Uiso   1.00
C81    C     0.50640   0.16769   0.38440   0.00000  Uiso   1.00
C82    C     0.49360   0.16564   0.11560   0.00000  Uiso   1.00
C83    C     0.48649   0.20306   0.40730   0.00000  Uiso   1.00
C84    C     0.51351   0.13027   0.09270   0.00000  Uiso   1.00
C85    C     0.48409   0.20302   0.45316   0.00000  Uiso   1.00
C86    C     0.51591   0.13031   0.04684   0.00000  Uiso   1.00
C87    C     0.50205   0.16703   0.47676   0.00000  Uiso   1.00
C88    C     0.49795   0.16631   0.02324   0.00000  Uiso   1.00
C89    C     0.52426   0.13197   0.45397   0.00000  Uiso   1.00
C90    C     0.47574   0.20137   0.04603   0.00000  Uiso   1.00
C91    C     0.46283   0.23797   0.47549   0.00000  Uiso   1.00
C92    C     0.53716   0.09537   0.02451   0.00000  Uiso   1.00
C93    C     0.45869   0.23725   0.02148   0.00000  Uiso   1.00
C94    C     0.54131   0.09608   0.47852   0.00000  Uiso   1.00
H95    H     0.47153   0.23020   0.38922   0.00000  Uiso   1.00
H96    H     0.52847   0.10314   0.11078   0.00000  Uiso   1.00
H97    H     0.44916   0.26582   0.45730   0.00000  Uiso   1.00
H98    H     0.55084   0.06752   0.04270   0.00000  Uiso   1.00
H99    H     0.44247   0.26536   0.03739   0.00000  Uiso   1.00
H100   H     0.55752   0.06797   0.46261   0.00000  Uiso   1.00
C101   C     0.35531   0.14702   0.21349   0.00000  Uiso   1.00
C102   C     0.64469   0.18631   0.28651   0.00000  Uiso   1.00
C103   C     0.64535   0.14695   0.21359   0.00000  Uiso   1.00
C104   C     0.35465   0.18638   0.28641   0.00000  Uiso   1.00
C105   C     0.62407   0.16653   0.25011   0.00000  Uiso   1.00
C106   C     0.37593   0.16680   0.24989   0.00000  Uiso   1.00
C107   C     0.52766   0.02416   0.27554   0.00000  Uiso   1.00
C108   C     0.47234   0.30917   0.22446   0.00000  Uiso   1.00
C109   C     0.47238   0.02380   0.22441   0.00000  Uiso   1.00
C110   C     0.52762   0.30954   0.27559   0.00000  Uiso   1.00
H111   H     0.54983   0.04246   0.29588   0.00000  Uiso   1.00
H112   H     0.45017   0.29087   0.20412   0.00000  Uiso   1.00
H113   H     0.45032   0.04180   0.20394   0.00000  Uiso   1.00
H114   H     0.54968   0.29153   0.29606   0.00000  Uiso   1.00
N115   N     0.50000   0.28573   0.25000   0.00000  Uiso   1.00
N116   N     0.50000   0.04760   0.25000   0.00000  Uiso   1.00
C117   C     0.55792   0.10114   0.38293   0.00000  Uiso   1.00
H118   H     0.58817   0.09930   0.40070   0.00000  Uiso   1.00
H119   H     0.54377   0.06689   0.38102   0.00000  Uiso   1.00
H120   H     0.56634   0.11245   0.34894   0.00000  Uiso   1.00
C121   C     0.44208   0.23219   0.11707   0.00000  Uiso   1.00
H122   H     0.41183   0.23403   0.09930   0.00000  Uiso   1.00
H123   H     0.43366   0.22089   0.15106   0.00000  Uiso   1.00
H124   H     0.45622   0.26644   0.11897   0.00000  Uiso   1.00
I125   I     0.38958   0.11896   0.15778   0.00000  Uiso   1.00
I126   I     0.61042   0.21438   0.34222   0.00000  Uiso   1.00
I127   I     0.61205   0.11942   0.15784   0.00000  Uiso   1.00
I128   I     0.38795   0.21391   0.34216   0.00000  Uiso   1.00
O129   O     0.77226   0.20487   0.25000   0.00000  Uiso   1.00
O130   O     0.89441   0.12846   0.25001   0.00000  Uiso   1.00
O131   O     0.89441   0.20487   0.25001   0.00000  Uiso   1.00
O132   O     0.77226   0.12846   0.25000   0.00000  Uiso   1.00
C133   C     0.75338   0.16672   0.24993   0.00000  Uiso   1.00
C134   C     0.91328   0.16661   0.25007   0.00000  Uiso   1.00
O135   O     0.83333   0.20489   0.18393   0.00000  Uiso   1.00
O136   O     0.83334   0.12844   0.31608   0.00000  Uiso   1.00
O137   O     0.83334   0.20489   0.31608   0.00000  Uiso   1.00
O138   O     0.83333   0.12844   0.18393   0.00000  Uiso   1.00
C139   C     0.83095   0.16645   0.16346   0.00000  Uiso   1.00
C140   C     0.83572   0.16689   0.33654   0.00000  Uiso   1.00
Zn141  Zn    0.83333   0.21771   0.25000   0.00000  Uiso   1.00
Zn142  Zn    0.83333   0.11563   0.25000   0.00000  Uiso   1.00
C143   C     0.86178   0.13361   0.40728   0.00000  Uiso   1.00
C144   C     0.80489   0.19972   0.09272   0.00000  Uiso   1.00
C145   C     0.83973   0.16769   0.38440   0.00000  Uiso   1.00
C146   C     0.82693   0.16564   0.11560   0.00000  Uiso   1.00
C147   C     0.81982   0.20306   0.40730   0.00000  Uiso   1.00
C148   C     0.84685   0.13027   0.09270   0.00000  Uiso   1.00
C149   C     0.81742   0.20302   0.45316   0.00000  Uiso   1.00
C150   C     0.84924   0.13031   0.04684   0.00000  Uiso   1.00
C151   C     0.83538   0.16703   0.47676   0.00000  Uiso   1.00
C152   C     0.83129   0.16631   0.02324   0.00000  Uiso   1.00
C153   C     0.85759   0.13197   0.45397   0.00000  Uiso   1.00
C154   C     0.80908   0.20137   0.04603   0.00000  Uiso   1.00
C155   C     0.79617   0.23797   0.47549   0.00000  Uiso   1.00
C156   C     0.87050   0.09537   0.02451   0.00000  Uiso   1.00
C157   C     0.79202   0.23725   0.02148   0.00000  Uiso   1.00
C158   C     0.87465   0.09608   0.47852   0.00000  Uiso   1.00
H159   H     0.80486   0.23020   0.38922   0.00000  Uiso   1.00
H160   H     0.86181   0.10314   0.11078   0.00000  Uiso   1.00
H161   H     0.78250   0.26582   0.45730   0.00000  Uiso   1.00
H162   H     0.88417   0.06752   0.04270   0.00000  Uiso   1.00
H163   H     0.77581   0.26536   0.03739   0.00000  Uiso   1.00
H164   H     0.89086   0.06797   0.46261   0.00000  Uiso   1.00
C165   C     0.68864   0.14702   0.21349   0.00000  Uiso   1.00
C166   C     0.97802   0.18631   0.28651   0.00000  Uiso   1.00
C167   C     0.97868   0.14695   0.21359   0.00000  Uiso   1.00
C168   C     0.68798   0.18638   0.28641   0.00000  Uiso   1.00
C169   C     0.95740   0.16653   0.25011   0.00000  Uiso   1.00
C170   C     0.70926   0.16680   0.24989   0.00000  Uiso   1.00
C171   C     0.86099   0.02416   0.27554   0.00000  Uiso   1.00
C172   C     0.80568   0.30917   0.22446   0.00000  Uiso   1.00
C173   C     0.80571   0.02380   0.22441   0.00000  Uiso   1.00
C174   C     0.86096   0.30954   0.27559   0.00000  Uiso   1.00
H175   H     0.88316   0.04246   0.29588   0.00000  Uiso   1.00
H176   H     0.78350   0.29087   0.20412   0.00000  Uiso   1.00
H177   H     0.78365   0.04180   0.20394   0.00000  Uiso   1.00
H178   H     0.88301   0.29153   0.29606   0.00000  Uiso   1.00
N179   N     0.83333   0.28573   0.25000   0.00000  Uiso   1.00
N180   N     0.83333   0.04760   0.25000   0.00000  Uiso   1.00
C181   C     0.89125   0.10114   0.38293   0.00000  Uiso   1.00
H182   H     0.92150   0.09930   0.40070   0.00000  Uiso   1.00
H183   H     0.87711   0.06689   0.38102   0.00000  Uiso   1.00
H184   H     0.89967   0.11245   0.34894   0.00000  Uiso   1.00
C185   C     0.77542   0.23219   0.11707   0.00000  Uiso   1.00
H186   H     0.74516   0.23403   0.09930   0.00000  Uiso   1.00
H187   H     0.76700   0.22089   0.15106   0.00000  Uiso   1.00
H188   H     0.78956   0.26644   0.11897   0.00000  Uiso   1.00
I189   I     0.72292   0.11896   0.15778   0.00000  Uiso   1.00
I190   I     0.94375   0.21438   0.34222   0.00000  Uiso   1.00
I191   I     0.94538   0.11942   0.15784   0.00000  Uiso   1.00
I192   I     0.72129   0.21391   0.34216   0.00000  Uiso   1.00
O193   O     0.10559   0.53821   0.25000   0.00000  Uiso   1.00
O194   O     0.22774   0.46179   0.25001   0.00000  Uiso   1.00
O195   O     0.22774   0.53821   0.25001   0.00000  Uiso   1.00
O196   O     0.10559   0.46179   0.25000   0.00000  Uiso   1.00
C197   C     0.08672   0.50006   0.24993   0.00000  Uiso   1.00
C198   C     0.24662   0.49994   0.25007   0.00000  Uiso   1.00
O199   O     0.16666   0.53823   0.18393   0.00000  Uiso   1.00
O200   O     0.16667   0.46177   0.31608   0.00000  Uiso   1.00
O201   O     0.16667   0.53823   0.31608   0.00000  Uiso   1.00
O202   O     0.16666   0.46177   0.18393   0.00000  Uiso   1.00
C203   C     0.16428   0.49978   0.16346   0.00000  Uiso   1.00
C204   C     0.16905   0.50022   0.33654   0.00000  Uiso   1.00
Zn205  Zn    0.16667   0.55104   0.25000   0.00000  Uiso   1.00
Zn206  Zn    0.16667   0.44896   0.25000   0.00000  Uiso   1.00
C207   C     0.19511   0.46695   0.40728   0.00000  Uiso   1.00
C208   C     0.13822   0.53305   0.09272   0.00000  Uiso   1.00
C209   C     0.17307   0.50102   0.38440   0.00000  Uiso   1.00
C210   C     0.16027   0.49898   0.11560   0.00000  Uiso   1.00
C211   C     0.15315   0.53639   0.40730   0.00000  Uiso   1.00
C212   C     0.18018   0.46361   0.09270   0.00000  Uiso   1.00
C213   C     0.15076   0.53635   0.45316   0.00000  Uiso   1.00
C214   C     0.18258   0.46365   0.04684   0.00000  Uiso   1.00
C215   C     0.16871   0.50036   0.47676   0.00000  Uiso   1.00
C216   C     0.16462   0.49964   0.02324   0.00000  Uiso   1.00
C217   C     0.19092   0.46530   0.45397   0.00000  Uiso   1.00
C218   C     0.14241   0.53470   0.04603   0.00000  Uiso   1.00
C219   C     0.12950   0.57130   0.47549   0.00000  Uiso   1.00
C220   C     0.20383   0.42870   0.02451   0.00000  Uiso   1.00
C221   C     0.12535   0.57059   0.02148   0.00000  Uiso   1.00
C222   C     0.20798   0.42941   0.47852   0.00000  Uiso   1.00
H223   H     0.13819   0.56353   0.38922   0.00000  Uiso   1.00
H224   H     0.19514   0.43647   0.11078   0.00000  Uiso   1.00
H225   H     0.11583   0.59915   0.45730   0.00000  Uiso   1.00
H226   H     0.21750   0.40085   0.04270   0.00000  Uiso   1.00
H227   H     0.10914   0.59869   0.03739   0.00000  Uiso   1.00
H228   H     0.22419   0.40131   0.46261   0.00000  Uiso   1.00
C229   C     0.02198   0.48035   0.21349   0.00000  Uiso   1.00
C230   C     0.31135   0.51965   0.28651   0.00000  Uiso   1.00
C231   C     0.31202   0.48028   0.21359   0.00000  Uiso   1.00
C232   C     0.02132   0.51971   0.28641   0.00000  Uiso   1.00
C233   C     0.29073   0.49986   0.25011   0.00000  Uiso   1.00
C234   C     0.04260   0.50013   0.24989   0.00000  Uiso   1.00
C235   C     0.19432   0.35750   0.27554   0.00000  Uiso   1.00
C236   C     0.13901   0.64250   0.22446   0.00000  Uiso   1.00
C237   C     0.13904   0.35713   0.22441   0.00000  Uiso   1.00
C238   C     0.19429   0.64287   0.27559   0.00000  Uiso   1.00
H239   H     0.21650   0.37580   0.29588   0.00000  Uiso   1.00
H240   H     0.11684   0.62420   0.20412   0.00000  Uiso   1.00
H241   H     0.11699   0.37513   0.20394   0.00000  Uiso   1.00
H242   H     0.21635   0.62487   0.29606   0.00000  Uiso   1.00
N243   N     0.16667   0.61907   0.25000   0.00000  Uiso   1.00
N244   N     0.16667   0.38093   0.25000   0.00000  Uiso   1.00
C245   C     0.22458   0.43448   0.38293   0.00000  Uiso   1.00
H246   H     0.25484   0.43263   0.40070   0.00000  Uiso   1.00
H247   H     0.21044   0.40022   0.38102   0.00000  Uiso   1.00
H248   H     0.23300   0.44578   0.34894   0.00000  Uiso   1.00
C249   C     0.10875   0.56552   0.11707   0.00000  Uiso   1.00
H250   H     0.07849   0.56736   0.09930   0.00000  Uiso   1.00
H251   H     0.10033   0.55422   0.15106   0.00000  Uiso   1.00
H252   H     0.12289   0.59978   0.11897   0.00000  Uiso   1.00
I253   I     0.05625   0.45229   0.15778   0.00000  Uiso   1.00
I254   I     0.27708   0.54772   0.34222   0.00000  Uiso   1.00
I255   I     0.27871   0.45276   0.15784   0.00000  Uiso   1.00
I256   I     0.05462   0.54724   0.34216   0.00000  Uiso   1.00
O257   O     0.43892   0.53821   0.25000   0.00000  Uiso   1.00
O258   O     0.56108   0.46179   0.25001   0.00000  Uiso   1.00
O259   O     0.56108   0.53821   0.25001   0.00000  Uiso   1.00
O260   O     0.43892   0.46179   0.25000   0.00000  Uiso   1.00
C261   C     0.42005   0.50006   0.24993   0.00000  Uiso   1.00
C262   C     0.57995   0.49994   0.25007   0.00000  Uiso   1.00
O263   O     0.49999   0.53823   0.18393   0.00000  Uiso   1.00
O264   O     0.50001   0.46177   0.31608   0.00000  Uiso   1.00
O265   O     0.50001   0.53823   0.31608   0.00000  Uiso   1.00
O266   O     0.49999   0.46177   0.18393   0.00000  Uiso   1.00
C267   C     0.49762   0.49978   0.16346   0.00000  Uiso   1.00
C268   C     0.50238   0.50022   0.33654   0.00000  Uiso   1.00
Zn269  Zn    0.50000   0.55104   0.25000   0.00000  Uiso   1.00
Zn270  Zn    0.50000   0.44896   0.25000   0.00000  Uiso   1.00
C271   C     0.52845   0.46695   0.40728   0.00000  Uiso   1.00
C272   C     0.47155   0.53305   0.09272   0.00000  Uiso   1.00
C273   C     0.50640   0.50102   0.38440   0.00000  Uiso   1.00
C274   C     0.49360   0.49898   0.11560   0.00000  Uiso   1.00
C275   C     0.48649   0.53639   0.40730   0.00000  Uiso   1.00
C276   C     0.51351   0.46361   0.09270   0.00000  Uiso   1.00
C277   C     0.48409   0.53635   0.45316   0.00000  Uiso   1.00
C278   C     0.51591   0.46365   0.04684   0.00000  Uiso   1.00
C279   C     0.50205   0.50036   0.47676   0.00000  Uiso   1.00
C280   C     0.49795   0.49964   0.02324   0.00000  Uiso   1.00
C281   C     0.52426   0.46530   0.45397   0.00000  Uiso   1.00
C282   C     0.47574   0.53470   0.04603   0.00000  Uiso   1.00
C283   C     0.46283   0.57130   0.47549   0.00000  Uiso   1.00
C284   C     0.53716   0.42870   0.02451   0.00000  Uiso   1.00
C285   C     0.45869   0.57059   0.02148   0.00000  Uiso   1.00
C286   C     0.54131   0.42941   0.47852   0.00000  Uiso   1.00
H287   H     0.47153   0.56353   0.38922   0.00000  Uiso   1.00
H288   H     0.52847   0.43647   0.11078   0.00000  Uiso   1.00
H289   H     0.44916   0.59915   0.45730   0.00000  Uiso   1.00
H290   H     0.55084   0.40085   0.04270   0.00000  Uiso   1.00
H291   H     0.44247   0.59869   0.03739   0.00000  Uiso   1.00
H292   H     0.55752   0.40131   0.46261   0.00000  Uiso   1.00
C293   C     0.35531   0.48035   0.21349   0.00000  Uiso   1.00
C294   C     0.64469   0.51965   0.28651   0.00000  Uiso   1.00
C295   C     0.64535   0.48028   0.21359   0.00000  Uiso   1.00
C296   C     0.35465   0.51971   0.28641   0.00000  Uiso   1.00
C297   C     0.62407   0.49986   0.25011   0.00000  Uiso   1.00
C298   C     0.37593   0.50013   0.24989   0.00000  Uiso   1.00
C299   C     0.52766   0.35750   0.27554   0.00000  Uiso   1.00
C300   C     0.47234   0.64250   0.22446   0.00000  Uiso   1.00
C301   C     0.47238   0.35713   0.22441   0.00000  Uiso   1.00
C302   C     0.52762   0.64287   0.27559   0.00000  Uiso   1.00
H303   H     0.54983   0.37580   0.29588   0.00000  Uiso   1.00
H304   H     0.45017   0.62420   0.20412   0.00000  Uiso   1.00
H305   H     0.45032   0.37513   0.20394   0.00000  Uiso   1.00
H306   H     0.54968   0.62487   0.29606   0.00000  Uiso   1.00
N307   N     0.50000   0.61907   0.25000   0.00000  Uiso   1.00
N308   N     0.50000   0.38093   0.25000   0.00000  Uiso   1.00
C309   C     0.55792   0.43448   0.38293   0.00000  Uiso   1.00
H310   H     0.58817   0.43263   0.40070   0.00000  Uiso   1.00
H311   H     0.54377   0.40022   0.38102   0.00000  Uiso   1.00
H312   H     0.56634   0.44578   0.34894   0.00000  Uiso   1.00
C313   C     0.44208   0.56552   0.11707   0.00000  Uiso   1.00
H314   H     0.41183   0.56736   0.09930   0.00000  Uiso   1.00
H315   H     0.43366   0.55422   0.15106   0.00000  Uiso   1.00
H316   H     0.45622   0.59978   0.11897   0.00000  Uiso   1.00
I317   I     0.38958   0.45229   0.15778   0.00000  Uiso   1.00
I318   I     0.61042   0.54772   0.34222   0.00000  Uiso   1.00
I319   I     0.61205   0.45276   0.15784   0.00000  Uiso   1.00
I320   I     0.38795   0.54724   0.34216   0.00000  Uiso   1.00
O321   O     0.77226   0.53821   0.25000   0.00000  Uiso   1.00
O322   O     0.89441   0.46179   0.25001   0.00000  Uiso   1.00
O323   O     0.89441   0.53821   0.25001   0.00000  Uiso   1.00
O324   O     0.77226   0.46179   0.25000   0.00000  Uiso   1.00
C325   C     0.75338   0.50006   0.24993   0.00000  Uiso   1.00
C326   C     0.91328   0.49994   0.25007   0.00000  Uiso   1.00
O327   O     0.83333   0.53823   0.18393   0.00000  Uiso   1.00
O328   O     0.83334   0.46177   0.31608   0.00000  Uiso   1.00
O329   O     0.83334   0.53823   0.31608   0.00000  Uiso   1.00
O330   O     0.83333   0.46177   0.18393   0.00000  Uiso   1.00
C331   C     0.83095   0.49978   0.16346   0.00000  Uiso   1.00
C332   C     0.83572   0.50022   0.33654   0.00000  Uiso   1.00
Zn333  Zn    0.83333   0.55104   0.25000   0.00000  Uiso   1.00
Zn334  Zn    0.83333   0.44896   0.25000   0.00000  Uiso   1.00
C335   C     0.86178   0.46695   0.40728   0.00000  Uiso   1.00
C336   C     0.80489   0.53305   0.09272   0.00000  Uiso   1.00
C337   C     0.83973   0.50102   0.38440   0.00000  Uiso   1.00
C338   C     0.82693   0.49898   0.11560   0.00000  Uiso   1.00
C339   C     0.81982   0.53639   0.40730   0.00000  Uiso   1.00
C340   C     0.84685   0.46361   0.09270   0.00000  Uiso   1.00
C341   C     0.81742   0.53635   0.45316   0.00000  Uiso   1.00
C342   C     0.84924   0.46365   0.04684   0.00000  Uiso   1.00
C343   C     0.83538   0.50036   0.47676   0.00000  Uiso   1.00
C344   C     0.83129   0.49964   0.02324   0.00000  Uiso   1.00
C345   C     0.85759   0.46530   0.45397   0.00000  Uiso   1.00
C346   C     0.80908   0.53470   0.04603   0.00000  Uiso   1.00
C347   C     0.79617   0.57130   0.47549   0.00000  Uiso   1.00
C348   C     0.87050   0.42870   0.02451   0.00000  Uiso   1.00
C349   C     0.79202   0.57059   0.02148   0.00000  Uiso   1.00
C350   C     0.87465   0.42941   0.47852   0.00000  Uiso   1.00
H351   H     0.80486   0.56353   0.38922   0.00000  Uiso   1.00
H352   H     0.86181   0.43647   0.11078   0.00000  Uiso   1.00
H353   H     0.78250   0.59915   0.45730   0.00000  Uiso   1.00
H354   H     0.88417   0.40085   0.04270   0.00000  Uiso   1.00
H355   H     0.77581   0.59869   0.03739   0.00000  Uiso   1.00
H356   H     0.89086   0.40131   0.46261   0.00000  Uiso   1.00
C357   C     0.68864   0.48035   0.21349   0.00000  Uiso   1.00
C358   C     0.97802   0.51965   0.28651   0.00000  Uiso   1.00
C359   C     0.97868   0.48028   0.21359   0.00000  Uiso   1.00
C360   C     0.68798   0.51971   0.28641   0.00000  Uiso   1.00
C361   C     0.95740   0.49986   0.25011   0.00000  Uiso   1.00
C362   C     0.70926   0.50013   0.24989   0.00000  Uiso   1.00
C363   C     0.86099   0.35750   0.27554   0.00000  Uiso   1.00
C364   C     0.80568   0.64250   0.22446   0.00000  Uiso   1.00
C365   C     0.80571   0.35713   0.22441   0.00000  Uiso   1.00
C366   C     0.86096   0.64287   0.27559   0.00000  Uiso   1.00
H367   H     0.88316   0.37580   0.29588   0.00000  Uiso   1.00
H368   H     0.78350   0.62420   0.20412   0.00000  Uiso   1.00
H369   H     0.78365   0.37513   0.20394   0.00000  Uiso   1.00
H370   H     0.88301   0.62487   0.29606   0.00000  Uiso   1.00
N371   N     0.83333   0.61907   0.25000   0.00000  Uiso   1.00
N372   N     0.83333   0.38093   0.25000   0.00000  Uiso   1.00
C373   C     0.89125   0.43448   0.38293   0.00000  Uiso   1.00
H374   H     0.92150   0.43263   0.40070   0.00000  Uiso   1.00
H375   H     0.87711   0.40022   0.38102   0.00000  Uiso   1.00
H376   H     0.89967   0.44578   0.34894   0.00000  Uiso   1.00
C377   C     0.77542   0.56552   0.11707   0.00000  Uiso   1.00
H378   H     0.74516   0.56736   0.09930   0.00000  Uiso   1.00
H379   H     0.76700   0.55422   0.15106   0.00000  Uiso   1.00
H380   H     0.78956   0.59978   0.11897   0.00000  Uiso   1.00
I381   I     0.72292   0.45229   0.15778   0.00000  Uiso   1.00
I382   I     0.94375   0.54772   0.34222   0.00000  Uiso   1.00
I383   I     0.94538   0.45276   0.15784   0.00000  Uiso   1.00
I384   I     0.72129   0.54724   0.34216   0.00000  Uiso   1.00
O385   O     0.10559   0.87154   0.25000   0.00000  Uiso   1.00
O386   O     0.22774   0.79513   0.25001   0.00000  Uiso   1.00
O387   O     0.22774   0.87154   0.25001   0.00000  Uiso   1.00
O388   O     0.10559   0.79513   0.25000   0.00000  Uiso   1.00
C389   C     0.08672   0.83339   0.24993   0.00000  Uiso   1.00
C390   C     0.24662   0.83328   0.25007   0.00000  Uiso   1.00
O391   O     0.16666   0.87156   0.18393   0.00000  Uiso   1.00
O392   O     0.16667   0.79511   0.31608   0.00000  Uiso   1.00
O393   O     0.16667   0.87156   0.31608   0.00000  Uiso   1.00
O394   O     0.16666   0.79511   0.18393   0.00000  Uiso   1.00
C395   C     0.16428   0.83311   0.16346   0.00000  Uiso   1.00
C396   C     0.16905   0.83355   0.33654   0.00000  Uiso   1.00
Zn397  Zn    0.16667   0.88437   0.25000   0.00000  Uiso   1.00
Zn398  Zn    0.16667   0.78229   0.25000   0.00000  Uiso   1.00
C399   C     0.19511   0.80028   0.40728   0.00000  Uiso   1.00
C400   C     0.13822   0.86639   0.09272   0.00000  Uiso   1.00
C401   C     0.17307   0.83436   0.38440   0.00000  Uiso   1.00
C402   C     0.16027   0.83231   0.11560   0.00000  Uiso   1.00
C403   C     0.15315   0.86973   0.40730   0.00000  Uiso   1.00
C404   C     0.18018   0.79694   0.09270   0.00000  Uiso   1.00
C405   C     0.15076   0.86969   0.45316   0.00000  Uiso   1.00
C406   C     0.18258   0.79698   0.04684   0.00000  Uiso   1.00
C407   C     0.16871   0.83369   0.47676   0.00000  Uiso   1.00
C408   C     0.16462   0.83297   0.02324   0.00000  Uiso   1.00
C409   C     0.19092   0.79863   0.45397   0.00000  Uiso   1.00
C410   C     0.14241   0.86803   0.04603   0.00000  Uiso   1.00
C411   C     0.12950   0.90463   0.47549   0.00000  Uiso   1.00
C412   C     0.20383   0.76203   0.02451   0.00000  Uiso   1.00
C413   C     0.12535   0.90392   0.02148   0.00000  Uiso   1.00
C414   C     0.20798   0.76274   0.47852   0.00000  Uiso   1.00
H415   H     0.13819   0.89686   0.38922   0.00000  Uiso   1.00
H416   H     0.19514   0.76980   0.11078   0.00000  Uiso   1.00
H417   H     0.11583   0.93248   0.45730   0.00000  Uiso   1.00
H418   H     0.21750   0.73418   0.04270   0.00000  Uiso   1.00
H419   H     0.10914   0.93203   0.03739   0.00000  Uiso   1.00
H420   H     0.22419   0.73464   0.46261   0.00000  Uiso   1.00
C421   C     0.02198   0.81369   0.21349   0.00000  Uiso   1.00
C422   C     0.31135   0.85298   0.28651   0.00000  Uiso   1.00
C423   C     0.31202   0.81362   0.21359   0.00000  Uiso   1.00
C424   C     0.02132   0.85305   0.28641   0.00000  Uiso   1.00
C425   C     0.29073   0.83320   0.25011   0.00000  Uiso   1.00
C426   C     0.04260   0.83347   0.24989   0.00000  Uiso   1.00
C427   C     0.19432   0.69083   0.27554   0.00000  Uiso   1.00
C428   C     0.13901   0.97584   0.22446   0.00000  Uiso   1.00
C429   C     0.13904   0.69046   0.22441   0.00000  Uiso   1.00
C430   C     0.19429   0.97620   0.27559   0.00000  Uiso   1.00
H431   H     0.21650   0.70913   0.29588   0.00000  Uiso   1.00
H432   H     0.11684   0.95754   0.20412   0.00000  Uiso   1.00
H433   H     0.11699   0.70847   0.20394   0.00000  Uiso   1.00
H434   H     0.21635   0.95820   0.29606   0.00000  Uiso   1.00
N435   N     0.16667   0.95240   0.25000   0.00000  Uiso   1.00
N436   N     0.16667   0.71427   0.25000   0.00000  Uiso   1.00
C437   C     0.22458   0.76781   0.38293   0.00000  Uiso   1.00
H438   H     0.25484   0.76597   0.40070   0.00000  Uiso   1.00
H439   H     0.21044   0.73356   0.38102   0.00000  Uiso   1.00
H440   H     0.23300   0.77911   0.34894   0.00000  Uiso   1.00
C441   C     0.10875   0.89886   0.11707   0.00000  Uiso   1.00
H442   H     0.07849   0.90070   0.09930   0.00000  Uiso   1.00
H443   H     0.10033   0.88756   0.15106   0.00000  Uiso   1.00
H444   H     0.12289   0.93311   0.11897   0.00000  Uiso   1.00
I445   I     0.05625   0.78562   0.15778   0.00000  Uiso   1.00
I446   I     0.27708   0.88105   0.34222   0.00000  Uiso   1.00
I447   I     0.27871   0.78609   0.15784   0.00000  Uiso   1.00
I448   I     0.05462   0.88057   0.34216   0.00000  Uiso   1.00
O449   O     0.43892   0.87154   0.25000   0.00000  Uiso   1.00
O450   O     0.56108   0.79513   0.25001   0.00000  Uiso   1.00
O451   O     0.56108   0.87154   0.25001   0.00000  Uiso   1.00
O452   O     0.43892   0.79513   0.25000   0.00000  Uiso   1.00
C453   C     0.42005   0.83339   0.24993   0.00000  Uiso   1.00
C454   C     0.57995   0.83328   0.25007   0.00000  Uiso   1.00
O455   O     0.49999   0.87156   0.18393   0.00000  Uiso   1.00
O456   O     0.50001   0.79511   0.31608   0.00000  Uiso   1.00
O457   O     0.50001   0.87156   0.31608   0.00000  Uiso   1.00
O458   O     0.49999   0.79511   0.18393   0.00000  Uiso   1.00
C459   C     0.49762   0.83311   0.16346   0.00000  Uiso   1.00
C460   C     0.50238   0.83355   0.33654   0.00000  Uiso   1.00
Zn461  Zn    0.50000   0.88437   0.25000   0.00000  Uiso   1.00
Zn462  Zn    0.50000   0.78229   0.25000   0.00000  Uiso   1.00
C463   C     0.52845   0.80028   0.40728   0.00000  Uiso   1.00
C464   C     0.47155   0.86639   0.09272   0.00000  Uiso   1.00
C465   C     0.50640   0.83436   0.38440   0.00000  Uiso   1.00
C466   C     0.49360   0.83231   0.11560   0.00000  Uiso   1.00
C467   C     0.48649   0.86973   0.40730   0.00000  Uiso   1.00
C468   C     0.51351   0.79694   0.09270   0.00000  Uiso   1.00
C469   C     0.48409   0.86969   0.45316   0.00000  Uiso   1.00
C470   C     0.51591   0.79698   0.04684   0.00000  Uiso   1.00
C471   C     0.50205   0.83369   0.47676   0.00000  Uiso   1.00
C472   C     0.49795   0.83297   0.02324   0.00000  Uiso   1.00
C473   C     0.52426   0.79863   0.45397   0.00000  Uiso   1.00
C474   C     0.47574   0.86803   0.04603   0.00000  Uiso   1.00
C475   C     0.46283   0.90463   0.47549   0.00000  Uiso   1.00
C476   C     0.53716   0.76203   0.02451   0.00000  Uiso   1.00
C477   C     0.45869   0.90392   0.02148   0.00000  Uiso   1.00
C478   C     0.54131   0.76274   0.47852   0.00000  Uiso   1.00
H479   H     0.47153   0.89686   0.38922   0.00000  Uiso   1.00
H480   H     0.52847   0.76980   0.11078   0.00000  Uiso   1.00
H481   H     0.44916   0.93248   0.45730   0.00000  Uiso   1.00
H482   H     0.55084   0.73418   0.04270   0.00000  Uiso   1.00
H483   H     0.44247   0.93203   0.03739   0.00000  Uiso   1.00
H484   H     0.55752   0.73464   0.46261   0.00000  Uiso   1.00
C485   C     0.35531   0.81369   0.21349   0.00000  Uiso   1.00
C486   C     0.64469   0.85298   0.28651   0.00000  Uiso   1.00
C487   C     0.64535   0.81362   0.21359   0.00000  Uiso   1.00
C488   C     0.35465   0.85305   0.28641   0.00000  Uiso   1.00
C489   C     0.62407   0.83320   0.25011   0.00000  Uiso   1.00
C490   C     0.37593   0.83347   0.24989   0.00000  Uiso   1.00
C491   C     0.52766   0.69083   0.27554   0.00000  Uiso   1.00
C492   C     0.47234   0.97584   0.22446   0.00000  Uiso   1.00
C493   C     0.47238   0.69046   0.22441   0.00000  Uiso   1.00
C494   C     0.52762   0.97620   0.27559   0.00000  Uiso   1.00
H495   H     0.54983   0.70913   0.29588   0.00000  Uiso   1.00
H496   H     0.45017   0.95754   0.20412   0.00000  Uiso   1.00
H497   H     0.45032   0.70847   0.20394   0.00000  Uiso   1.00
H498   H     0.54968   0.95820   0.29606   0.00000  Uiso   1.00
N499   N     0.50000   0.95240   0.25000   0.00000  Uiso   1.00
N500   N     0.50000   0.71427   0.25000   0.00000  Uiso   1.00
C501   C     0.55792   0.76781   0.38293   0.00000  Uiso   1.00
H502   H     0.58817   0.76597   0.40070   0.00000  Uiso   1.00
H503   H     0.54377   0.73356   0.38102   0.00000  Uiso   1.00
H504   H     0.56634   0.77911   0.34894   0.00000  Uiso   1.00
C505   C     0.44208   0.89886   0.11707   0.00000  Uiso   1.00
H506   H     0.41183   0.90070   0.09930   0.00000  Uiso   1.00
H507   H     0.43366   0.88756   0.15106   0.00000  Uiso   1.00
H508   H     0.45622   0.93311   0.11897   0.00000  Uiso   1.00
I509   I     0.38958   0.78562   0.15778   0.00000  Uiso   1.00
I510   I     0.61042   0.88105   0.34222   0.00000  Uiso   1.00
I511   I     0.61205   0.78609   0.15784   0.00000  Uiso   1.00
I512   I     0.38795   0.88057   0.34216   0.00000  Uiso   1.00
O513   O     0.77226   0.87154   0.25000   0.00000  Uiso   1.00
O514   O     0.89441   0.79513   0.25001   0.00000  Uiso   1.00
O515   O     0.89441   0.87154   0.25001   0.00000  Uiso   1.00
O516   O     0.77226   0.79513   0.25000   0.00000  Uiso   1.00
C517   C     0.75338   0.83339   0.24993   0.00000  Uiso   1.00
C518   C     0.91328   0.83328   0.25007   0.00000  Uiso   1.00
O519   O     0.83333   0.87156   0.18393   0.00000  Uiso   1.00
O520   O     0.83334   0.79511   0.31608   0.00000  Uiso   1.00
O521   O     0.83334   0.87156   0.31608   0.00000  Uiso   1.00
O522   O     0.83333   0.79511   0.18393   0.00000  Uiso   1.00
C523   C     0.83095   0.83311   0.16346   0.00000  Uiso   1.00
C524   C     0.83572   0.83355   0.33654   0.00000  Uiso   1.00
Zn525  Zn    0.83333   0.88437   0.25000   0.00000  Uiso   1.00
Zn526  Zn    0.83333   0.78229   0.25000   0.00000  Uiso   1.00
C527   C     0.86178   0.80028   0.40728   0.00000  Uiso   1.00
C528   C     0.80489   0.86639   0.09272   0.00000  Uiso   1.00
C529   C     0.83973   0.83436   0.38440   0.00000  Uiso   1.00
C530   C     0.82693   0.83231   0.11560   0.00000  Uiso   1.00
C531   C     0.81982   0.86973   0.40730   0.00000  Uiso   1.00
C532   C     0.84685   0.79694   0.09270   0.00000  Uiso   1.00
C533   C     0.81742   0.86969   0.45316   0.00000  Uiso   1.00
C534   C     0.84924   0.79698   0.04684   0.00000  Uiso   1.00
C535   C     0.83538   0.83369   0.47676   0.00000  Uiso   1.00
C536   C     0.83129   0.83297   0.02324   0.00000  Uiso   1.00
C537   C     0.85759   0.79863   0.45397   0.00000  Uiso   1.00
C538   C     0.80908   0.86803   0.04603   0.00000  Uiso   1.00
C539   C     0.79617   0.90463   0.47549   0.00000  Uiso   1.00
C540   C     0.87050   0.76203   0.02451   0.00000  Uiso   1.00
C541   C     0.79202   0.90392   0.02148   0.00000  Uiso   1.00
C542   C     0.87465   0.76274   0.47852   0.00000  Uiso   1.00
H543   H     0.80486   0.89686   0.38922   0.00000  Uiso   1.00
H544   H     0.86181   0.76980   0.11078   0.00000  Uiso   1.00
H545   H     0.78250   0.93248   0.45730   0.00000  Uiso   1.00
H546   H     0.88417   0.73418   0.04270   0.00000  Uiso   1.00
H547   H     0.77581   0.93203   0.03739   0.00000  Uiso   1.00
H548   H     0.89086   0.73464   0.46261   0.00000  Uiso   1.00
C549   C     0.68864   0.81369   0.21349   0.00000  Uiso   1.00
C550   C     0.97802   0.85298   0.28651   0.00000  Uiso   1.00
C551   C     0.97868   0.81362   0.21359   0.00000  Uiso   1.00
C552   C     0.68798   0.85305   0.28641   0.00000  Uiso   1.00
C553   C     0.95740   0.83320   0.25011   0.00000  Uiso   1.00
C554   C     0.70926   0.83347   0.24989   0.00000  Uiso   1.00
C555   C     0.86099   0.69083   0.27554   0.00000  Uiso   1.00
C556   C     0.80568   0.97584   0.22446   0.00000  Uiso   1.00
C557   C     0.80571   0.69046   0.22441   0.00000  Uiso   1.00
C558   C     0.86096   0.97620   0.27559   0.00000  Uiso   1.00
H559   H     0.88316   0.70913   0.29588   0.00000  Uiso   1.00
H560   H     0.78350   0.95754   0.20412   0.00000  Uiso   1.00
H561   H     0.78365   0.70847   0.20394   0.00000  Uiso   1.00
H562   H     0.88301   0.95820   0.29606   0.00000  Uiso   1.00
N563   N     0.83333   0.95240   0.25000   0.00000  Uiso   1.00
N564   N     0.83333   0.71427   0.25000   0.00000  Uiso   1.00
C565   C     0.89125   0.76781   0.38293   0.00000  Uiso   1.00
H566   H     0.92150   0.76597   0.40070   0.00000  Uiso   1.00
H567   H     0.87711   0.73356   0.38102   0.00000  Uiso   1.00
H568   H     0.89967   0.77911   0.34894   0.00000  Uiso   1.00
C569   C     0.77542   0.89886   0.11707   0.00000  Uiso   1.00
H570   H     0.74516   0.90070   0.09930   0.00000  Uiso   1.00
H571   H     0.76700   0.88756   0.15106   0.00000  Uiso   1.00
H572   H     0.78956   0.93311   0.11897   0.00000  Uiso   1.00
I573   I     0.72292   0.78562   0.15778   0.00000  Uiso   1.00
I574   I     0.94375   0.88105   0.34222   0.00000  Uiso   1.00
I575   I     0.94538   0.78609   0.15784   0.00000  Uiso   1.00
I576   I     0.72129   0.88057   0.34216   0.00000  Uiso   1.00
O577   O     0.10559   0.20487   0.75000   0.00000  Uiso   1.00
O578   O     0.22774   0.12846   0.75001   0.00000  Uiso   1.00
O579   O     0.22774   0.20487   0.75001   0.00000  Uiso   1.00
O580   O     0.10559   0.12846   0.75000   0.00000  Uiso   1.00
C581   C     0.08672   0.16672   0.74993   0.00000  Uiso   1.00
C582   C     0.24662   0.16661   0.75007   0.00000  Uiso   1.00
O583   O     0.16666   0.20489   0.68393   0.00000  Uiso   1.00
O584   O     0.16667   0.12844   0.81608   0.00000  Uiso   1.00
O585   O     0.16667   0.20489   0.81608   0.00000  Uiso   1.00
O586   O     0.16666   0.12844   0.68393   0.00000  Uiso   1.00
C587   C     0.16428   0.16645   0.66346   0.00000  Uiso   1.00
C588   C     0.16905   0.16689   0.83654   0.00000  Uiso   1.00
Zn589  Zn    0.16667   0.21771   0.75000   0.00000  Uiso   1.00
Zn590  Zn    0.16667   0.11563   0.75000   0.00000  Uiso   1.00
C591   C     0.19511   0.13361   0.90728   0.00000  Uiso   1.00
C592   C     0.13822   0.19972   0.59272   0.00000  Uiso   1.00
C593   C     0.17307   0.16769   0.88440   0.00000  Uiso   1.00
C594   C     0.16027   0.16564   0.61560   0.00000  Uiso   1.00
C595   C     0.15315   0.20306   0.90730   0.00000  Uiso   1.00
C596   C     0.18018   0.13027   0.59270   0.00000  Uiso   1.00
C597   C     0.15076   0.20302   0.95316   0.00000  Uiso   1.00
C598   C     0.18258   0.13031   0.54684   0.00000  Uiso   1.00
C599   C     0.16871   0.16703   0.97676   0.00000  Uiso   1.00
C600   C     0.16462   0.16631   0.52324   0.00000  Uiso   1.00
C601   C     0.19092   0.13197   0.95397   0.00000  Uiso   1.00
C602   C     0.14241   0.20137   0.54603   0.00000  Uiso   1.00
C603   C     0.12950   0.23797   0.97549   0.00000  Uiso   1.00
C604   C     0.20383   0.09537   0.52451   0.00000  Uiso   1.00
C605   C     0.12535   0.23725   0.52148   0.00000  Uiso   1.00
C606   C     0.20798   0.09608   0.97852   0.00000  Uiso   1.00
H607   H     0.13819   0.23020   0.88922   0.00000  Uiso   1.00
H608   H     0.19514   0.10314   0.61078   0.00000  Uiso   1.00
H609   H     0.11583   0.26582   0.95730   0.00000  Uiso   1.00
H610   H     0.21750   0.06752   0.54270   0.00000  Uiso   1.00
H611   H     0.10914   0.26536   0.53739   0.00000  Uiso   1.00
H612   H     0.22419   0.06797   0.96261   0.00000  Uiso   1.00
C613   C     0.02198   0.14702   0.71349   0.00000  Uiso   1.00
C614   C     0.31135   0.18631   0.78651   0.00000  Uiso   1.00
C615   C     0.31202   0.14695   0.71359   0.00000  Uiso   1.00
C616   C     0.02132   0.18638   0.78641   0.00000  Uiso   1.00
C617   C     0.29073   0.16653   0.75011   0.00000  Uiso   1.00
C618   C     0.04260   0.16680   0.74989   0.00000  Uiso   1.00
C619   C     0.19432   0.02416   0.77554   0.00000  Uiso   1.00
C620   C     0.13901   0.30917   0.72446   0.00000  Uiso   1.00
C621   C     0.13904   0.02380   0.72441   0.00000  Uiso   1.00
C622   C     0.19429   0.30954   0.77559   0.00000  Uiso   1.00
H623   H     0.21650   0.04246   0.79588   0.00000  Uiso   1.00
H624   H     0.11684   0.29087   0.70412   0.00000  Uiso   1.00
H625   H     0.11699   0.04180   0.70394   0.00000  Uiso   1.00
H626   H     0.21635   0.29153   0.79606   0.00000  Uiso   1.00
N627   N     0.16667   0.28573   0.75000   0.00000  Uiso   1.00
N628   N     0.16667   0.04760   0.75000   0.00000  Uiso   1.00
C629   C     0.22458   0.10114   0.88293   0.00000  Uiso   1.00
H630   H     0.25484   0.09930   0.90070   0.00000  Uiso   1.00
H631   H     0.21044   0.06689   0.88102   0.00000  Uiso   1.00
H632   H     0.23300   0.11245   0.84894   0.00000  Uiso   1.00
C633   C     0.10875   0.23219   0.61707   0.00000  Uiso   1.00
H634   H     0.07849   0.23403   0.59930   0.00000  Uiso   1.00
H635   H     0.10033   0.22089   0.65106   0.00000  Uiso   1.00
H636   H     0.12289   0.26644   0.61897   0.00000  Uiso   1.00
I637   I     0.05625   0.11896   0.65778   0.00000  Uiso   1.00
I638   I     0.27708   0.21438   0.84222   0.00000  Uiso   1.00
I639   I     0.27871   0.11942   0.65784   0.00000  Uiso   1.00
I640   I     0.05462   0.21391   0.84216   0.00000  Uiso   1.00
O641   O     0.43892   0.20487   0.75000   0.00000  Uiso   1.00
O642   O     0.56108   0.12846   0.75001   0.00000  Uiso   1.00
O643   O     0.56108   0.20487   0.75001   0.00000  Uiso   1.00
O644   O     0.43892   0.12846   0.75000   0.00000  Uiso   1.00
C645   C     0.42005   0.16672   0.74993   0.00000  Uiso   1.00
C646   C     0.57995   0.16661   0.75007   0.00000  Uiso   1.00
O647   O     0.49999   0.20489   0.68393   0.00000  Uiso   1.00
O648   O     0.50001   0.12844   0.81608   0.00000  Uiso   1.00
O649   O     0.50001   0.20489   0.81608   0.00000  Uiso   1.00
O650   O     0.49999   0.12844   0.68393   0.00000  Uiso   1.00
C651   C     0.49762   0.16645   0.66346   0.00000  Uiso   1.00
C652   C     0.50238   0.16689   0.83654   0.00000  Uiso   1.00
Zn653  Zn    0.50000   0.21771   0.75000   0.00000  Uiso   1.00
Zn654  Zn    0.50000   0.11563   0.75000   0.00000  Uiso   1.00
C655   C     0.52845   0.13361   0.90728   0.00000  Uiso   1.00
C656   C     0.47155   0.19972   0.59272   0.00000  Uiso   1.00
C657   C     0.50640   0.16769   0.88440   0.00000  Uiso   1.00
C658   C     0.49360   0.16564   0.61560   0.00000  Uiso   1.00
C659   C     0.48649   0.20306   0.90730   0.00000  Uiso   1.00
C660   C     0.51351   0.13027   0.59270   0.00000  Uiso   1.00
C661   C     0.48409   0.20302   0.95316   0.00000  Uiso   1.00
C662   C     0.51591   0.13031   0.54684   0.00000  Uiso   1.00
C663   C     0.50205   0.16703   0.97676   0.00000  Uiso   1.00
C664   C     0.49795   0.16631   0.52324   0.00000  Uiso   1.00
C665   C     0.52426   0.13197   0.95397   0.00000  Uiso   1.00
C666   C     0.47574   0.20137   0.54603   0.00000  Uiso   1.00
C667   C     0.46283   0.23797   0.97549   0.00000  Uiso   1.00
C668   C     0.53716   0.09537   0.52451   0.00000  Uiso   1.00
C669   C     0.45869   0.23725   0.52148   0.00000  Uiso   1.00
C670   C     0.54131   0.09608   0.97852   0.00000  Uiso   1.00
H671   H     0.47153   0.23020   0.88922   0.00000  Uiso   1.00
H672   H     0.52847   0.10314   0.61078   0.00000  Uiso   1.00
H673   H     0.44916   0.26582   0.95730   0.00000  Uiso   1.00
H674   H     0.55084   0.06752   0.54270   0.00000  Uiso   1.00
H675   H     0.44247   0.26536   0.53739   0.00000  Uiso   1.00
H676   H     0.55752   0.06797   0.96261   0.00000  Uiso   1.00
C677   C     0.35531   0.14702   0.71349   0.00000  Uiso   1.00
C678   C     0.64469   0.18631   0.78651   0.00000  Uiso   1.00
C679   C     0.64535   0.14695   0.71359   0.00000  Uiso   1.00
C680   C     0.35465   0.18638   0.78641   0.00000  Uiso   1.00
C681   C     0.62407   0.16653   0.75011   0.00000  Uiso   1.00
C682   C     0.37593   0.16680   0.74989   0.00000  Uiso   1.00
C683   C     0.52766   0.02416   0.77554   0.00000  Uiso   1.00
C684   C     0.47234   0.30917   0.72446   0.00000  Uiso   1.00
C685   C     0.47238   0.02380   0.72441   0.00000  Uiso   1.00
C686   C     0.52762   0.30954   0.77559   0.00000  Uiso   1.00
H687   H     0.54983   0.04246   0.79588   0.00000  Uiso   1.00
H688   H     0.45017   0.29087   0.70412   0.00000  Uiso   1.00
H689   H     0.45032   0.04180   0.70394   0.00000  Uiso   1.00
H690   H     0.54968   0.29153   0.79606   0.00000  Uiso   1.00
N691   N     0.50000   0.28573   0.75000   0.00000  Uiso   1.00
N692   N     0.50000   0.04760   0.75000   0.00000  Uiso   1.00
C693   C     0.55792   0.10114   0.88293   0.00000  Uiso   1.00
H694   H     0.58817   0.09930   0.90070   0.00000  Uiso   1.00
H695   H     0.54377   0.06689   0.88102   0.00000  Uiso   1.00
H696   H     0.56634   0.11245   0.84894   0.00000  Uiso   1.00
C697   C     0.44208   0.23219   0.61707   0.00000  Uiso   1.00
H698   H     0.41183   0.23403   0.59930   0.00000  Uiso   1.00
H699   H     0.43366   0.22089   0.65106   0.00000  Uiso   1.00
H700   H     0.45622   0.26644   0.61897   0.00000  Uiso   1.00
I701   I     0.38958   0.11896   0.65778   0.00000  Uiso   1.00
I702   I     0.61042   0.21438   0.84222   0.00000  Uiso   1.00
I703   I     0.61205   0.11942   0.65784   0.00000  Uiso   1.00
I704   I     0.38795   0.21391   0.84216   0.00000  Uiso   1.00
O705   O     0.77226   0.20487   0.75000   0.00000  Uiso   1.00
O706   O     0.89441   0.12846   0.75001   0.00000  Uiso   1.00
O707   O     0.89441   0.20487   0.75001   0.00000  Uiso   1.00
O708   O     0.77226   0.12846   0.75000   0.00000  Uiso   1.00
C709   C     0.75338   0.16672   0.74993   0.00000  Uiso   1.00
C710   C     0.91328   0.16661   0.75007   0.00000  Uiso   1.00
O711   O     0.83333   0.20489   0.68393   0.00000  Uiso   1.00
O712   O     0.83334   0.12844   0.81608   0.00000  Uiso   1.00
O713   O     0.83334   0.20489   0.81608   0.00000  Uiso   1.00
O714   O     0.83333   0.12844   0.68393   0.00000  Uiso   1.00
C715   C     0.83095   0.16645   0.66346   0.00000  Uiso   1.00
C716   C     0.83572   0.16689   0.83654   0.00000  Uiso   1.00
Zn717  Zn    0.83333   0.21771   0.75000   0.00000  Uiso   1.00
Zn718  Zn    0.83333   0.11563   0.75000   0.00000  Uiso   1.00
C719   C     0.86178   0.13361   0.90728   0.00000  Uiso   1.00
C720   C     0.80489   0.19972   0.59272   0.00000  Uiso   1.00
C721   C     0.83973   0.16769   0.88440   0.00000  Uiso   1.00
C722   C     0.82693   0.16564   0.61560   0.00000  Uiso   1.00
C723   C     0.81982   0.20306   0.90730   0.00000  Uiso   1.00
C724   C     0.84685   0.13027   0.59270   0.00000  Uiso   1.00
C725   C     0.81742   0.20302   0.95316   0.00000  Uiso   1.00
C726   C     0.84924   0.13031   0.54684   0.00000  Uiso   1.00
C727   C     0.83538   0.16703   0.97676   0.00000  Uiso   1.00
C728   C     0.83129   0.16631   0.52324   0.00000  Uiso   1.00
C729   C     0.85759   0.13197   0.95397   0.00000  Uiso   1.00
C730   C     0.80908   0.20137   0.54603   0.00000  Uiso   1.00
C731   C     0.79617   0.23797   0.97549   0.00000  Uiso   1.00
C732   C     0.87050   0.09537   0.52451   0.00000  Uiso   1.00
C733   C     0.79202   0.23725   0.52148   0.00000  Uiso   1.00
C734   C     0.87465   0.09608   0.97852   0.00000  Uiso   1.00
H735   H     0.80486   0.23020   0.88922   0.00000  Uiso   1.00
H736   H     0.86181   0.10314   0.61078   0.00000  Uiso   1.00
H737   H     0.78250   0.26582   0.95730   0.00000  Uiso   1.00
H738   H     0.88417   0.06752   0.54270   0.00000  Uiso   1.00
H739   H     0.77581   0.26536   0.53739   0.00000  Uiso   1.00
H740   H     0.89086   0.06797   0.96261   0.00000  Uiso   1.00
C741   C     0.68864   0.14702   0.71349   0.00000  Uiso   1.00
C742   C     0.97802   0.18631   0.78651   0.00000  Uiso   1.00
C743   C     0.97868   0.14695   0.71359   0.00000  Uiso   1.00
C744   C     0.68798   0.18638   0.78641   0.00000  Uiso   1.00
C745   C     0.95740   0.16653   0.75011   0.00000  Uiso   1.00
C746   C     0.70926   0.16680   0.74989   0.00000  Uiso   1.00
C747   C     0.86099   0.02416   0.77554   0.00000  Uiso   1.00
C748   C     0.80568   0.30917   0.72446   0.00000  Uiso   1.00
C749   C     0.80571   0.02380   0.72441   0.00000  Uiso   1.00
C750   C     0.86096   0.30954   0.77559   0.00000  Uiso   1.00
H751   H     0.88316   0.04246   0.79588   0.00000  Uiso   1.00
H752   H     0.78350   0.29087   0.70412   0.00000  Uiso   1.00
H753   H     0.78365   0.04180   0.70394   0.00000  Uiso   1.00
H754   H     0.88301   0.29153   0.79606   0.00000  Uiso   1.00
N755   N     0.83333   0.28573   0.75000   0.00000  Uiso   1.00
N756   N     0.83333   0.04760   0.75000   0.00000  Uiso   1.00
C757   C     0.89125   0.10114   0.88293   0.00000  Uiso   1.00
H758   H     0.92150   0.09930   0.90070   0.00000  Uiso   1.00
H759   H     0.87711   0.06689   0.88102   0.00000  Uiso   1.00
H760   H     0.89967   0.11245   0.84894   0.00000  Uiso   1.00
C761   C     0.77542   0.23219   0.61707   0.00000  Uiso   1.00
H762   H     0.74516   0.23403   0.59930   0.00000  Uiso   1.00
H763   H     0.76700   0.22089   0.65106   0.00000  Uiso   1.00
H764   H     0.78956   0.26644   0.61897   0.00000  Uiso   1.00
I765   I     0.72292   0.11896   0.65778   0.00000  Uiso   1.00
I766   I     0.94375   0.21438   0.84222   0.00000  Uiso   1.00
I767   I     0.94538   0.11942   0.65784   0.00000  Uiso   1.00
I768   I     0.72129   0.21391   0.84216   0.00000  Uiso   1.00
O769   O     0.10559   0.53821   0.75000   0.00000  Uiso   1.00
O770   O     0.22774   0.46179   0.75001   0.00000  Uiso   1.00
O771   O     0.22774   0.53821   0.75001   0.00000  Uiso   1.00
O772   O     0.10559   0.46179   0.75000   0.00000  Uiso   1.00
C773   C     0.08672   0.50006   0.74993   0.00000  Uiso   1.00
C774   C     0.24662   0.49994   0.75007   0.00000  Uiso   1.00
O775   O     0.16666   0.53823   0.68393   0.00000  Uiso   1.00
O776   O     0.16667   0.46177   0.81608   0.00000  Uiso   1.00
O777   O     0.16667   0.53823   0.81608   0.00000  Uiso   1.00
O778   O     0.16666   0.46177   0.68393   0.00000  Uiso   1.00
C779   C     0.16428   0.49978   0.66346   0.00000  Uiso   1.00
C780   C     0.16905   0.50022   0.83654   0.00000  Uiso   1.00
Zn781  Zn    0.16667   0.55104   0.75000   0.00000  Uiso   1.00
Zn782  Zn    0.16667   0.44896   0.75000   0.00000  Uiso   1.00
C783   C     0.19511   0.46695   0.90728   0.00000  Uiso   1.00
C784   C     0.13822   0.53305   0.59272   0.00000  Uiso   1.00
C785   C     0.17307   0.50102   0.88440   0.00000  Uiso   1.00
C786   C     0.16027   0.49898   0.61560   0.00000  Uiso   1.00
C787   C     0.15315   0.53639   0.90730   0.00000  Uiso   1.00
C788   C     0.18018   0.46361   0.59270   0.00000  Uiso   1.00
C789   C     0.15076   0.53635   0.95316   0.00000  Uiso   1.00
C790   C     0.18258   0.46365   0.54684   0.00000  Uiso   1.00
C791   C     0.16871   0.50036   0.97676   0.00000  Uiso   1.00
C792   C     0.16462   0.49964   0.52324   0.00000  Uiso   1.00
C793   C     0.19092   0.46530   0.95397   0.00000  Uiso   1.00
C794   C     0.14241   0.53470   0.54603   0.00000  Uiso   1.00
C795   C     0.12950   0.57130   0.97549   0.00000  Uiso   1.00
C796   C     0.20383   0.42870   0.52451   0.00000  Uiso   1.00
C797   C     0.12535   0.57059   0.52148   0.00000  Uiso   1.00
C798   C     0.20798   0.42941   0.97852   0.00000  Uiso   1.00
H799   H     0.13819   0.56353   0.88922   0.00000  Uiso   1.00
H800   H     0.19514   0.43647   0.61078   0.00000  Uiso   1.00
H801   H     0.11583   0.59915   0.95730   0.00000  Uiso   1.00
H802   H     0.21750   0.40085   0.54270   0.00000  Uiso   1.00
H803   H     0.10914   0.59869   0.53739   0.00000  Uiso   1.00
H804   H     0.22419   0.40131   0.96261   0.00000  Uiso   1.00
C805   C     0.02198   0.48035   0.71349   0.00000  Uiso   1.00
C806   C     0.31135   0.51965   0.78651   0.00000  Uiso   1.00
C807   C     0.31202   0.48028   0.71359   0.00000  Uiso   1.00
C808   C     0.02132   0.51971   0.78641   0.00000  Uiso   1.00
C809   C     0.29073   0.49986   0.75011   0.00000  Uiso   1.00
C810   C     0.04260   0.50013   0.74989   0.00000  Uiso   1.00
C811   C     0.19432   0.35750   0.77554   0.00000  Uiso   1.00
C812   C     0.13901   0.64250   0.72446   0.00000  Uiso   1.00
C813   C     0.13904   0.35713   0.72441   0.00000  Uiso   1.00
C814   C     0.19429   0.64287   0.77559   0.00000  Uiso   1.00
H815   H     0.21650   0.37580   0.79588   0.00000  Uiso   1.00
H816   H     0.11684   0.62420   0.70412   0.00000  Uiso   1.00
H817   H     0.11699   0.37513   0.70394   0.00000  Uiso   1.00
H818   H     0.21635   0.62487   0.79606   0.00000  Uiso   1.00
N819   N     0.16667   0.61907   0.75000   0.00000  Uiso   1.00
N820   N     0.16667   0.38093   0.75000   0.00000  Uiso   1.00
C821   C     0.22458   0.43448   0.88293   0.00000  Uiso   1.00
H822   H     0.25484   0.43263   0.90070   0.00000  Uiso   1.00
H823   H     0.21044   0.40022   0.88102   0.00000  Uiso   1.00
H824   H     0.23300   0.44578   0.84894   0.00000  Uiso   1.00
C825   C     0.10875   0.56552   0.61707   0.00000  Uiso   1.00
H826   H     0.07849   0.56736   0.59930   0.00000  Uiso   1.00
H827   H     0.10033   0.55422   0.65106   0.00000  Uiso   1.00
H828   H     0.12289   0.59978   0.61897   0.00000  Uiso   1.00
I829   I     0.05625   0.45229   0.65778   0.00000  Uiso   1.00
I830   I     0.27708   0.54772   0.84222   0.00000  Uiso   1.00
I831   I     0.27871   0.45276   0.65784   0.00000  Uiso   1.00
I832   I     0.05462   0.54724   0.84216   0.00000  Uiso   1.00
O833   O     0.43892   0.53821   0.75000   0.00000  Uiso   1.00
O834   O     0.56108   0.46179   0.75001   0.00000  Uiso   1.00
O835   O     0.56108   0.53821   0.75001   0.00000  Uiso   1.00
O836   O     0.43892   0.46179   0.75000   0.00000  Uiso   1.00
C837   C     0.42005   0.50006   0.74993   0.00000  Uiso   1.00
C838   C     0.57995   0.49994   0.75007   0.00000  Uiso   1.00
O839   O     0.49999   0.53823   0.68393   0.00000  Uiso   1.00
O840   O     0.50001   0.46177   0.81608   0.00000  Uiso   1.00
O841   O     0.50001   0.53823   0.81608   0.00000  Uiso   1.00
O842   O     0.49999   0.46177   0.68393   0.00000  Uiso   1.00
C843   C     0.49762   0.49978   0.66346   0.00000  Uiso   1.00
C844   C     0.50238   0.50022   0.83654   0.00000  Uiso   1.00
Zn845  Zn    0.50000   0.55104   0.75000   0.00000  Uiso   1.00
Zn846  Zn    0.50000   0.44896   0.75000   0.00000  Uiso   1.00
C847   C     0.52845   0.46695   0.90728   0.00000  Uiso   1.00
C848   C     0.47155   0.53305   0.59272   0.00000  Uiso   1.00
C849   C     0.50640   0.50102   0.88440   0.00000  Uiso   1.00
C850   C     0.49360   0.49898   0.61560   0.00000  Uiso   1.00
C851   C     0.48649   0.53639   0.90730   0.00000  Uiso   1.00
C852   C     0.51351   0.46361   0.59270   0.00000  Uiso   1.00
C853   C     0.48409   0.53635   0.95316   0.00000  Uiso   1.00
C854   C     0.51591   0.46365   0.54684   0.00000  Uiso   1.00
C855   C     0.50205   0.50036   0.97676   0.00000  Uiso   1.00
C856   C     0.49795   0.49964   0.52324   0.00000  Uiso   1.00
C857   C     0.52426   0.46530   0.95397   0.00000  Uiso   1.00
C858   C     0.47574   0.53470   0.54603   0.00000  Uiso   1.00
C859   C     0.46283   0.57130   0.97549   0.00000  Uiso   1.00
C860   C     0.53716   0.42870   0.52451   0.00000  Uiso   1.00
C861   C     0.45869   0.57059   0.52148   0.00000  Uiso   1.00
C862   C     0.54131   0.42941   0.97852   0.00000  Uiso   1.00
H863   H     0.47153   0.56353   0.88922   0.00000  Uiso   1.00
H864   H     0.52847   0.43647   0.61078   0.00000  Uiso   1.00
H865   H     0.44916   0.59915   0.95730   0.00000  Uiso   1.00
H866   H     0.55084   0.40085   0.54270   0.00000  Uiso   1.00
H867   H     0.44247   0.59869   0.53739   0.00000  Uiso   1.00
H868   H     0.55752   0.40131   0.96261   0.00000  Uiso   1.00
C869   C     0.35531   0.48035   0.71349   0.00000  Uiso   1.00
C870   C     0.64469   0.51965   0.78651   0.00000  Uiso   1.00
C871   C     0.64535   0.48028   0.71359   0.00000  Uiso   1.00
C872   C     0.35465   0.51971   0.78641   0.00000  Uiso   1.00
C873   C     0.62407   0.49986   0.75011   0.00000  Uiso   1.00
C874   C     0.37593   0.50013   0.74989   0.00000  Uiso   1.00
C875   C     0.52766   0.35750   0.77554   0.00000  Uiso   1.00
C876   C     0.47234   0.64250   0.72446   0.00000  Uiso   1.00
C877   C     0.47238   0.35713   0.72441   0.00000  Uiso   1.00
C878   C     0.52762   0.64287   0.77559   0.00000  Uiso   1.00
H879   H     0.54983   0.37580   0.79588   0.00000  Uiso   1.00
H880   H     0.45017   0.62420   0.70412   0.00000  Uiso   1.00
H881   H     0.45032   0.37513   0.70394   0.00000  Uiso   1.00
H882   H     0.54968   0.62487   0.79606   0.00000  Uiso   1.00
N883   N     0.50000   0.61907   0.75000   0.00000  Uiso   1.00
N884   N     0.50000   0.38093   0.75000   0.00000  Uiso   1.00
C885   C     0.55792   0.43448   0.88293   0.00000  Uiso   1.00
H886   H     0.58817   0.43263   0.90070   0.00000  Uiso   1.00
H887   H     0.54377   0.40022   0.88102   0.00000  Uiso   1.00
H888   H     0.56634   0.44578   0.84894   0.00000  Uiso   1.00
C889   C     0.44208   0.56552   0.61707   0.00000  Uiso   1.00
H890   H     0.41183   0.56736   0.59930   0.00000  Uiso   1.00
H891   H     0.43366   0.55422   0.65106   0.00000  Uiso   1.00
H892   H     0.45622   0.59978   0.61897   0.00000  Uiso   1.00
I893   I     0.38958   0.45229   0.65778   0.00000  Uiso   1.00
I894   I     0.61042   0.54772   0.84222   0.00000  Uiso   1.00
I895   I     0.61205   0.45276   0.65784   0.00000  Uiso   1.00
I896   I     0.38795   0.54724   0.84216   0.00000  Uiso   1.00
O897   O     0.77226   0.53821   0.75000   0.00000  Uiso   1.00
O898   O     0.89441   0.46179   0.75001   0.00000  Uiso   1.00
O899   O     0.89441   0.53821   0.75001   0.00000  Uiso   1.00
O900   O     0.77226   0.46179   0.75000   0.00000  Uiso   1.00
C901   C     0.75338   0.50006   0.74993   0.00000  Uiso   1.00
C902   C     0.91328   0.49994   0.75007   0.00000  Uiso   1.00
O903   O     0.83333   0.53823   0.68393   0.00000  Uiso   1.00
O904   O     0.83334   0.46177   0.81608   0.00000  Uiso   1.00
O905   O     0.83334   0.53823   0.81608   0.00000  Uiso   1.00
O906   O     0.83333   0.46177   0.68393   0.00000  Uiso   1.00
C907   C     0.83095   0.49978   0.66346   0.00000  Uiso   1.00
C908   C     0.83572   0.50022   0.83654   0.00000  Uiso   1.00
Zn909  Zn    0.83333   0.55104   0.75000   0.00000  Uiso   1.00
Zn910  Zn    0.83333   0.44896   0.75000   0.00000  Uiso   1.00
C911   C     0.86178   0.46695   0.90728   0.00000  Uiso   1.00
C912   C     0.80489   0.53305   0.59272   0.00000  Uiso   1.00
C913   C     0.83973   0.50102   0.88440   0.00000  Uiso   1.00
C914   C     0.82693   0.49898   0.61560   0.00000  Uiso   1.00
C915   C     0.81982   0.53639   0.90730   0.00000  Uiso   1.00
C916   C     0.84685   0.46361   0.59270   0.00000  Uiso   1.00
C917   C     0.81742   0.53635   0.95316   0.00000  Uiso   1.00
C918   C     0.84924   0.46365   0.54684   0.00000  Uiso   1.00
C919   C     0.83538   0.50036   0.97676   0.00000  Uiso   1.00
C920   C     0.83129   0.49964   0.52324   0.00000  Uiso   1.00
C921   C     0.85759   0.46530   0.95397   0.00000  Uiso   1.00
C922   C     0.80908   0.53470   0.54603   0.00000  Uiso   1.00
C923   C     0.79617   0.57130   0.97549   0.00000  Uiso   1.00
C924   C     0.87050   0.42870   0.52451   0.00000  Uiso   1.00
C925   C     0.79202   0.57059   0.52148   0.00000  Uiso   1.00
C926   C     0.87465   0.42941   0.97852   0.00000  Uiso   1.00
H927   H     0.80486   0.56353   0.88922   0.00000  Uiso   1.00
H928   H     0.86181   0.43647   0.61078   0.00000  Uiso   1.00
H929   H     0.78250   0.59915   0.95730   0.00000  Uiso   1.00
H930   H     0.88417   0.40085   0.54270   0.00000  Uiso   1.00
H931   H     0.77581   0.59869   0.53739   0.00000  Uiso   1.00
H932   H     0.89086   0.40131   0.96261   0.00000  Uiso   1.00
C933   C     0.68864   0.48035   0.71349   0.00000  Uiso   1.00
C934   C     0.97802   0.51965   0.78651   0.00000  Uiso   1.00
C935   C     0.97868   0.48028   0.71359   0.00000  Uiso   1.00
C936   C     0.68798   0.51971   0.78641   0.00000  Uiso   1.00
C937   C     0.95740   0.49986   0.75011   0.00000  Uiso   1.00
C938   C     0.70926   0.50013   0.74989   0.00000  Uiso   1.00
C939   C     0.86099   0.35750   0.77554   0.00000  Uiso   1.00
C940   C     0.80568   0.64250   0.72446   0.00000  Uiso   1.00
C941   C     0.80571   0.35713   0.72441   0.00000  Uiso   1.00
C942   C     0.86096   0.64287   0.77559   0.00000  Uiso   1.00
H943   H     0.88316   0.37580   0.79588   0.00000  Uiso   1.00
H944   H     0.78350   0.62420   0.70412   0.00000  Uiso   1.00
H945   H     0.78365   0.37513   0.70394   0.00000  Uiso   1.00
H946   H     0.88301   0.62487   0.79606   0.00000  Uiso   1.00
N947   N     0.83333   0.61907   0.75000   0.00000  Uiso   1.00
N948   N     0.83333   0.38093   0.75000   0.00000  Uiso   1.00
C949   C     0.89125   0.43448   0.88293   0.00000  Uiso   1.00
H950   H     0.92150   0.43263   0.90070   0.00000  Uiso   1.00
H951   H     0.87711   0.40022   0.88102   0.00000  Uiso   1.00
H952   H     0.89967   0.44578   0.84894   0.00000  Uiso   1.00
C953   C     0.77542   0.56552   0.61707   0.00000  Uiso   1.00
H954   H     0.74516   0.56736   0.59930   0.00000  Uiso   1.00
H955   H     0.76700   0.55422   0.65106   0.00000  Uiso   1.00
H956   H     0.78956   0.59978   0.61897   0.00000  Uiso   1.00
I957   I     0.72292   0.45229   0.65778   0.00000  Uiso   1.00
I958   I     0.94375   0.54772   0.84222   0.00000  Uiso   1.00
I959   I     0.94538   0.45276   0.65784   0.00000  Uiso   1.00
I960   I     0.72129   0.54724   0.84216   0.00000  Uiso   1.00
O961   O     0.10559   0.87154   0.75000   0.00000  Uiso   1.00
O962   O     0.22774   0.79513   0.75001   0.00000  Uiso   1.00
O963   O     0.22774   0.87154   0.75001   0.00000  Uiso   1.00
O964   O     0.10559   0.79513   0.75000   0.00000  Uiso   1.00
C965   C     0.08672   0.83339   0.74993   0.00000  Uiso   1.00
C966   C     0.24662   0.83328   0.75007   0.00000  Uiso   1.00
O967   O     0.16666   0.87156   0.68393   0.00000  Uiso   1.00
O968   O     0.16667   0.79511   0.81608   0.00000  Uiso   1.00
O969   O     0.16667   0.87156   0.81608   0.00000  Uiso   1.00
O970   O     0.16666   0.79511   0.68393   0.00000  Uiso   1.00
C971   C     0.16428   0.83311   0.66346   0.00000  Uiso   1.00
C972   C     0.16905   0.83355   0.83654   0.00000  Uiso   1.00
Zn973  Zn    0.16667   0.88437   0.75000   0.00000  Uiso   1.00
Zn974  Zn    0.16667   0.78229   0.75000   0.00000  Uiso   1.00
C975   C     0.19511   0.80028   0.90728   0.00000  Uiso   1.00
C976   C     0.13822   0.86639   0.59272   0.00000  Uiso   1.00
C977   C     0.17307   0.83436   0.88440   0.00000  Uiso   1.00
C978   C     0.16027   0.83231   0.61560   0.00000  Uiso   1.00
C979   C     0.15315   0.86973   0.90730   0.00000  Uiso   1.00
C980   C     0.18018   0.79694   0.59270   0.00000  Uiso   1.00
C981   C     0.15076   0.86969   0.95316   0.00000  Uiso   1.00
C982   C     0.18258   0.79698   0.54684   0.00000  Uiso   1.00
C983   C     0.16871   0.83369   0.97676   0.00000  Uiso   1.00
C984   C     0.16462   0.83297   0.52324   0.00000  Uiso   1.00
C985   C     0.19092   0.79863   0.95397   0.00000  Uiso   1.00
C986   C     0.14241   0.86803   0.54603   0.00000  Uiso   1.00
C987   C     0.12950   0.90463   0.97549   0.00000  Uiso   1.00
C988   C     0.20383   0.76203   0.52451   0.00000  Uiso   1.00
C989   C     0.12535   0.90392   0.52148   0.00000  Uiso   1.00
C990   C     0.20798   0.76274   0.97852   0.00000  Uiso   1.00
H991   H     0.13819   0.89686   0.88922   0.00000  Uiso   1.00
H992   H     0.19514   0.76980   0.61078   0.00000  Uiso   1.00
H993   H     0.11583   0.93248   0.95730   0.00000  Uiso   1.00
H994   H     0.21750   0.73418   0.54270   0.00000  Uiso   1.00
H995   H     0.10914   0.93203   0.53739   0.00000  Uiso   1.00
H996   H     0.22419   0.73464   0.96261   0.00000  Uiso   1.00
C997   C     0.02198   0.81369   0.71349   0.00000  Uiso   1.00
C998   C     0.31135   0.85298   0.78651   0.00000  Uiso   1.00
C999   C     0.31202   0.81362   0.71359   0.00000  Uiso   1.00
C1000  C     0.02132   0.85305   0.78641   0.00000  Uiso   1.00
C1001  C     0.29073   0.83320   0.75011   0.00000  Uiso   1.00
C1002  C     0.04260   0.83347   0.74989   0.00000  Uiso   1.00
C1003  C     0.19432   0.69083   0.77554   0.00000  Uiso   1.00
C1004  C     0.13901   0.97584   0.72446   0.00000  Uiso   1.00
C1005  C     0.13904   0.69046   0.72441   0.00000  Uiso   1.00
C1006  C     0.19429   0.97620   0.77559   0.00000  Uiso   1.00
H1007  H     0.21650   0.70913   0.79588   0.00000  Uiso   1.00
H1008  H     0.11684   0.95754   0.70412   0.00000  Uiso   1.00
H1009  H     0.11699   0.70847   0.70394   0.00000  Uiso   1.00
H1010  H     0.21635   0.95820   0.79606   0.00000  Uiso   1.00
N1011  N     0.16667   0.95240   0.75000   0.00000  Uiso   1.00
N1012  N     0.16667   0.71427   0.75000   0.00000  Uiso   1.00
C1013  C     0.22458   0.76781   0.88293   0.00000  Uiso   1.00
H1014  H     0.25484   0.76597   0.90070   0.00000  Uiso   1.00
H1015  H     0.21044   0.73356   0.88102   0.00000  Uiso   1.00
H1016  H     0.23300   0.77911   0.84894   0.00000  Uiso   1.00
C1017  C     0.10875   0.89886   0.61707   0.00000  Uiso   1.00
H1018  H     0.07849   0.90070   0.59930   0.00000  Uiso   1.00
H1019  H     0.10033   0.88756   0.65106   0.00000  Uiso   1.00
H1020  H     0.12289   0.93311   0.61897   0.00000  Uiso   1.00
I1021  I     0.05625   0.78562   0.65778   0.00000  Uiso   1.00
I1022  I     0.27708   0.88105   0.84222   0.00000  Uiso   1.00
I1023  I     0.27871   0.78609   0.65784   0.00000  Uiso   1.00
I1024  I     0.05462   0.88057   0.84216   0.00000  Uiso   1.00
O1025  O     0.43892   0.87154   0.75000   0.00000  Uiso   1.00
O1026  O     0.56108   0.79513   0.75001   0.00000  Uiso   1.00
O1027  O     0.56108   0.87154   0.75001   0.00000  Uiso   1.00
O1028  O     0.43892   0.79513   0.75000   0.00000  Uiso   1.00
C1029  C     0.42005   0.83339   0.74993   0.00000  Uiso   1.00
C1030  C     0.57995   0.83328   0.75007   0.00000  Uiso   1.00
O1031  O     0.49999   0.87156   0.68393   0.00000  Uiso   1.00
O1032  O     0.50001   0.79511   0.81608   0.00000  Uiso   1.00
O1033  O     0.50001   0.87156   0.81608   0.00000  Uiso   1.00
O1034  O     0.49999   0.79511   0.68393   0.00000  Uiso   1.00
C1035  C     0.49762   0.83311   0.66346   0.00000  Uiso   1.00
C1036  C     0.50238   0.83355   0.83654   0.00000  Uiso   1.00
Zn1037 Zn    0.50000   0.88437   0.75000   0.00000  Uiso   1.00
Zn1038 Zn    0.50000   0.78229   0.75000   0.00000  Uiso   1.00
C1039  C     0.52845   0.80028   0.90728   0.00000  Uiso   1.00
C1040  C     0.47155   0.86639   0.59272   0.00000  Uiso   1.00
C1041  C     0.50640   0.83436   0.88440   0.00000  Uiso   1.00
C1042  C     0.49360   0.83231   0.61560   0.00000  Uiso   1.00
C1043  C     0.48649   0.86973   0.90730   0.00000  Uiso   1.00
C1044  C     0.51351   0.79694   0.59270   0.00000  Uiso   1.00
C1045  C     0.48409   0.86969   0.95316   0.00000  Uiso   1.00
C1046  C     0.51591   0.79698   0.54684   0.00000  Uiso   1.00
C1047  C     0.50205   0.83369   0.97676   0.00000  Uiso   1.00
C1048  C     0.49795   0.83297   0.52324   0.00000  Uiso   1.00
C1049  C     0.52426   0.79863   0.95397   0.00000  Uiso   1.00
C1050  C     0.47574   0.86803   0.54603   0.00000  Uiso   1.00
C1051  C     0.46283   0.90463   0.97549   0.00000  Uiso   1.00
C1052  C     0.53716   0.76203   0.52451   0.00000  Uiso   1.00
C1053  C     0.45869   0.90392   0.52148   0.00000  Uiso   1.00
C1054  C     0.54131   0.76274   0.97852   0.00000  Uiso   1.00
H1055  H     0.47153   0.89686   0.88922   0.00000  Uiso   1.00
H1056  H     0.52847   0.76980   0.61078   0.00000  Uiso   1.00
H1057  H     0.44916   0.93248   0.95730   0.00000  Uiso   1.00
H1058  H     0.55084   0.73418   0.54270   0.00000  Uiso   1.00
H1059  H     0.44247   0.93203   0.53739   0.00000  Uiso   1.00
H1060  H     0.55752   0.73464   0.96261   0.00000  Uiso   1.00
C1061  C     0.35531   0.81369   0.71349   0.00000  Uiso   1.00
C1062  C     0.64469   0.85298   0.78651   0.00000  Uiso   1.00
C1063  C     0.64535   0.81362   0.71359   0.00000  Uiso   1.00
C1064  C     0.35465   0.85305   0.78641   0.00000  Uiso   1.00
C1065  C     0.62407   0.83320   0.75011   0.00000  Uiso   1.00
C1066  C     0.37593   0.83347   0.74989   0.00000  Uiso   1.00
C1067  C     0.52766   0.69083   0.77554   0.00000  Uiso   1.00
C1068  C     0.47234   0.97584   0.72446   0.00000  Uiso   1.00
C1069  C     0.47238   0.69046   0.72441   0.00000  Uiso   1.00
C1070  C     0.52762   0.97620   0.77559   0.00000  Uiso   1.00
H1071  H     0.54983   0.70913   0.79588   0.00000  Uiso   1.00
H1072  H     0.45017   0.95754   0.70412   0.00000  Uiso   1.00
H1073  H     0.45032   0.70847   0.70394   0.00000  Uiso   1.00
H1074  H     0.54968   0.95820   0.79606   0.00000  Uiso   1.00
N1075  N     0.50000   0.95240   0.75000   0.00000  Uiso   1.00
N1076  N     0.50000   0.71427   0.75000   0.00000  Uiso   1.00
C1077  C     0.55792   0.76781   0.88293   0.00000  Uiso   1.00
H1078  H     0.58817   0.76597   0.90070   0.00000  Uiso   1.00
H1079  H     0.54377   0.73356   0.88102   0.00000  Uiso   1.00
H1080  H     0.56634   0.77911   0.84894   0.00000  Uiso   1.00
C1081  C     0.44208   0.89886   0.61707   0.00000  Uiso   1.00
H1082  H     0.41183   0.90070   0.59930   0.00000  Uiso   1.00
H1083  H     0.43366   0.88756   0.65106   0.00000  Uiso   1.00
H1084  H     0.45622   0.93311   0.61897   0.00000  Uiso   1.00
I1085  I     0.38958   0.78562   0.65778   0.00000  Uiso   1.00
I1086  I     0.61042   0.88105   0.84222   0.00000  Uiso   1.00
I1087  I     0.61205   0.78609   0.65784   0.00000  Uiso   1.00
I1088  I     0.38795   0.88057   0.84216   0.00000  Uiso   1.00
O1089  O     0.77226   0.87154   0.75000   0.00000  Uiso   1.00
O1090  O     0.89441   0.79513   0.75001   0.00000  Uiso   1.00
O1091  O     0.89441   0.87154   0.75001   0.00000  Uiso   1.00
O1092  O     0.77226   0.79513   0.75000   0.00000  Uiso   1.00
C1093  C     0.75338   0.83339   0.74993   0.00000  Uiso   1.00
C1094  C     0.91328   0.83328   0.75007   0.00000  Uiso   1.00
O1095  O     0.83333   0.87156   0.68393   0.00000  Uiso   1.00
O1096  O     0.83334   0.79511   0.81608   0.00000  Uiso   1.00
O1097  O     0.83334   0.87156   0.81608   0.00000  Uiso   1.00
O1098  O     0.83333   0.79511   0.68393   0.00000  Uiso   1.00
C1099  C     0.83095   0.83311   0.66346   0.00000  Uiso   1.00
C1100  C     0.83572   0.83355   0.83654   0.00000  Uiso   1.00
Zn1101 Zn    0.83333   0.88437   0.75000   0.00000  Uiso   1.00
Zn1102 Zn    0.83333   0.78229   0.75000   0.00000  Uiso   1.00
C1103  C     0.86178   0.80028   0.90728   0.00000  Uiso   1.00
C1104  C     0.80489   0.86639   0.59272   0.00000  Uiso   1.00
C1105  C     0.83973   0.83436   0.88440   0.00000  Uiso   1.00
C1106  C     0.82693   0.83231   0.61560   0.00000  Uiso   1.00
C1107  C     0.81982   0.86973   0.90730   0.00000  Uiso   1.00
C1108  C     0.84685   0.79694   0.59270   0.00000  Uiso   1.00
C1109  C     0.81742   0.86969   0.95316   0.00000  Uiso   1.00
C1110  C     0.84924   0.79698   0.54684   0.00000  Uiso   1.00
C1111  C     0.83538   0.83369   0.97676   0.00000  Uiso   1.00
C1112  C     0.83129   0.83297   0.52324   0.00000  Uiso   1.00
C1113  C     0.85759   0.79863   0.95397   0.00000  Uiso   1.00
C1114  C     0.80908   0.86803   0.54603   0.00000  Uiso   1.00
C1115  C     0.79617   0.90463   0.97549   0.00000  Uiso   1.00
C1116  C     0.87050   0.76203   0.52451   0.00000  Uiso   1.00
C1117  C     0.79202   0.90392   0.52148   0.00000  Uiso   1.00
C1118  C     0.87465   0.76274   0.97852   0.00000  Uiso   1.00
H1119  H     0.80486   0.89686   0.88922   0.00000  Uiso   1.00
H1120  H     0.86181   0.76980   0.61078   0.00000  Uiso   1.00
H1121  H     0.78250   0.93248   0.95730   0.00000  Uiso   1.00
H1122  H     0.88417   0.73418   0.54270   0.00000  Uiso   1.00
H1123  H     0.77581   0.93203   0.53739   0.00000  Uiso   1.00
H1124  H     0.89086   0.73464   0.96261   0.00000  Uiso   1.00
C1125  C     0.68864   0.81369   0.71349   0.00000  Uiso   1.00
C1126  C     0.97802   0.85298   0.78651   0.00000  Uiso   1.00
C1127  C     0.97868   0.81362   0.71359   0.00000  Uiso   1.00
C1128  C     0.68798   0.85305   0.78641   0.00000  Uiso   1.00
C1129  C     0.95740   0.83320   0.75011   0.00000  Uiso   1.00
C1130  C     0.70926   0.83347   0.74989   0.00000  Uiso   1.00
C1131  C     0.86099   0.69083   0.77554   0.00000  Uiso   1.00
C1132  C     0.80568   0.97584   0.72446   0.00000  Uiso   1.00
C1133  C     0.80571   0.69046   0.72441   0.00000  Uiso   1.00
C1134  C     0.86096   0.97620   0.77559   0.00000  Uiso   1.00
H1135  H     0.88316   0.70913   0.79588   0.00000  Uiso   1.00
H1136  H     0.78350   0.95754   0.70412   0.00000  Uiso   1.00
H1137  H     0.78365   0.70847   0.70394   0.00000  Uiso   1.00
H1138  H     0.88301   0.95820   0.79606   0.00000  Uiso   1.00
N1139  N     0.83333   0.95240   0.75000   0.00000  Uiso   1.00
N1140  N     0.83333   0.71427   0.75000   0.00000  Uiso   1.00
C1141  C     0.89125   0.76781   0.88293   0.00000  Uiso   1.00
H1142  H     0.92150   0.76597   0.90070   0.00000  Uiso   1.00
H1143  H     0.87711   0.73356   0.88102   0.00000  Uiso   1.00
H1144  H     0.89967   0.77911   0.84894   0.00000  Uiso   1.00
C1145  C     0.77542   0.89886   0.61707   0.00000  Uiso   1.00
H1146  H     0.74516   0.90070   0.59930   0.00000  Uiso   1.00
H1147  H     0.76700   0.88756   0.65106   0.00000  Uiso   1.00
H1148  H     0.78956   0.93311   0.61897   0.00000  Uiso   1.00
I1149  I     0.72292   0.78562   0.65778   0.00000  Uiso   1.00
I1150  I     0.94375   0.88105   0.84222   0.00000  Uiso   1.00
I1151  I     0.94538   0.78609   0.65784   0.00000  Uiso   1.00
I1152  I     0.72129   0.88057   0.84216   0.00000  Uiso   1.00
loop_
_geom_bond_atom_site_label_1
_geom_bond_atom_site_label_2
_geom_bond_distance
_geom_bond_site_symmetry_2
_ccdc_geom_bond_type
O1     C5      1.280   .     A
O1     Zn13    1.993   .     S
O2     C6      1.280   .     A
O2     Zn14    1.993   .     S
O3     C6      1.279   .     A
O3     Zn13    1.990   .     S
O4     Zn14    1.990   .     S
O4     C5      1.279   .     A
C5     C42     1.412   .     S
C6     C41     1.412   .     S
O7     C11     1.287   .     A
O7     Zn13    2.013   .     S
O8     C12     1.287   .     A
O8     Zn14    2.013   .     S
O9     C12     1.287   .     A
O9     Zn13    2.021   .     S
O10    Zn14    2.021   .     S
O10    C11     1.287   .     A
C11    C18     1.441   .     S
C12    C17     1.441   .     S
Zn13   N51     2.008   .     S
Zn14   N52     2.008   .     S
C15    C53     1.520   .     S
C15    C25     1.407   .     A
C15    C17     1.414   .     A
C16    C18     1.414   .     A
C16    C57     1.520   .     S
C16    C26     1.407   .     A
C17    C19     1.393   .     A
C18    C20     1.393   .     A
C19    H31     1.084   .     S
C19    C21     1.376   .     A
C20    H32     1.084   .     S
C20    C22     1.376   .     A
C21    C27     1.396   .     A
C21    C23     1.406   .     A
C22    C28     1.396   .     A
C22    C24     1.406   .     A
C23    C25     1.419   .     A
C23    C600    1.399   .     S
C24    C26     1.419   .     A
C24    C599    1.399   1_554 S
C25    C30     1.407   .     A
C26    C29     1.407   .     A
C27    H33     1.084   .     S
C27    C605    1.385   .     S
C28    H34     1.084   .     S
C28    C606    1.385   1_554 S
C29    H35     1.081   .     S
C29    C603    1.385   1_554 S
C30    H36     1.081   .     S
C30    C604    1.385   .     S
C37    I61     2.148   .     S
C37    C42     1.403   .     A
C37    C167    1.386   1_455 S
C38    C41     1.403   .     A
C38    I62     2.148   .     S
C38    C104    1.386   .     S
C39    I63     2.143   .     S
C39    C41     1.403   .     A
C39    C101    1.386   .     S
C40    C42     1.403   .     A
C40    I64     2.143   .     S
C40    C166    1.386   1_455 S
C43    N52     1.366   .     A
C43    H47     1.081   .     S
C43    C430    1.416   1_545 S
C44    N51     1.366   .     A
C44    H48     1.081   .     S
C44    C237    1.416   .     S
C45    H49     1.081   .     S
C45    N52     1.366   .     A
C45    C428    1.416   1_545 S
C46    H50     1.081   .     S
C46    N51     1.366   .     A
C46    C235    1.416   .     S
C53    H54     1.110   .     S
C53    H55     1.110   .     S
C53    H56     1.107   .     S
C57    H58     1.110   .     S
C57    H59     1.107   .     S
C57    H60     1.110   .     S
O65    C69     1.280   .     A
O65    Zn77    1.993   .     S
O66    C70     1.280   .     A
O66    Zn78    1.993   .     S
O67    C70     1.279   .     A
O67    Zn77    1.990   .     S
O68    Zn78    1.990   .     S
O68    C69     1.279   .     A
C69    C106    1.412   .     S
C70    C105    1.412   .     S
O71    C75     1.287   .     A
O71    Zn77    2.013   .     S
O72    C76     1.287   .     A
O72    Zn78    2.013   .     S
O73    C76     1.287   .     A
O73    Zn77    2.021   .     S
O74    Zn78    2.021   .     S
O74    C75     1.287   .     A
C75    C82     1.441   .     S
C76    C81     1.441   .     S
Zn77   N115    2.008   .     S
Zn78   N116    2.008   .     S
C79    C117    1.520   .     S
C79    C89     1.407   .     A
C79    C81     1.414   .     A
C80    C82     1.414   .     A
C80    C121    1.520   .     S
C80    C90     1.407   .     A
C81    C83     1.393   .     A
C82    C84     1.393   .     A
C83    H95     1.084   .     S
C83    C85     1.376   .     A
C84    H96     1.084   .     S
C84    C86     1.376   .     A
C85    C91     1.396   .     A
C85    C87     1.406   .     A
C86    C92     1.396   .     A
C86    C88     1.406   .     A
C87    C89     1.419   .     A
C87    C664    1.399   .     S
C88    C90     1.419   .     A
C88    C663    1.399   1_554 S
C89    C94     1.407   .     A
C90    C93     1.407   .     A
C91    H97     1.084   .     S
C91    C669    1.385   .     S
C92    H98     1.084   .     S
C92    C670    1.385   1_554 S
C93    H99     1.081   .     S
C93    C667    1.385   1_554 S
C94    H100    1.081   .     S
C94    C668    1.385   .     S
C101   I125    2.148   .     S
C101   C106    1.403   .     A
C102   C105    1.403   .     A
C102   I126    2.148   .     S
C102   C168    1.386   .     S
C103   I127    2.143   .     S
C103   C105    1.403   .     A
C103   C165    1.386   .     S
C104   C106    1.403   .     A
C104   I128    2.143   .     S
C107   N116    1.366   .     A
C107   H111    1.081   .     S
C107   C494    1.416   1_545 S
C108   N115    1.366   .     A
C108   H112    1.081   .     S
C108   C301    1.416   .     S
C109   H113    1.081   .     S
C109   N116    1.366   .     A
C109   C492    1.416   1_545 S
C110   H114    1.081   .     S
C110   N115    1.366   .     A
C110   C299    1.416   .     S
C117   H118    1.110   .     S
C117   H119    1.110   .     S
C117   H120    1.107   .     S
C121   H122    1.110   .     S
C121   H123    1.107   .     S
C121   H124    1.110   .     S
O129   C133    1.280   .     A
O129   Zn141   1.993   .     S
O130   C134    1.280   .     A
O130   Zn142   1.993   .     S
O131   C134    1.279   .     A
O131   Zn141   1.990   .     S
O132   Zn142   1.990   .     S
O132   C133    1.279   .     A
C133   C170    1.412   .     S
C134   C169    1.412   .     S
O135   C139    1.287   .     A
O135   Zn141   2.013   .     S
O136   C140    1.287   .     A
O136   Zn142   2.013   .     S
O137   C140    1.287   .     A
O137   Zn141   2.021   .     S
O138   Zn142   2.021   .     S
O138   C139    1.287   .     A
C139   C146    1.441   .     S
C140   C145    1.441   .     S
Zn141  N179    2.008   .     S
Zn142  N180    2.008   .     S
C143   C181    1.520   .     S
C143   C153    1.407   .     A
C143   C145    1.414   .     A
C144   C146    1.414   .     A
C144   C185    1.520   .     S
C144   C154    1.407   .     A
C145   C147    1.393   .     A
C146   C148    1.393   .     A
C147   H159    1.084   .     S
C147   C149    1.376   .     A
C148   H160    1.084   .     S
C148   C150    1.376   .     A
C149   C155    1.396   .     A
C149   C151    1.406   .     A
C150   C156    1.396   .     A
C150   C152    1.406   .     A
C151   C153    1.419   .     A
C151   C728    1.399   .     S
C152   C154    1.419   .     A
C152   C727    1.399   1_554 S
C153   C158    1.407   .     A
C154   C157    1.407   .     A
C155   H161    1.084   .     S
C155   C733    1.385   .     S
C156   H162    1.084   .     S
C156   C734    1.385   1_554 S
C157   H163    1.081   .     S
C157   C731    1.385   1_554 S
C158   H164    1.081   .     S
C158   C732    1.385   .     S
C165   I189    2.148   .     S
C165   C170    1.403   .     A
C166   C169    1.403   .     A
C166   I190    2.148   .     S
C166   C40     1.386   1_655 S
C167   I191    2.143   .     S
C167   C169    1.403   .     A
C167   C37     1.386   1_655 S
C168   C170    1.403   .     A
C168   I192    2.143   .     S
C171   N180    1.366   .     A
C171   H175    1.081   .     S
C171   C558    1.416   1_545 S
C172   N179    1.366   .     A
C172   H176    1.081   .     S
C172   C365    1.416   .     S
C173   H177    1.081   .     S
C173   N180    1.366   .     A
C173   C556    1.416   1_545 S
C174   H178    1.081   .     S
C174   N179    1.366   .     A
C174   C363    1.416   .     S
C181   H182    1.110   .     S
C181   H183    1.110   .     S
C181   H184    1.107   .     S
C185   H186    1.110   .     S
C185   H187    1.107   .     S
C185   H188    1.110   .     S
O193   C197    1.280   .     A
O193   Zn205   1.993   .     S
O194   C198    1.280   .     A
O194   Zn206   1.993   .     S
O195   C198    1.279   .     A
O195   Zn205   1.990   .     S
O196   Zn206   1.990   .     S
O196   C197    1.279   .     A
C197   C234    1.412   .     S
C198   C233    1.412   .     S
O199   C203    1.287   .     A
O199   Zn205   2.013   .     S
O200   C204    1.287   .     A
O200   Zn206   2.013   .     S
O201   C204    1.287   .     A
O201   Zn205   2.021   .     S
O202   Zn206   2.021   .     S
O202   C203    1.287   .     A
C203   C210    1.441   .     S
C204   C209    1.441   .     S
Zn205  N243    2.008   .     S
Zn206  N244    2.008   .     S
C207   C245    1.520   .     S
C207   C217    1.407   .     A
C207   C209    1.414   .     A
C208   C210    1.414   .     A
C208   C249    1.520   .     S
C208   C218    1.407   .     A
C209   C211    1.393   .     A
C210   C212    1.393   .     A
C211   H223    1.084   .     S
C211   C213    1.376   .     A
C212   H224    1.084   .     S
C212   C214    1.376   .     A
C213   C219    1.396   .     A
C213   C215    1.406   .     A
C214   C220    1.396   .     A
C214   C216    1.406   .     A
C215   C217    1.419   .     A
C215   C792    1.399   .     S
C216   C218    1.419   .     A
C216   C791    1.399   1_554 S
C217   C222    1.407   .     A
C218   C221    1.407   .     A
C219   H225    1.084   .     S
C219   C797    1.385   .     S
C220   H226    1.084   .     S
C220   C798    1.385   1_554 S
C221   H227    1.081   .     S
C221   C795    1.385   1_554 S
C222   H228    1.081   .     S
C222   C796    1.385   .     S
C229   I253    2.148   .     S
C229   C234    1.403   .     A
C229   C359    1.386   1_455 S
C230   C233    1.403   .     A
C230   I254    2.148   .     S
C230   C296    1.386   .     S
C231   I255    2.143   .     S
C231   C233    1.403   .     A
C231   C293    1.386   .     S
C232   C234    1.403   .     A
C232   I256    2.143   .     S
C232   C358    1.386   1_455 S
C235   N244    1.366   .     A
C235   H239    1.081   .     S
C236   N243    1.366   .     A
C236   H240    1.081   .     S
C236   C429    1.416   .     S
C237   H241    1.081   .     S
C237   N244    1.366   .     A
C238   H242    1.081   .     S
C238   N243    1.366   .     A
C238   C427    1.416   .     S
C245   H246    1.110   .     S
C245   H247    1.110   .     S
C245   H248    1.107   .     S
C249   H250    1.110   .     S
C249   H251    1.107   .     S
C249   H252    1.110   .     S
O257   C261    1.280   .     A
O257   Zn269   1.993   .     S
O258   C262    1.280   .     A
O258   Zn270   1.993   .     S
O259   C262    1.279   .     A
O259   Zn269   1.990   .     S
O260   Zn270   1.990   .     S
O260   C261    1.279   .     A
C261   C298    1.412   .     S
C262   C297    1.412   .     S
O263   C267    1.287   .     A
O263   Zn269   2.013   .     S
O264   C268    1.287   .     A
O264   Zn270   2.013   .     S
O265   C268    1.287   .     A
O265   Zn269   2.021   .     S
O266   Zn270   2.021   .     S
O266   C267    1.287   .     A
C267   C274    1.441   .     S
C268   C273    1.441   .     S
Zn269  N307    2.008   .     S
Zn270  N308    2.008   .     S
C271   C309    1.520   .     S
C271   C281    1.407   .     A
C271   C273    1.414   .     A
C272   C274    1.414   .     A
C272   C313    1.520   .     S
C272   C282    1.407   .     A
C273   C275    1.393   .     A
C274   C276    1.393   .     A
C275   H287    1.084   .     S
C275   C277    1.376   .     A
C276   H288    1.084   .     S
C276   C278    1.376   .     A
C277   C283    1.396   .     A
C277   C279    1.406   .     A
C278   C284    1.396   .     A
C278   C280    1.406   .     A
C279   C281    1.419   .     A
C279   C856    1.399   .     S
C280   C282    1.419   .     A
C280   C855    1.399   1_554 S
C281   C286    1.407   .     A
C282   C285    1.407   .     A
C283   H289    1.084   .     S
C283   C861    1.385   .     S
C284   H290    1.084   .     S
C284   C862    1.385   1_554 S
C285   H291    1.081   .     S
C285   C859    1.385   1_554 S
C286   H292    1.081   .     S
C286   C860    1.385   .     S
C293   I317    2.148   .     S
C293   C298    1.403   .     A
C294   C297    1.403   .     A
C294   I318    2.148   .     S
C294   C360    1.386   .     S
C295   I319    2.143   .     S
C295   C297    1.403   .     A
C295   C357    1.386   .     S
C296   C298    1.403   .     A
C296   I320    2.143   .     S
C299   N308    1.366   .     A
C299   H303    1.081   .     S
C300   N307    1.366   .     A
C300   H304    1.081   .     S
C300   C493    1.416   .     S
C301   H305    1.081   .     S
C301   N308    1.366   .     A
C302   H306    1.081   .     S
C302   N307    1.366   .     A
C302   C491    1.416   .     S
C309   H310    1.110   .     S
C309   H311    1.110   .     S
C309   H312    1.107   .     S
C313   H314    1.110   .     S
C313   H315    1.107   .     S
C313   H316    1.110   .     S
O321   C325    1.280   .     A
O321   Zn333   1.993   .     S
O322   C326    1.280   .     A
O322   Zn334   1.993   .     S
O323   C326    1.279   .     A
O323   Zn333   1.990   .     S
O324   Zn334   1.990   .     S
O324   C325    1.279   .     A
C325   C362    1.412   .     S
C326   C361    1.412   .     S
O327   C331    1.287   .     A
O327   Zn333   2.013   .     S
O328   C332    1.287   .     A
O328   Zn334   2.013   .     S
O329   C332    1.287   .     A
O329   Zn333   2.021   .     S
O330   Zn334   2.021   .     S
O330   C331    1.287   .     A
C331   C338    1.441   .     S
C332   C337    1.441   .     S
Zn333  N371    2.008   .     S
Zn334  N372    2.008   .     S
C335   C373    1.520   .     S
C335   C345    1.407   .     A
C335   C337    1.414   .     A
C336   C338    1.414   .     A
C336   C377    1.520   .     S
C336   C346    1.407   .     A
C337   C339    1.393   .     A
C338   C340    1.393   .     A
C339   H351    1.084   .     S
C339   C341    1.376   .     A
C340   H352    1.084   .     S
C340   C342    1.376   .     A
C341   C347    1.396   .     A
C341   C343    1.406   .     A
C342   C348    1.396   .     A
C342   C344    1.406   .     A
C343   C345    1.419   .     A
C343   C920    1.399   .     S
C344   C346    1.419   .     A
C344   C919    1.399   1_554 S
C345   C350    1.407   .     A
C346   C349    1.407   .     A
C347   H353    1.084   .     S
C347   C925    1.385   .     S
C348   H354    1.084   .     S
C348   C926    1.385   1_554 S
C349   H355    1.081   .     S
C349   C923    1.385   1_554 S
C350   H356    1.081   .     S
C350   C924    1.385   .     S
C357   I381    2.148   .     S
C357   C362    1.403   .     A
C358   C361    1.403   .     A
C358   I382    2.148   .     S
C358   C232    1.386   1_655 S
C359   I383    2.143   .     S
C359   C361    1.403   .     A
C359   C229    1.386   1_655 S
C360   C362    1.403   .     A
C360   I384    2.143   .     S
C363   N372    1.366   .     A
C363   H367    1.081   .     S
C364   N371    1.366   .     A
C364   H368    1.081   .     S
C364   C557    1.416   .     S
C365   H369    1.081   .     S
C365   N372    1.366   .     A
C366   H370    1.081   .     S
C366   N371    1.366   .     A
C366   C555    1.416   .     S
C373   H374    1.110   .     S
C373   H375    1.110   .     S
C373   H376    1.107   .     S
C377   H378    1.110   .     S
C377   H379    1.107   .     S
C377   H380    1.110   .     S
O385   C389    1.280   .     A
O385   Zn397   1.993   .     S
O386   C390    1.280   .     A
O386   Zn398   1.993   .     S
O387   C390    1.279   .     A
O387   Zn397   1.990   .     S
O388   Zn398   1.990   .     S
O388   C389    1.279   .     A
C389   C426    1.412   .     S
C390   C425    1.412   .     S
O391   C395    1.287   .     A
O391   Zn397   2.013   .     S
O392   C396    1.287   .     A
O392   Zn398   2.013   .     S
O393   C396    1.287   .     A
O393   Zn397   2.021   .     S
O394   Zn398   2.021   .     S
O394   C395    1.287   .     A
C395   C402    1.441   .     S
C396   C401    1.441   .     S
Zn397  N435    2.008   .     S
Zn398  N436    2.008   .     S
C399   C437    1.520   .     S
C399   C409    1.407   .     A
C399   C401    1.414   .     A
C400   C402    1.414   .     A
C400   C441    1.520   .     S
C400   C410    1.407   .     A
C401   C403    1.393   .     A
C402   C404    1.393   .     A
C403   H415    1.084   .     S
C403   C405    1.376   .     A
C404   H416    1.084   .     S
C404   C406    1.376   .     A
C405   C411    1.396   .     A
C405   C407    1.406   .     A
C406   C412    1.396   .     A
C406   C408    1.406   .     A
C407   C409    1.419   .     A
C407   C984    1.399   .     S
C408   C410    1.419   .     A
C408   C983    1.399   1_554 S
C409   C414    1.407   .     A
C410   C413    1.407   .     A
C411   H417    1.084   .     S
C411   C989    1.385   .     S
C412   H418    1.084   .     S
C412   C990    1.385   1_554 S
C413   H419    1.081   .     S
C413   C987    1.385   1_554 S
C414   H420    1.081   .     S
C414   C988    1.385   .     S
C421   I445    2.148   .     S
C421   C426    1.403   .     A
C421   C551    1.386   1_455 S
C422   C425    1.403   .     A
C422   I446    2.148   .     S
C422   C488    1.386   .     S
C423   I447    2.143   .     S
C423   C425    1.403   .     A
C423   C485    1.386   .     S
C424   C426    1.403   .     A
C424   I448    2.143   .     S
C424   C550    1.386   1_455 S
C427   N436    1.366   .     A
C427   H431    1.081   .     S
C428   N435    1.366   .     A
C428   H432    1.081   .     S
C428   C45     1.416   1_565 S
C429   H433    1.081   .     S
C429   N436    1.366   .     A
C430   H434    1.081   .     S
C430   N435    1.366   .     A
C430   C43     1.416   1_565 S
C437   H438    1.110   .     S
C437   H439    1.110   .     S
C437   H440    1.107   .     S
C441   H442    1.110   .     S
C441   H443    1.107   .     S
C441   H444    1.110   .     S
O449   C453    1.280   .     A
O449   Zn461   1.993   .     S
O450   C454    1.280   .     A
O450   Zn462   1.993   .     S
O451   C454    1.279   .     A
O451   Zn461   1.990   .     S
O452   Zn462   1.990   .     S
O452   C453    1.279   .     A
C453   C490    1.412   .     S
C454   C489    1.412   .     S
O455   C459    1.287   .     A
O455   Zn461   2.013   .     S
O456   C460    1.287   .     A
O456   Zn462   2.013   .     S
O457   C460    1.287   .     A
O457   Zn461   2.021   .     S
O458   Zn462   2.021   .     S
O458   C459    1.287   .     A
C459   C466    1.441   .     S
C460   C465    1.441   .     S
Zn461  N499    2.008   .     S
Zn462  N500    2.008   .     S
C463   C501    1.520   .     S
C463   C473    1.407   .     A
C463   C465    1.414   .     A
C464   C466    1.414   .     A
C464   C505    1.520   .     S
C464   C474    1.407   .     A
C465   C467    1.393   .     A
C466   C468    1.393   .     A
C467   H479    1.084   .     S
C467   C469    1.376   .     A
C468   H480    1.084   .     S
C468   C470    1.376   .     A
C469   C475    1.396   .     A
C469   C471    1.406   .     A
C470   C476    1.396   .     A
C470   C472    1.406   .     A
C471   C473    1.419   .     A
C471   C1048   1.399   .     S
C472   C474    1.419   .     A
C472   C1047   1.399   1_554 S
C473   C478    1.407   .     A
C474   C477    1.407   .     A
C475   H481    1.084   .     S
C475   C1053   1.385   .     S
C476   H482    1.084   .     S
C476   C1054   1.385   1_554 S
C477   H483    1.081   .     S
C477   C1051   1.385   1_554 S
C478   H484    1.081   .     S
C478   C1052   1.385   .     S
C485   I509    2.148   .     S
C485   C490    1.403   .     A
C486   C489    1.403   .     A
C486   I510    2.148   .     S
C486   C552    1.386   .     S
C487   I511    2.143   .     S
C487   C489    1.403   .     A
C487   C549    1.386   .     S
C488   C490    1.403   .     A
C488   I512    2.143   .     S
C491   N500    1.366   .     A
C491   H495    1.081   .     S
C492   N499    1.366   .     A
C492   H496    1.081   .     S
C492   C109    1.416   1_565 S
C493   H497    1.081   .     S
C493   N500    1.366   .     A
C494   H498    1.081   .     S
C494   N499    1.366   .     A
C494   C107    1.416   1_565 S
C501   H502    1.110   .     S
C501   H503    1.110   .     S
C501   H504    1.107   .     S
C505   H506    1.110   .     S
C505   H507    1.107   .     S
C505   H508    1.110   .     S
O513   C517    1.280   .     A
O513   Zn525   1.993   .     S
O514   C518    1.280   .     A
O514   Zn526   1.993   .     S
O515   C518    1.279   .     A
O515   Zn525   1.990   .     S
O516   Zn526   1.990   .     S
O516   C517    1.279   .     A
C517   C554    1.412   .     S
C518   C553    1.412   .     S
O519   C523    1.287   .     A
O519   Zn525   2.013   .     S
O520   C524    1.287   .     A
O520   Zn526   2.013   .     S
O521   C524    1.287   .     A
O521   Zn525   2.021   .     S
O522   Zn526   2.021   .     S
O522   C523    1.287   .     A
C523   C530    1.441   .     S
C524   C529    1.441   .     S
Zn525  N563    2.008   .     S
Zn526  N564    2.008   .     S
C527   C565    1.520   .     S
C527   C537    1.407   .     A
C527   C529    1.414   .     A
C528   C530    1.414   .     A
C528   C569    1.520   .     S
C528   C538    1.407   .     A
C529   C531    1.393   .     A
C530   C532    1.393   .     A
C531   H543    1.084   .     S
C531   C533    1.376   .     A
C532   H544    1.084   .     S
C532   C534    1.376   .     A
C533   C539    1.396   .     A
C533   C535    1.406   .     A
C534   C540    1.396   .     A
C534   C536    1.406   .     A
C535   C537    1.419   .     A
C535   C1112   1.399   .     S
C536   C538    1.419   .     A
C536   C1111   1.399   1_554 S
C537   C542    1.407   .     A
C538   C541    1.407   .     A
C539   H545    1.084   .     S
C539   C1117   1.385   .     S
C540   H546    1.084   .     S
C540   C1118   1.385   1_554 S
C541   H547    1.081   .     S
C541   C1115   1.385   1_554 S
C542   H548    1.081   .     S
C542   C1116   1.385   .     S
C549   I573    2.148   .     S
C549   C554    1.403   .     A
C550   C553    1.403   .     A
C550   I574    2.148   .     S
C550   C424    1.386   1_655 S
C551   I575    2.143   .     S
C551   C553    1.403   .     A
C551   C421    1.386   1_655 S
C552   C554    1.403   .     A
C552   I576    2.143   .     S
C555   N564    1.366   .     A
C555   H559    1.081   .     S
C556   N563    1.366   .     A
C556   H560    1.081   .     S
C556   C173    1.416   1_565 S
C557   H561    1.081   .     S
C557   N564    1.366   .     A
C558   H562    1.081   .     S
C558   N563    1.366   .     A
C558   C171    1.416   1_565 S
C565   H566    1.110   .     S
C565   H567    1.110   .     S
C565   H568    1.107   .     S
C569   H570    1.110   .     S
C569   H571    1.107   .     S
C569   H572    1.110   .     S
O577   C581    1.280   .     A
O577   Zn589   1.993   .     S
O578   C582    1.280   .     A
O578   Zn590   1.993   .     S
O579   C582    1.279   .     A
O579   Zn589   1.990   .     S
O580   Zn590   1.990   .     S
O580   C581    1.279   .     A
C581   C618    1.412   .     S
C582   C617    1.412   .     S
O583   C587    1.287   .     A
O583   Zn589   2.013   .     S
O584   C588    1.287   .     A
O584   Zn590   2.013   .     S
O585   C588    1.287   .     A
O585   Zn589   2.021   .     S
O586   Zn590   2.021   .     S
O586   C587    1.287   .     A
C587   C594    1.441   .     S
C588   C593    1.441   .     S
Zn589  N627    2.008   .     S
Zn590  N628    2.008   .     S
C591   C629    1.520   .     S
C591   C601    1.407   .     A
C591   C593    1.414   .     A
C592   C594    1.414   .     A
C592   C633    1.520   .     S
C592   C602    1.407   .     A
C593   C595    1.393   .     A
C594   C596    1.393   .     A
C595   H607    1.084   .     S
C595   C597    1.376   .     A
C596   H608    1.084   .     S
C596   C598    1.376   .     A
C597   C603    1.396   .     A
C597   C599    1.406   .     A
C598   C604    1.396   .     A
C598   C600    1.406   .     A
C599   C601    1.419   .     A
C599   C24     1.399   1_556 S
C600   C602    1.419   .     A
C601   C606    1.407   .     A
C602   C605    1.407   .     A
C603   H609    1.084   .     S
C603   C29     1.385   1_556 S
C604   H610    1.084   .     S
C605   H611    1.081   .     S
C606   H612    1.081   .     S
C606   C28     1.385   1_556 S
C613   I637    2.148   .     S
C613   C618    1.403   .     A
C613   C743    1.386   1_455 S
C614   C617    1.403   .     A
C614   I638    2.148   .     S
C614   C680    1.386   .     S
C615   I639    2.143   .     S
C615   C617    1.403   .     A
C615   C677    1.386   .     S
C616   C618    1.403   .     A
C616   I640    2.143   .     S
C616   C742    1.386   1_455 S
C619   N628    1.366   .     A
C619   H623    1.081   .     S
C619   C1006   1.416   1_545 S
C620   N627    1.366   .     A
C620   H624    1.081   .     S
C620   C813    1.416   .     S
C621   H625    1.081   .     S
C621   N628    1.366   .     A
C621   C1004   1.416   1_545 S
C622   H626    1.081   .     S
C622   N627    1.366   .     A
C622   C811    1.416   .     S
C629   H630    1.110   .     S
C629   H631    1.110   .     S
C629   H632    1.107   .     S
C633   H634    1.110   .     S
C633   H635    1.107   .     S
C633   H636    1.110   .     S
O641   C645    1.280   .     A
O641   Zn653   1.993   .     S
O642   C646    1.280   .     A
O642   Zn654   1.993   .     S
O643   C646    1.279   .     A
O643   Zn653   1.990   .     S
O644   Zn654   1.990   .     S
O644   C645    1.279   .     A
C645   C682    1.412   .     S
C646   C681    1.412   .     S
O647   C651    1.287   .     A
O647   Zn653   2.013   .     S
O648   C652    1.287   .     A
O648   Zn654   2.013   .     S
O649   C652    1.287   .     A
O649   Zn653   2.021   .     S
O650   Zn654   2.021   .     S
O650   C651    1.287   .     A
C651   C658    1.441   .     S
C652   C657    1.441   .     S
Zn653  N691    2.008   .     S
Zn654  N692    2.008   .     S
C655   C693    1.520   .     S
C655   C665    1.407   .     A
C655   C657    1.414   .     A
C656   C658    1.414   .     A
C656   C697    1.520   .     S
C656   C666    1.407   .     A
C657   C659    1.393   .     A
C658   C660    1.393   .     A
C659   H671    1.084   .     S
C659   C661    1.376   .     A
C660   H672    1.084   .     S
C660   C662    1.376   .     A
C661   C667    1.396   .     A
C661   C663    1.406   .     A
C662   C668    1.396   .     A
C662   C664    1.406   .     A
C663   C665    1.419   .     A
C663   C88     1.399   1_556 S
C664   C666    1.419   .     A
C665   C670    1.407   .     A
C666   C669    1.407   .     A
C667   H673    1.084   .     S
C667   C93     1.385   1_556 S
C668   H674    1.084   .     S
C669   H675    1.081   .     S
C670   H676    1.081   .     S
C670   C92     1.385   1_556 S
C677   I701    2.148   .     S
C677   C682    1.403   .     A
C678   C681    1.403   .     A
C678   I702    2.148   .     S
C678   C744    1.386   .     S
C679   I703    2.143   .     S
C679   C681    1.403   .     A
C679   C741    1.386   .     S
C680   C682    1.403   .     A
C680   I704    2.143   .     S
C683   N692    1.366   .     A
C683   H687    1.081   .     S
C683   C1070   1.416   1_545 S
C684   N691    1.366   .     A
C684   H688    1.081   .     S
C684   C877    1.416   .     S
C685   H689    1.081   .     S
C685   N692    1.366   .     A
C685   C1068   1.416   1_545 S
C686   H690    1.081   .     S
C686   N691    1.366   .     A
C686   C875    1.416   .     S
C693   H694    1.110   .     S
C693   H695    1.110   .     S
C693   H696    1.107   .     S
C697   H698    1.110   .     S
C697   H699    1.107   .     S
C697   H700    1.110   .     S
O705   C709    1.280   .     A
O705   Zn717   1.993   .     S
O706   C710    1.280   .     A
O706   Zn718   1.993   .     S
O707   C710    1.279   .     A
O707   Zn717   1.990   .     S
O708   Zn718   1.990   .     S
O708   C709    1.279   .     A
C709   C746    1.412   .     S
C710   C745    1.412   .     S
O711   C715    1.287   .     A
O711   Zn717   2.013   .     S
O712   C716    1.287   .     A
O712   Zn718   2.013   .     S
O713   C716    1.287   .     A
O713   Zn717   2.021   .     S
O714   Zn718   2.021   .     S
O714   C715    1.287   .     A
C715   C722    1.441   .     S
C716   C721    1.441   .     S
Zn717  N755    2.008   .     S
Zn718  N756    2.008   .     S
C719   C757    1.520   .     S
C719   C729    1.407   .     A
C719   C721    1.414   .     A
C720   C722    1.414   .     A
C720   C761    1.520   .     S
C720   C730    1.407   .     A
C721   C723    1.393   .     A
C722   C724    1.393   .     A
C723   H735    1.084   .     S
C723   C725    1.376   .     A
C724   H736    1.084   .     S
C724   C726    1.376   .     A
C725   C731    1.396   .     A
C725   C727    1.406   .     A
C726   C732    1.396   .     A
C726   C728    1.406   .     A
C727   C729    1.419   .     A
C727   C152    1.399   1_556 S
C728   C730    1.419   .     A
C729   C734    1.407   .     A
C730   C733    1.407   .     A
C731   H737    1.084   .     S
C731   C157    1.385   1_556 S
C732   H738    1.084   .     S
C733   H739    1.081   .     S
C734   H740    1.081   .     S
C734   C156    1.385   1_556 S
C741   I765    2.148   .     S
C741   C746    1.403   .     A
C742   C745    1.403   .     A
C742   I766    2.148   .     S
C742   C616    1.386   1_655 S
C743   I767    2.143   .     S
C743   C745    1.403   .     A
C743   C613    1.386   1_655 S
C744   C746    1.403   .     A
C744   I768    2.143   .     S
C747   N756    1.366   .     A
C747   H751    1.081   .     S
C747   C1134   1.416   1_545 S
C748   N755    1.366   .     A
C748   H752    1.081   .     S
C748   C941    1.416   .     S
C749   H753    1.081   .     S
C749   N756    1.366   .     A
C749   C1132   1.416   1_545 S
C750   H754    1.081   .     S
C750   N755    1.366   .     A
C750   C939    1.416   .     S
C757   H758    1.110   .     S
C757   H759    1.110   .     S
C757   H760    1.107   .     S
C761   H762    1.110   .     S
C761   H763    1.107   .     S
C761   H764    1.110   .     S
O769   C773    1.280   .     A
O769   Zn781   1.993   .     S
O770   C774    1.280   .     A
O770   Zn782   1.993   .     S
O771   C774    1.279   .     A
O771   Zn781   1.990   .     S
O772   Zn782   1.990   .     S
O772   C773    1.279   .     A
C773   C810    1.412   .     S
C774   C809    1.412   .     S
O775   C779    1.287   .     A
O775   Zn781   2.013   .     S
O776   C780    1.287   .     A
O776   Zn782   2.013   .     S
O777   C780    1.287   .     A
O777   Zn781   2.021   .     S
O778   Zn782   2.021   .     S
O778   C779    1.287   .     A
C779   C786    1.441   .     S
C780   C785    1.441   .     S
Zn781  N819    2.008   .     S
Zn782  N820    2.008   .     S
C783   C821    1.520   .     S
C783   C793    1.407   .     A
C783   C785    1.414   .     A
C784   C786    1.414   .     A
C784   C825    1.520   .     S
C784   C794    1.407   .     A
C785   C787    1.393   .     A
C786   C788    1.393   .     A
C787   H799    1.084   .     S
C787   C789    1.376   .     A
C788   H800    1.084   .     S
C788   C790    1.376   .     A
C789   C795    1.396   .     A
C789   C791    1.406   .     A
C790   C796    1.396   .     A
C790   C792    1.406   .     A
C791   C793    1.419   .     A
C791   C216    1.399   1_556 S
C792   C794    1.419   .     A
C793   C798    1.407   .     A
C794   C797    1.407   .     A
C795   H801    1.084   .     S
C795   C221    1.385   1_556 S
C796   H802    1.084   .     S
C797   H803    1.081   .     S
C798   H804    1.081   .     S
C798   C220    1.385   1_556 S
C805   I829    2.148   .     S
C805   C810    1.403   .     A
C805   C935    1.386   1_455 S
C806   C809    1.403   .     A
C806   I830    2.148   .     S
C806   C872    1.386   .     S
C807   I831    2.143   .     S
C807   C809    1.403   .     A
C807   C869    1.386   .     S
C808   C810    1.403   .     A
C808   I832    2.143   .     S
C808   C934    1.386   1_455 S
C811   N820    1.366   .     A
C811   H815    1.081   .     S
C812   N819    1.366   .     A
C812   H816    1.081   .     S
C812   C1005   1.416   .     S
C813   H817    1.081   .     S
C813   N820    1.366   .     A
C814   H818    1.081   .     S
C814   N819    1.366   .     A
C814   C1003   1.416   .     S
C821   H822    1.110   .     S
C821   H823    1.110   .     S
C821   H824    1.107   .     S
C825   H826    1.110   .     S
C825   H827    1.107   .     S
C825   H828    1.110   .     S
O833   C837    1.280   .     A
O833   Zn845   1.993   .     S
O834   C838    1.280   .     A
O834   Zn846   1.993   .     S
O835   C838    1.279   .     A
O835   Zn845   1.990   .     S
O836   Zn846   1.990   .     S
O836   C837    1.279   .     A
C837   C874    1.412   .     S
C838   C873    1.412   .     S
O839   C843    1.287   .     A
O839   Zn845   2.013   .     S
O840   C844    1.287   .     A
O840   Zn846   2.013   .     S
O841   C844    1.287   .     A
O841   Zn845   2.021   .     S
O842   Zn846   2.021   .     S
O842   C843    1.287   .     A
C843   C850    1.441   .     S
C844   C849    1.441   .     S
Zn845  N883    2.008   .     S
Zn846  N884    2.008   .     S
C847   C885    1.520   .     S
C847   C857    1.407   .     A
C847   C849    1.414   .     A
C848   C850    1.414   .     A
C848   C889    1.520   .     S
C848   C858    1.407   .     A
C849   C851    1.393   .     A
C850   C852    1.393   .     A
C851   H863    1.084   .     S
C851   C853    1.376   .     A
C852   H864    1.084   .     S
C852   C854    1.376   .     A
C853   C859    1.396   .     A
C853   C855    1.406   .     A
C854   C860    1.396   .     A
C854   C856    1.406   .     A
C855   C857    1.419   .     A
C855   C280    1.399   1_556 S
C856   C858    1.419   .     A
C857   C862    1.407   .     A
C858   C861    1.407   .     A
C859   H865    1.084   .     S
C859   C285    1.385   1_556 S
C860   H866    1.084   .     S
C861   H867    1.081   .     S
C862   H868    1.081   .     S
C862   C284    1.385   1_556 S
C869   I893    2.148   .     S
C869   C874    1.403   .     A
C870   C873    1.403   .     A
C870   I894    2.148   .     S
C870   C936    1.386   .     S
C871   I895    2.143   .     S
C871   C873    1.403   .     A
C871   C933    1.386   .     S
C872   C874    1.403   .     A
C872   I896    2.143   .     S
C875   N884    1.366   .     A
C875   H879    1.081   .     S
C876   N883    1.366   .     A
C876   H880    1.081   .     S
C876   C1069   1.416   .     S
C877   H881    1.081   .     S
C877   N884    1.366   .     A
C878   H882    1.081   .     S
C878   N883    1.366   .     A
C878   C1067   1.416   .     S
C885   H886    1.110   .     S
C885   H887    1.110   .     S
C885   H888    1.107   .     S
C889   H890    1.110   .     S
C889   H891    1.107   .     S
C889   H892    1.110   .     S
O897   C901    1.280   .     A
O897   Zn909   1.993   .     S
O898   C902    1.280   .     A
O898   Zn910   1.993   .     S
O899   C902    1.279   .     A
O899   Zn909   1.990   .     S
O900   Zn910   1.990   .     S
O900   C901    1.279   .     A
C901   C938    1.412   .     S
C902   C937    1.412   .     S
O903   C907    1.287   .     A
O903   Zn909   2.013   .     S
O904   C908    1.287   .     A
O904   Zn910   2.013   .     S
O905   C908    1.287   .     A
O905   Zn909   2.021   .     S
O906   Zn910   2.021   .     S
O906   C907    1.287   .     A
C907   C914    1.441   .     S
C908   C913    1.441   .     S
Zn909  N947    2.008   .     S
Zn910  N948    2.008   .     S
C911   C949    1.520   .     S
C911   C921    1.407   .     A
C911   C913    1.414   .     A
C912   C914    1.414   .     A
C912   C953    1.520   .     S
C912   C922    1.407   .     A
C913   C915    1.393   .     A
C914   C916    1.393   .     A
C915   H927    1.084   .     S
C915   C917    1.376   .     A
C916   H928    1.084   .     S
C916   C918    1.376   .     A
C917   C923    1.396   .     A
C917   C919    1.406   .     A
C918   C924    1.396   .     A
C918   C920    1.406   .     A
C919   C921    1.419   .     A
C919   C344    1.399   1_556 S
C920   C922    1.419   .     A
C921   C926    1.407   .     A
C922   C925    1.407   .     A
C923   H929    1.084   .     S
C923   C349    1.385   1_556 S
C924   H930    1.084   .     S
C925   H931    1.081   .     S
C926   H932    1.081   .     S
C926   C348    1.385   1_556 S
C933   I957    2.148   .     S
C933   C938    1.403   .     A
C934   C937    1.403   .     A
C934   I958    2.148   .     S
C934   C808    1.386   1_655 S
C935   I959    2.143   .     S
C935   C937    1.403   .     A
C935   C805    1.386   1_655 S
C936   C938    1.403   .     A
C936   I960    2.143   .     S
C939   N948    1.366   .     A
C939   H943    1.081   .     S
C940   N947    1.366   .     A
C940   H944    1.081   .     S
C940   C1133   1.416   .     S
C941   H945    1.081   .     S
C941   N948    1.366   .     A
C942   H946    1.081   .     S
C942   N947    1.366   .     A
C942   C1131   1.416   .     S
C949   H950    1.110   .     S
C949   H951    1.110   .     S
C949   H952    1.107   .     S
C953   H954    1.110   .     S
C953   H955    1.107   .     S
C953   H956    1.110   .     S
O961   C965    1.280   .     A
O961   Zn973   1.993   .     S
O962   C966    1.280   .     A
O962   Zn974   1.993   .     S
O963   C966    1.279   .     A
O963   Zn973   1.990   .     S
O964   Zn974   1.990   .     S
O964   C965    1.279   .     A
C965   C1002   1.412   .     S
C966   C1001   1.412   .     S
O967   C971    1.287   .     A
O967   Zn973   2.013   .     S
O968   C972    1.287   .     A
O968   Zn974   2.013   .     S
O969   C972    1.287   .     A
O969   Zn973   2.021   .     S
O970   Zn974   2.021   .     S
O970   C971    1.287   .     A
C971   C978    1.441   .     S
C972   C977    1.441   .     S
Zn973  N1011   2.008   .     S
Zn974  N1012   2.008   .     S
C975   C1013   1.520   .     S
C975   C985    1.407   .     A
C975   C977    1.414   .     A
C976   C978    1.414   .     A
C976   C1017   1.520   .     S
C976   C986    1.407   .     A
C977   C979    1.393   .     A
C978   C980    1.393   .     A
C979   H991    1.084   .     S
C979   C981    1.376   .     A
C980   H992    1.084   .     S
C980   C982    1.376   .     A
C981   C987    1.396   .     A
C981   C983    1.406   .     A
C982   C988    1.396   .     A
C982   C984    1.406   .     A
C983   C985    1.419   .     A
C983   C408    1.399   1_556 S
C984   C986    1.419   .     A
C985   C990    1.407   .     A
C986   C989    1.407   .     A
C987   H993    1.084   .     S
C987   C413    1.385   1_556 S
C988   H994    1.084   .     S
C989   H995    1.081   .     S
C990   H996    1.081   .     S
C990   C412    1.385   1_556 S
C997   I1021   2.148   .     S
C997   C1002   1.403   .     A
C997   C1127   1.386   1_455 S
C998   C1001   1.403   .     A
C998   I1022   2.148   .     S
C998   C1064   1.386   .     S
C999   I1023   2.143   .     S
C999   C1001   1.403   .     A
C999   C1061   1.386   .     S
C1000  C1002   1.403   .     A
C1000  I1024   2.143   .     S
C1000  C1126   1.386   1_455 S
C1003  N1012   1.366   .     A
C1003  H1007   1.081   .     S
C1004  N1011   1.366   .     A
C1004  H1008   1.081   .     S
C1004  C621    1.416   1_565 S
C1005  H1009   1.081   .     S
C1005  N1012   1.366   .     A
C1006  H1010   1.081   .     S
C1006  N1011   1.366   .     A
C1006  C619    1.416   1_565 S
C1013  H1014   1.110   .     S
C1013  H1015   1.110   .     S
C1013  H1016   1.107   .     S
C1017  H1018   1.110   .     S
C1017  H1019   1.107   .     S
C1017  H1020   1.110   .     S
O1025  C1029   1.280   .     A
O1025  Zn1037  1.993   .     S
O1026  C1030   1.280   .     A
O1026  Zn1038  1.993   .     S
O1027  C1030   1.279   .     A
O1027  Zn1037  1.990   .     S
O1028  Zn1038  1.990   .     S
O1028  C1029   1.279   .     A
C1029  C1066   1.412   .     S
C1030  C1065   1.412   .     S
O1031  C1035   1.287   .     A
O1031  Zn1037  2.013   .     S
O1032  C1036   1.287   .     A
O1032  Zn1038  2.013   .     S
O1033  C1036   1.287   .     A
O1033  Zn1037  2.021   .     S
O1034  Zn1038  2.021   .     S
O1034  C1035   1.287   .     A
C1035  C1042   1.441   .     S
C1036  C1041   1.441   .     S
Zn1037 N1075   2.008   .     S
Zn1038 N1076   2.008   .     S
C1039  C1077   1.520   .     S
C1039  C1049   1.407   .     A
C1039  C1041   1.414   .     A
C1040  C1042   1.414   .     A
C1040  C1081   1.520   .     S
C1040  C1050   1.407   .     A
C1041  C1043   1.393   .     A
C1042  C1044   1.393   .     A
C1043  H1055   1.084   .     S
C1043  C1045   1.376   .     A
C1044  H1056   1.084   .     S
C1044  C1046   1.376   .     A
C1045  C1051   1.396   .     A
C1045  C1047   1.406   .     A
C1046  C1052   1.396   .     A
C1046  C1048   1.406   .     A
C1047  C1049   1.419   .     A
C1047  C472    1.399   1_556 S
C1048  C1050   1.419   .     A
C1049  C1054   1.407   .     A
C1050  C1053   1.407   .     A
C1051  H1057   1.084   .     S
C1051  C477    1.385   1_556 S
C1052  H1058   1.084   .     S
C1053  H1059   1.081   .     S
C1054  H1060   1.081   .     S
C1054  C476    1.385   1_556 S
C1061  I1085   2.148   .     S
C1061  C1066   1.403   .     A
C1062  C1065   1.403   .     A
C1062  I1086   2.148   .     S
C1062  C1128   1.386   .     S
C1063  I1087   2.143   .     S
C1063  C1065   1.403   .     A
C1063  C1125   1.386   .     S
C1064  C1066   1.403   .     A
C1064  I1088   2.143   .     S
C1067  N1076   1.366   .     A
C1067  H1071   1.081   .     S
C1068  N1075   1.366   .     A
C1068  H1072   1.081   .     S
C1068  C685    1.416   1_565 S
C1069  H1073   1.081   .     S
C1069  N1076   1.366   .     A
C1070  H1074   1.081   .     S
C1070  N1075   1.366   .     A
C1070  C683    1.416   1_565 S
C1077  H1078   1.110   .     S
C1077  H1079   1.110   .     S
C1077  H1080   1.107   .     S
C1081  H1082   1.110   .     S
C1081  H1083   1.107   .     S
C1081  H1084   1.110   .     S
O1089  C1093   1.280   .     A
O1089  Zn1101  1.993   .     S
O1090  C1094   1.280   .     A
O1090  Zn1102  1.993   .     S
O1091  C1094   1.279   .     A
O1091  Zn1101  1.990   .     S
O1092  Zn1102  1.990   .     S
O1092  C1093   1.279   .     A
C1093  C1130   1.412   .     S
C1094  C1129   1.412   .     S
O1095  C1099   1.287   .     A
O1095  Zn1101  2.013   .     S
O1096  C1100   1.287   .     A
O1096  Zn1102  2.013   .     S
O1097  C1100   1.287   .     A
O1097  Zn1101  2.021   .     S
O1098  Zn1102  2.021   .     S
O1098  C1099   1.287   .     A
C1099  C1106   1.441   .     S
C1100  C1105   1.441   .     S
Zn1101 N1139   2.008   .     S
Zn1102 N1140   2.008   .     S
C1103  C1141   1.520   .     S
C1103  C1113   1.407   .     A
C1103  C1105   1.414   .     A
C1104  C1106   1.414   .     A
C1104  C1145   1.520   .     S
C1104  C1114   1.407   .     A
C1105  C1107   1.393   .     A
C1106  C1108   1.393   .     A
C1107  H1119   1.084   .     S
C1107  C1109   1.376   .     A
C1108  H1120   1.084   .     S
C1108  C1110   1.376   .     A
C1109  C1115   1.396   .     A
C1109  C1111   1.406   .     A
C1110  C1116   1.396   .     A
C1110  C1112   1.406   .     A
C1111  C1113   1.419   .     A
C1111  C536    1.399   1_556 S
C1112  C1114   1.419   .     A
C1113  C1118   1.407   .     A
C1114  C1117   1.407   .     A
C1115  H1121   1.084   .     S
C1115  C541    1.385   1_556 S
C1116  H1122   1.084   .     S
C1117  H1123   1.081   .     S
C1118  H1124   1.081   .     S
C1118  C540    1.385   1_556 S
C1125  I1149   2.148   .     S
C1125  C1130   1.403   .     A
C1126  C1129   1.403   .     A
C1126  I1150   2.148   .     S
C1126  C1000   1.386   1_655 S
C1127  I1151   2.143   .     S
C1127  C1129   1.403   .     A
C1127  C997    1.386   1_655 S
C1128  C1130   1.403   .     A
C1128  I1152   2.143   .     S
C1131  N1140   1.366   .     A
C1131  H1135   1.081   .     S
C1132  N1139   1.366   .     A
C1132  H1136   1.081   .     S
C1132  C749    1.416   1_565 S
C1133  H1137   1.081   .     S
C1133  N1140   1.366   .     A
C1134  H1138   1.081   .     S
C1134  N1139   1.366   .     A
C1134  C747    1.416   1_565 S
C1141  H1142   1.110   .     S
C1141  H1143   1.110   .     S
C1141  H1144   1.107   .     S
C1145  H1146   1.110   .     S
C1145  H1147   1.107   .     S
C1145  H1148   1.110   .     S
