data_str_m3_o1_o17_pcu_sym.86
_audit_creation_date              2020-01-03
_audit_creation_method            'Materials Studio'
_symmetry_space_group_name_H-M    'P1'
_symmetry_Int_Tables_number       1
_symmetry_cell_setting            triclinic
loop_
_symmetry_equiv_pos_as_xyz
  x,y,z
_cell_length_a                    32.0795
_cell_length_b                    29.4471
_cell_length_c                    30.0206
_cell_angle_alpha                 90.3261
_cell_angle_beta                  90.3879
_cell_angle_gamma                 90.0872
loop_
_atom_site_label
_atom_site_type_symbol
_atom_site_fract_x
_atom_site_fract_y
_atom_site_fract_z
_atom_site_U_iso_or_equiv
_atom_site_adp_type
_atom_site_occupancy
C1     C     0.08661   0.16664   0.24995   0.00000  Uiso   1.00
C2     C     0.04249   0.16661   0.24990   0.00000  Uiso   1.00
C3     C     0.19554   0.02420   0.27432   0.00000  Uiso   1.00
C4     C     0.13779   0.30913   0.22568   0.00000  Uiso   1.00
C5     C     0.13779   0.02382   0.22568   0.00000  Uiso   1.00
C6     C     0.19554   0.30951   0.27432   0.00000  Uiso   1.00
C7     C     0.16791   0.16646   0.16340   0.00000  Uiso   1.00
C8     C     0.16543   0.16688   0.33660   0.00000  Uiso   1.00
C9     C     0.18452   0.13277   0.40668   0.00000  Uiso   1.00
C10    C     0.14882   0.20057   0.09332   0.00000  Uiso   1.00
C11    C     0.16364   0.16740   0.38445   0.00000  Uiso   1.00
C12    C     0.24672   0.16669   0.25005   0.00000  Uiso   1.00
C13    C     0.16970   0.16594   0.11555   0.00000  Uiso   1.00
C14    C     0.14264   0.20224   0.40776   0.00000  Uiso   1.00
C15    C     0.19070   0.13110   0.09224   0.00000  Uiso   1.00
C16    C     0.14382   0.20205   0.45449   0.00000  Uiso   1.00
C17    C     0.18952   0.13129   0.04551   0.00000  Uiso   1.00
C18    C     0.16579   0.16698   0.47673   0.00000  Uiso   1.00
C19    C     0.16756   0.16636   0.02327   0.00000  Uiso   1.00
C20    C     0.18598   0.13240   0.45253   0.00000  Uiso   1.00
C21    C     0.14737   0.20094   0.04746   0.00000  Uiso   1.00
C22    C     0.12350   0.23578   0.47958   0.00000  Uiso   1.00
C23    C     0.12548   0.23528   0.02565   0.00000  Uiso   1.00
C24    C     0.20985   0.09756   0.02041   0.00000  Uiso   1.00
C25    C     0.11912   0.23791   0.38333   0.00000  Uiso   1.00
C26    C     0.08090   0.22743   0.36260   0.00000  Uiso   1.00
C27    C     0.05965   0.26056   0.33821   0.00000  Uiso   1.00
C28    C     0.07651   0.30414   0.33414   0.00000  Uiso   1.00
C29    C     0.11452   0.31479   0.35474   0.00000  Uiso   1.00
C30    C     0.13582   0.28181   0.37928   0.00000  Uiso   1.00
C31    C     0.21421   0.09542   0.11667   0.00000  Uiso   1.00
C32    C     0.19749   0.05151   0.12070   0.00000  Uiso   1.00
C33    C     0.21878   0.01853   0.14524   0.00000  Uiso   1.00
C34    C     0.20787   0.09806   0.47435   0.00000  Uiso   1.00
C35    C     0.25679   0.02917   0.16585   0.00000  Uiso   1.00
C36    C     0.27366   0.07275   0.16180   0.00000  Uiso   1.00
C37    C     0.25242   0.10589   0.13741   0.00000  Uiso   1.00
C38    C     0.02138   0.12776   0.26383   0.00000  Uiso   1.00
C39    C     0.31195   0.20557   0.23617   0.00000  Uiso   1.00
C40    C     0.31202   0.12783   0.26398   0.00000  Uiso   1.00
C41    C     0.02132   0.20550   0.23602   0.00000  Uiso   1.00
C42    C     0.29084   0.16672   0.25010   0.00000  Uiso   1.00
H43    H     0.20066   0.10650   0.38806   0.00000  Uiso   1.00
H44    H     0.03767   0.23557   0.22490   0.00000  Uiso   1.00
H45    H     0.21856   0.04260   0.29380   0.00000  Uiso   1.00
H46    H     0.11477   0.29073   0.20620   0.00000  Uiso   1.00
H47    H     0.11480   0.04192   0.20617   0.00000  Uiso   1.00
H48    H     0.21853   0.29142   0.29383   0.00000  Uiso   1.00
H49    H     0.06782   0.19361   0.36509   0.00000  Uiso   1.00
H50    H     0.03018   0.25240   0.32234   0.00000  Uiso   1.00
H51    H     0.06014   0.32964   0.31500   0.00000  Uiso   1.00
H52    H     0.12758   0.01518   0.35147   0.00000  Uiso   1.00
H53    H     0.16547   0.29025   0.39471   0.00000  Uiso   1.00
H54    H     0.13268   0.22684   0.11194   0.00000  Uiso   1.00
H55    H     0.16784   0.04309   0.10526   0.00000  Uiso   1.00
H56    H     0.20571   0.31814   0.14850   0.00000  Uiso   1.00
H57    H     0.27314   0.00366   0.18499   0.00000  Uiso   1.00
H58    H     0.30313   0.08089   0.17769   0.00000  Uiso   1.00
H59    H     0.26550   0.13970   0.13493   0.00000  Uiso   1.00
H60    H     0.10594   0.26280   0.46402   0.00000  Uiso   1.00
H61    H     0.22741   0.07054   0.03598   0.00000  Uiso   1.00
H62    H     0.10972   0.26175   0.04428   0.00000  Uiso   1.00
H63    H     0.22363   0.07160   0.45572   0.00000  Uiso   1.00
H64    H     0.03778   0.09768   0.27493   0.00000  Uiso   1.00
H65    H     0.29555   0.23565   0.22507   0.00000  Uiso   1.00
H66    H     0.29567   0.09776   0.27509   0.00000  Uiso   1.00
N67    N     0.16667   0.28573   0.25000   0.00000  Uiso   1.00
N68    N     0.16667   0.04760   0.25000   0.00000  Uiso   1.00
O69    O     0.10559   0.20487   0.24999   0.00000  Uiso   1.00
O70    O     0.22774   0.12846   0.25000   0.00000  Uiso   1.00
O71    O     0.22774   0.20487   0.25000   0.00000  Uiso   1.00
O72    O     0.10559   0.12846   0.24999   0.00000  Uiso   1.00
O73    O     0.16666   0.20489   0.18392   0.00000  Uiso   1.00
O74    O     0.16667   0.12844   0.31607   0.00000  Uiso   1.00
O75    O     0.16667   0.20489   0.31607   0.00000  Uiso   1.00
O76    O     0.16666   0.12844   0.18392   0.00000  Uiso   1.00
Zn77   Zn    0.16667   0.21771   0.25000   0.00000  Uiso   1.00
Zn78   Zn    0.16667   0.11563   0.25000   0.00000  Uiso   1.00
C79    C     0.41995   0.16664   0.24995   0.00000  Uiso   1.00
C80    C     0.37582   0.16661   0.24990   0.00000  Uiso   1.00
C81    C     0.52888   0.02420   0.27432   0.00000  Uiso   1.00
C82    C     0.47112   0.30913   0.22568   0.00000  Uiso   1.00
C83    C     0.47112   0.02382   0.22568   0.00000  Uiso   1.00
C84    C     0.52888   0.30951   0.27432   0.00000  Uiso   1.00
C85    C     0.50124   0.16646   0.16340   0.00000  Uiso   1.00
C86    C     0.49876   0.16688   0.33660   0.00000  Uiso   1.00
C87    C     0.51785   0.13277   0.40668   0.00000  Uiso   1.00
C88    C     0.48216   0.20057   0.09332   0.00000  Uiso   1.00
C89    C     0.49697   0.16740   0.38445   0.00000  Uiso   1.00
C90    C     0.58005   0.16669   0.25005   0.00000  Uiso   1.00
C91    C     0.50303   0.16594   0.11555   0.00000  Uiso   1.00
C92    C     0.47597   0.20224   0.40776   0.00000  Uiso   1.00
C93    C     0.52403   0.13110   0.09224   0.00000  Uiso   1.00
C94    C     0.47716   0.20205   0.45449   0.00000  Uiso   1.00
C95    C     0.52286   0.13129   0.04551   0.00000  Uiso   1.00
C96    C     0.49913   0.16698   0.47673   0.00000  Uiso   1.00
C97    C     0.50089   0.16636   0.02327   0.00000  Uiso   1.00
C98    C     0.51931   0.13240   0.45253   0.00000  Uiso   1.00
C99    C     0.48070   0.20094   0.04746   0.00000  Uiso   1.00
C100   C     0.45683   0.23578   0.47958   0.00000  Uiso   1.00
C101   C     0.45881   0.23528   0.02565   0.00000  Uiso   1.00
C102   C     0.54318   0.09756   0.02041   0.00000  Uiso   1.00
C103   C     0.45245   0.23791   0.38333   0.00000  Uiso   1.00
C104   C     0.41424   0.22743   0.36260   0.00000  Uiso   1.00
C105   C     0.39298   0.26056   0.33821   0.00000  Uiso   1.00
C106   C     0.40984   0.30414   0.33414   0.00000  Uiso   1.00
C107   C     0.44785   0.31479   0.35474   0.00000  Uiso   1.00
C108   C     0.46916   0.28181   0.37928   0.00000  Uiso   1.00
C109   C     0.54754   0.09542   0.11667   0.00000  Uiso   1.00
C110   C     0.53082   0.05151   0.12070   0.00000  Uiso   1.00
C111   C     0.55212   0.01853   0.14524   0.00000  Uiso   1.00
C112   C     0.54120   0.09806   0.47435   0.00000  Uiso   1.00
C113   C     0.59012   0.02917   0.16585   0.00000  Uiso   1.00
C114   C     0.60699   0.07275   0.16180   0.00000  Uiso   1.00
C115   C     0.58575   0.10589   0.13741   0.00000  Uiso   1.00
C116   C     0.35472   0.12776   0.26383   0.00000  Uiso   1.00
C117   C     0.64528   0.20557   0.23617   0.00000  Uiso   1.00
C118   C     0.64535   0.12783   0.26398   0.00000  Uiso   1.00
C119   C     0.35465   0.20550   0.23602   0.00000  Uiso   1.00
C120   C     0.62418   0.16672   0.25010   0.00000  Uiso   1.00
H121   H     0.53400   0.10650   0.38806   0.00000  Uiso   1.00
H122   H     0.37100   0.23557   0.22490   0.00000  Uiso   1.00
H123   H     0.55190   0.04260   0.29380   0.00000  Uiso   1.00
H124   H     0.44810   0.29073   0.20620   0.00000  Uiso   1.00
H125   H     0.44813   0.04192   0.20617   0.00000  Uiso   1.00
H126   H     0.55187   0.29142   0.29383   0.00000  Uiso   1.00
H127   H     0.40116   0.19361   0.36509   0.00000  Uiso   1.00
H128   H     0.36351   0.25240   0.32234   0.00000  Uiso   1.00
H129   H     0.39348   0.32964   0.31500   0.00000  Uiso   1.00
H130   H     0.46092   0.01518   0.35147   0.00000  Uiso   1.00
H131   H     0.49881   0.29025   0.39471   0.00000  Uiso   1.00
H132   H     0.46602   0.22684   0.11194   0.00000  Uiso   1.00
H133   H     0.50118   0.04309   0.10526   0.00000  Uiso   1.00
H134   H     0.53904   0.31814   0.14850   0.00000  Uiso   1.00
H135   H     0.60648   0.00366   0.18499   0.00000  Uiso   1.00
H136   H     0.63646   0.08089   0.17769   0.00000  Uiso   1.00
H137   H     0.59884   0.13970   0.13493   0.00000  Uiso   1.00
H138   H     0.43927   0.26280   0.46402   0.00000  Uiso   1.00
H139   H     0.56074   0.07054   0.03598   0.00000  Uiso   1.00
H140   H     0.44305   0.26175   0.04428   0.00000  Uiso   1.00
H141   H     0.55696   0.07160   0.45572   0.00000  Uiso   1.00
H142   H     0.37111   0.09768   0.27493   0.00000  Uiso   1.00
H143   H     0.62889   0.23565   0.22507   0.00000  Uiso   1.00
H144   H     0.62900   0.09776   0.27509   0.00000  Uiso   1.00
N145   N     0.50000   0.28573   0.25000   0.00000  Uiso   1.00
N146   N     0.50000   0.04760   0.25000   0.00000  Uiso   1.00
O147   O     0.43892   0.20487   0.24999   0.00000  Uiso   1.00
O148   O     0.56108   0.12846   0.25000   0.00000  Uiso   1.00
O149   O     0.56108   0.20487   0.25000   0.00000  Uiso   1.00
O150   O     0.43892   0.12846   0.24999   0.00000  Uiso   1.00
O151   O     0.49999   0.20489   0.18392   0.00000  Uiso   1.00
O152   O     0.50001   0.12844   0.31607   0.00000  Uiso   1.00
O153   O     0.50001   0.20489   0.31607   0.00000  Uiso   1.00
O154   O     0.49999   0.12844   0.18392   0.00000  Uiso   1.00
Zn155  Zn    0.50000   0.21771   0.25000   0.00000  Uiso   1.00
Zn156  Zn    0.50000   0.11563   0.25000   0.00000  Uiso   1.00
C157   C     0.75328   0.16664   0.24995   0.00000  Uiso   1.00
C158   C     0.70916   0.16661   0.24990   0.00000  Uiso   1.00
C159   C     0.86221   0.02420   0.27432   0.00000  Uiso   1.00
C160   C     0.80446   0.30913   0.22568   0.00000  Uiso   1.00
C161   C     0.80446   0.02382   0.22568   0.00000  Uiso   1.00
C162   C     0.86221   0.30951   0.27432   0.00000  Uiso   1.00
C163   C     0.83457   0.16646   0.16340   0.00000  Uiso   1.00
C164   C     0.83210   0.16688   0.33660   0.00000  Uiso   1.00
C165   C     0.85119   0.13277   0.40668   0.00000  Uiso   1.00
C166   C     0.81549   0.20057   0.09332   0.00000  Uiso   1.00
C167   C     0.83031   0.16740   0.38445   0.00000  Uiso   1.00
C168   C     0.91339   0.16669   0.25005   0.00000  Uiso   1.00
C169   C     0.83636   0.16594   0.11555   0.00000  Uiso   1.00
C170   C     0.80931   0.20224   0.40776   0.00000  Uiso   1.00
C171   C     0.85737   0.13110   0.09224   0.00000  Uiso   1.00
C172   C     0.81049   0.20205   0.45449   0.00000  Uiso   1.00
C173   C     0.85619   0.13129   0.04551   0.00000  Uiso   1.00
C174   C     0.83246   0.16698   0.47673   0.00000  Uiso   1.00
C175   C     0.83422   0.16636   0.02327   0.00000  Uiso   1.00
C176   C     0.85265   0.13240   0.45253   0.00000  Uiso   1.00
C177   C     0.81403   0.20094   0.04746   0.00000  Uiso   1.00
C178   C     0.79016   0.23578   0.47958   0.00000  Uiso   1.00
C179   C     0.79215   0.23528   0.02565   0.00000  Uiso   1.00
C180   C     0.87652   0.09756   0.02041   0.00000  Uiso   1.00
C181   C     0.78578   0.23791   0.38333   0.00000  Uiso   1.00
C182   C     0.74757   0.22743   0.36260   0.00000  Uiso   1.00
C183   C     0.72631   0.26056   0.33821   0.00000  Uiso   1.00
C184   C     0.74317   0.30414   0.33414   0.00000  Uiso   1.00
C185   C     0.78118   0.31479   0.35474   0.00000  Uiso   1.00
C186   C     0.80249   0.28181   0.37928   0.00000  Uiso   1.00
C187   C     0.88088   0.09542   0.11667   0.00000  Uiso   1.00
C188   C     0.86416   0.05151   0.12070   0.00000  Uiso   1.00
C189   C     0.88545   0.01853   0.14524   0.00000  Uiso   1.00
C190   C     0.87454   0.09806   0.47435   0.00000  Uiso   1.00
C191   C     0.92346   0.02917   0.16585   0.00000  Uiso   1.00
C192   C     0.94033   0.07275   0.16180   0.00000  Uiso   1.00
C193   C     0.91908   0.10589   0.13741   0.00000  Uiso   1.00
C194   C     0.68805   0.12776   0.26383   0.00000  Uiso   1.00
C195   C     0.97862   0.20557   0.23617   0.00000  Uiso   1.00
C196   C     0.97868   0.12783   0.26398   0.00000  Uiso   1.00
C197   C     0.68798   0.20550   0.23602   0.00000  Uiso   1.00
C198   C     0.95751   0.16672   0.25010   0.00000  Uiso   1.00
H199   H     0.86733   0.10650   0.38806   0.00000  Uiso   1.00
H200   H     0.70433   0.23557   0.22490   0.00000  Uiso   1.00
H201   H     0.88523   0.04260   0.29380   0.00000  Uiso   1.00
H202   H     0.78144   0.29073   0.20620   0.00000  Uiso   1.00
H203   H     0.78147   0.04192   0.20617   0.00000  Uiso   1.00
H204   H     0.88520   0.29142   0.29383   0.00000  Uiso   1.00
H205   H     0.73449   0.19361   0.36509   0.00000  Uiso   1.00
H206   H     0.69684   0.25240   0.32234   0.00000  Uiso   1.00
H207   H     0.72681   0.32964   0.31500   0.00000  Uiso   1.00
H208   H     0.79425   0.01518   0.35147   0.00000  Uiso   1.00
H209   H     0.83214   0.29025   0.39471   0.00000  Uiso   1.00
H210   H     0.79935   0.22684   0.11194   0.00000  Uiso   1.00
H211   H     0.83451   0.04309   0.10526   0.00000  Uiso   1.00
H212   H     0.87238   0.31814   0.14850   0.00000  Uiso   1.00
H213   H     0.93981   0.00366   0.18499   0.00000  Uiso   1.00
H214   H     0.96979   0.08089   0.17769   0.00000  Uiso   1.00
H215   H     0.93217   0.13970   0.13493   0.00000  Uiso   1.00
H216   H     0.77261   0.26280   0.46402   0.00000  Uiso   1.00
H217   H     0.89407   0.07054   0.03598   0.00000  Uiso   1.00
H218   H     0.77639   0.26175   0.04428   0.00000  Uiso   1.00
H219   H     0.89030   0.07160   0.45572   0.00000  Uiso   1.00
H220   H     0.70445   0.09768   0.27493   0.00000  Uiso   1.00
H221   H     0.96222   0.23565   0.22507   0.00000  Uiso   1.00
H222   H     0.96233   0.09776   0.27509   0.00000  Uiso   1.00
N223   N     0.83333   0.28573   0.25000   0.00000  Uiso   1.00
N224   N     0.83333   0.04760   0.25000   0.00000  Uiso   1.00
O225   O     0.77226   0.20487   0.24999   0.00000  Uiso   1.00
O226   O     0.89441   0.12846   0.25000   0.00000  Uiso   1.00
O227   O     0.89441   0.20487   0.25000   0.00000  Uiso   1.00
O228   O     0.77226   0.12846   0.24999   0.00000  Uiso   1.00
O229   O     0.83333   0.20489   0.18392   0.00000  Uiso   1.00
O230   O     0.83334   0.12844   0.31607   0.00000  Uiso   1.00
O231   O     0.83334   0.20489   0.31607   0.00000  Uiso   1.00
O232   O     0.83333   0.12844   0.18392   0.00000  Uiso   1.00
Zn233  Zn    0.83333   0.21771   0.25000   0.00000  Uiso   1.00
Zn234  Zn    0.83333   0.11563   0.25000   0.00000  Uiso   1.00
C235   C     0.08661   0.49998   0.24995   0.00000  Uiso   1.00
C236   C     0.04249   0.49995   0.24990   0.00000  Uiso   1.00
C237   C     0.19554   0.35753   0.27432   0.00000  Uiso   1.00
C238   C     0.13779   0.64247   0.22568   0.00000  Uiso   1.00
C239   C     0.13779   0.35715   0.22568   0.00000  Uiso   1.00
C240   C     0.19554   0.64285   0.27432   0.00000  Uiso   1.00
C241   C     0.16791   0.49979   0.16340   0.00000  Uiso   1.00
C242   C     0.16543   0.50021   0.33660   0.00000  Uiso   1.00
C243   C     0.18452   0.46611   0.40668   0.00000  Uiso   1.00
C244   C     0.14882   0.53390   0.09332   0.00000  Uiso   1.00
C245   C     0.16364   0.50073   0.38445   0.00000  Uiso   1.00
C246   C     0.24672   0.50002   0.25005   0.00000  Uiso   1.00
C247   C     0.16970   0.49927   0.11555   0.00000  Uiso   1.00
C248   C     0.14264   0.53557   0.40776   0.00000  Uiso   1.00
C249   C     0.19070   0.46443   0.09224   0.00000  Uiso   1.00
C250   C     0.14382   0.53538   0.45449   0.00000  Uiso   1.00
C251   C     0.18952   0.46462   0.04551   0.00000  Uiso   1.00
C252   C     0.16579   0.50031   0.47673   0.00000  Uiso   1.00
C253   C     0.16756   0.49970   0.02327   0.00000  Uiso   1.00
C254   C     0.18598   0.46573   0.45253   0.00000  Uiso   1.00
C255   C     0.14737   0.53428   0.04746   0.00000  Uiso   1.00
C256   C     0.12350   0.56912   0.47958   0.00000  Uiso   1.00
C257   C     0.12548   0.56862   0.02565   0.00000  Uiso   1.00
C258   C     0.20985   0.43089   0.02041   0.00000  Uiso   1.00
C259   C     0.11912   0.57124   0.38333   0.00000  Uiso   1.00
C260   C     0.08090   0.56076   0.36260   0.00000  Uiso   1.00
C261   C     0.05965   0.59389   0.33821   0.00000  Uiso   1.00
C262   C     0.07651   0.63747   0.33414   0.00000  Uiso   1.00
C263   C     0.11452   0.64812   0.35474   0.00000  Uiso   1.00
C264   C     0.13582   0.61515   0.37928   0.00000  Uiso   1.00
C265   C     0.21421   0.42875   0.11667   0.00000  Uiso   1.00
C266   C     0.19749   0.38485   0.12070   0.00000  Uiso   1.00
C267   C     0.21878   0.35187   0.14524   0.00000  Uiso   1.00
C268   C     0.20787   0.43139   0.47435   0.00000  Uiso   1.00
C269   C     0.25679   0.36250   0.16585   0.00000  Uiso   1.00
C270   C     0.27366   0.40608   0.16180   0.00000  Uiso   1.00
C271   C     0.25242   0.43922   0.13741   0.00000  Uiso   1.00
C272   C     0.02138   0.46109   0.26383   0.00000  Uiso   1.00
C273   C     0.31195   0.53891   0.23617   0.00000  Uiso   1.00
C274   C     0.31202   0.46117   0.26398   0.00000  Uiso   1.00
C275   C     0.02132   0.53883   0.23602   0.00000  Uiso   1.00
C276   C     0.29084   0.50005   0.25010   0.00000  Uiso   1.00
H277   H     0.20066   0.43983   0.38806   0.00000  Uiso   1.00
H278   H     0.03767   0.56890   0.22490   0.00000  Uiso   1.00
H279   H     0.21856   0.37593   0.29380   0.00000  Uiso   1.00
H280   H     0.11477   0.62407   0.20620   0.00000  Uiso   1.00
H281   H     0.11480   0.37525   0.20617   0.00000  Uiso   1.00
H282   H     0.21853   0.62475   0.29383   0.00000  Uiso   1.00
H283   H     0.06782   0.52694   0.36509   0.00000  Uiso   1.00
H284   H     0.03018   0.58573   0.32234   0.00000  Uiso   1.00
H285   H     0.06014   0.66297   0.31500   0.00000  Uiso   1.00
H286   H     0.12758   0.34851   0.35147   0.00000  Uiso   1.00
H287   H     0.16547   0.62358   0.39471   0.00000  Uiso   1.00
H288   H     0.13268   0.56017   0.11194   0.00000  Uiso   1.00
H289   H     0.16784   0.37643   0.10526   0.00000  Uiso   1.00
H290   H     0.20571   0.65148   0.14850   0.00000  Uiso   1.00
H291   H     0.27314   0.33699   0.18499   0.00000  Uiso   1.00
H292   H     0.30313   0.41423   0.17769   0.00000  Uiso   1.00
H293   H     0.26550   0.47303   0.13493   0.00000  Uiso   1.00
H294   H     0.10594   0.59613   0.46402   0.00000  Uiso   1.00
H295   H     0.22741   0.40388   0.03598   0.00000  Uiso   1.00
H296   H     0.10972   0.59508   0.04428   0.00000  Uiso   1.00
H297   H     0.22363   0.40493   0.45572   0.00000  Uiso   1.00
H298   H     0.03778   0.43101   0.27493   0.00000  Uiso   1.00
H299   H     0.29555   0.56899   0.22507   0.00000  Uiso   1.00
H300   H     0.29567   0.43110   0.27509   0.00000  Uiso   1.00
N301   N     0.16667   0.61907   0.25000   0.00000  Uiso   1.00
N302   N     0.16667   0.38093   0.25000   0.00000  Uiso   1.00
O303   O     0.10559   0.53821   0.24999   0.00000  Uiso   1.00
O304   O     0.22774   0.46179   0.25000   0.00000  Uiso   1.00
O305   O     0.22774   0.53821   0.25000   0.00000  Uiso   1.00
O306   O     0.10559   0.46179   0.24999   0.00000  Uiso   1.00
O307   O     0.16666   0.53823   0.18392   0.00000  Uiso   1.00
O308   O     0.16667   0.46177   0.31607   0.00000  Uiso   1.00
O309   O     0.16667   0.53823   0.31607   0.00000  Uiso   1.00
O310   O     0.16666   0.46177   0.18392   0.00000  Uiso   1.00
Zn311  Zn    0.16667   0.55104   0.25000   0.00000  Uiso   1.00
Zn312  Zn    0.16667   0.44896   0.25000   0.00000  Uiso   1.00
C313   C     0.41995   0.49998   0.24995   0.00000  Uiso   1.00
C314   C     0.37582   0.49995   0.24990   0.00000  Uiso   1.00
C315   C     0.52888   0.35753   0.27432   0.00000  Uiso   1.00
C316   C     0.47112   0.64247   0.22568   0.00000  Uiso   1.00
C317   C     0.47112   0.35715   0.22568   0.00000  Uiso   1.00
C318   C     0.52888   0.64285   0.27432   0.00000  Uiso   1.00
C319   C     0.50124   0.49979   0.16340   0.00000  Uiso   1.00
C320   C     0.49876   0.50021   0.33660   0.00000  Uiso   1.00
C321   C     0.51785   0.46611   0.40668   0.00000  Uiso   1.00
C322   C     0.48216   0.53390   0.09332   0.00000  Uiso   1.00
C323   C     0.49697   0.50073   0.38445   0.00000  Uiso   1.00
C324   C     0.58005   0.50002   0.25005   0.00000  Uiso   1.00
C325   C     0.50303   0.49927   0.11555   0.00000  Uiso   1.00
C326   C     0.47597   0.53557   0.40776   0.00000  Uiso   1.00
C327   C     0.52403   0.46443   0.09224   0.00000  Uiso   1.00
C328   C     0.47716   0.53538   0.45449   0.00000  Uiso   1.00
C329   C     0.52286   0.46462   0.04551   0.00000  Uiso   1.00
C330   C     0.49913   0.50031   0.47673   0.00000  Uiso   1.00
C331   C     0.50089   0.49970   0.02327   0.00000  Uiso   1.00
C332   C     0.51931   0.46573   0.45253   0.00000  Uiso   1.00
C333   C     0.48070   0.53428   0.04746   0.00000  Uiso   1.00
C334   C     0.45683   0.56912   0.47958   0.00000  Uiso   1.00
C335   C     0.45881   0.56862   0.02565   0.00000  Uiso   1.00
C336   C     0.54318   0.43089   0.02041   0.00000  Uiso   1.00
C337   C     0.45245   0.57124   0.38333   0.00000  Uiso   1.00
C338   C     0.41424   0.56076   0.36260   0.00000  Uiso   1.00
C339   C     0.39298   0.59389   0.33821   0.00000  Uiso   1.00
C340   C     0.40984   0.63747   0.33414   0.00000  Uiso   1.00
C341   C     0.44785   0.64812   0.35474   0.00000  Uiso   1.00
C342   C     0.46916   0.61515   0.37928   0.00000  Uiso   1.00
C343   C     0.54754   0.42875   0.11667   0.00000  Uiso   1.00
C344   C     0.53082   0.38485   0.12070   0.00000  Uiso   1.00
C345   C     0.55212   0.35187   0.14524   0.00000  Uiso   1.00
C346   C     0.54120   0.43139   0.47435   0.00000  Uiso   1.00
C347   C     0.59012   0.36250   0.16585   0.00000  Uiso   1.00
C348   C     0.60699   0.40608   0.16180   0.00000  Uiso   1.00
C349   C     0.58575   0.43922   0.13741   0.00000  Uiso   1.00
C350   C     0.35472   0.46109   0.26383   0.00000  Uiso   1.00
C351   C     0.64528   0.53891   0.23617   0.00000  Uiso   1.00
C352   C     0.64535   0.46117   0.26398   0.00000  Uiso   1.00
C353   C     0.35465   0.53883   0.23602   0.00000  Uiso   1.00
C354   C     0.62418   0.50005   0.25010   0.00000  Uiso   1.00
H355   H     0.53400   0.43983   0.38806   0.00000  Uiso   1.00
H356   H     0.37100   0.56890   0.22490   0.00000  Uiso   1.00
H357   H     0.55190   0.37593   0.29380   0.00000  Uiso   1.00
H358   H     0.44810   0.62407   0.20620   0.00000  Uiso   1.00
H359   H     0.44813   0.37525   0.20617   0.00000  Uiso   1.00
H360   H     0.55187   0.62475   0.29383   0.00000  Uiso   1.00
H361   H     0.40116   0.52694   0.36509   0.00000  Uiso   1.00
H362   H     0.36351   0.58573   0.32234   0.00000  Uiso   1.00
H363   H     0.39348   0.66297   0.31500   0.00000  Uiso   1.00
H364   H     0.46092   0.34851   0.35147   0.00000  Uiso   1.00
H365   H     0.49881   0.62358   0.39471   0.00000  Uiso   1.00
H366   H     0.46602   0.56017   0.11194   0.00000  Uiso   1.00
H367   H     0.50118   0.37643   0.10526   0.00000  Uiso   1.00
H368   H     0.53904   0.65148   0.14850   0.00000  Uiso   1.00
H369   H     0.60648   0.33699   0.18499   0.00000  Uiso   1.00
H370   H     0.63646   0.41423   0.17769   0.00000  Uiso   1.00
H371   H     0.59884   0.47303   0.13493   0.00000  Uiso   1.00
H372   H     0.43927   0.59613   0.46402   0.00000  Uiso   1.00
H373   H     0.56074   0.40388   0.03598   0.00000  Uiso   1.00
H374   H     0.44305   0.59508   0.04428   0.00000  Uiso   1.00
H375   H     0.55696   0.40493   0.45572   0.00000  Uiso   1.00
H376   H     0.37111   0.43101   0.27493   0.00000  Uiso   1.00
H377   H     0.62889   0.56899   0.22507   0.00000  Uiso   1.00
H378   H     0.62900   0.43110   0.27509   0.00000  Uiso   1.00
N379   N     0.50000   0.61907   0.25000   0.00000  Uiso   1.00
N380   N     0.50000   0.38093   0.25000   0.00000  Uiso   1.00
O381   O     0.43892   0.53821   0.24999   0.00000  Uiso   1.00
O382   O     0.56108   0.46179   0.25000   0.00000  Uiso   1.00
O383   O     0.56108   0.53821   0.25000   0.00000  Uiso   1.00
O384   O     0.43892   0.46179   0.24999   0.00000  Uiso   1.00
O385   O     0.49999   0.53823   0.18392   0.00000  Uiso   1.00
O386   O     0.50001   0.46177   0.31607   0.00000  Uiso   1.00
O387   O     0.50001   0.53823   0.31607   0.00000  Uiso   1.00
O388   O     0.49999   0.46177   0.18392   0.00000  Uiso   1.00
Zn389  Zn    0.50000   0.55104   0.25000   0.00000  Uiso   1.00
Zn390  Zn    0.50000   0.44896   0.25000   0.00000  Uiso   1.00
C391   C     0.75328   0.49998   0.24995   0.00000  Uiso   1.00
C392   C     0.70916   0.49995   0.24990   0.00000  Uiso   1.00
C393   C     0.86221   0.35753   0.27432   0.00000  Uiso   1.00
C394   C     0.80446   0.64247   0.22568   0.00000  Uiso   1.00
C395   C     0.80446   0.35715   0.22568   0.00000  Uiso   1.00
C396   C     0.86221   0.64285   0.27432   0.00000  Uiso   1.00
C397   C     0.83457   0.49979   0.16340   0.00000  Uiso   1.00
C398   C     0.83210   0.50021   0.33660   0.00000  Uiso   1.00
C399   C     0.85119   0.46611   0.40668   0.00000  Uiso   1.00
C400   C     0.81549   0.53390   0.09332   0.00000  Uiso   1.00
C401   C     0.83031   0.50073   0.38445   0.00000  Uiso   1.00
C402   C     0.91339   0.50002   0.25005   0.00000  Uiso   1.00
C403   C     0.83636   0.49927   0.11555   0.00000  Uiso   1.00
C404   C     0.80931   0.53557   0.40776   0.00000  Uiso   1.00
C405   C     0.85737   0.46443   0.09224   0.00000  Uiso   1.00
C406   C     0.81049   0.53538   0.45449   0.00000  Uiso   1.00
C407   C     0.85619   0.46462   0.04551   0.00000  Uiso   1.00
C408   C     0.83246   0.50031   0.47673   0.00000  Uiso   1.00
C409   C     0.83422   0.49970   0.02327   0.00000  Uiso   1.00
C410   C     0.85265   0.46573   0.45253   0.00000  Uiso   1.00
C411   C     0.81403   0.53428   0.04746   0.00000  Uiso   1.00
C412   C     0.79016   0.56912   0.47958   0.00000  Uiso   1.00
C413   C     0.79215   0.56862   0.02565   0.00000  Uiso   1.00
C414   C     0.87652   0.43089   0.02041   0.00000  Uiso   1.00
C415   C     0.78578   0.57124   0.38333   0.00000  Uiso   1.00
C416   C     0.74757   0.56076   0.36260   0.00000  Uiso   1.00
C417   C     0.72631   0.59389   0.33821   0.00000  Uiso   1.00
C418   C     0.74317   0.63747   0.33414   0.00000  Uiso   1.00
C419   C     0.78118   0.64812   0.35474   0.00000  Uiso   1.00
C420   C     0.80249   0.61515   0.37928   0.00000  Uiso   1.00
C421   C     0.88088   0.42875   0.11667   0.00000  Uiso   1.00
C422   C     0.86416   0.38485   0.12070   0.00000  Uiso   1.00
C423   C     0.88545   0.35187   0.14524   0.00000  Uiso   1.00
C424   C     0.87454   0.43139   0.47435   0.00000  Uiso   1.00
C425   C     0.92346   0.36250   0.16585   0.00000  Uiso   1.00
C426   C     0.94033   0.40608   0.16180   0.00000  Uiso   1.00
C427   C     0.91908   0.43922   0.13741   0.00000  Uiso   1.00
C428   C     0.68805   0.46109   0.26383   0.00000  Uiso   1.00
C429   C     0.97862   0.53891   0.23617   0.00000  Uiso   1.00
C430   C     0.97868   0.46117   0.26398   0.00000  Uiso   1.00
C431   C     0.68798   0.53883   0.23602   0.00000  Uiso   1.00
C432   C     0.95751   0.50005   0.25010   0.00000  Uiso   1.00
H433   H     0.86733   0.43983   0.38806   0.00000  Uiso   1.00
H434   H     0.70433   0.56890   0.22490   0.00000  Uiso   1.00
H435   H     0.88523   0.37593   0.29380   0.00000  Uiso   1.00
H436   H     0.78144   0.62407   0.20620   0.00000  Uiso   1.00
H437   H     0.78147   0.37525   0.20617   0.00000  Uiso   1.00
H438   H     0.88520   0.62475   0.29383   0.00000  Uiso   1.00
H439   H     0.73449   0.52694   0.36509   0.00000  Uiso   1.00
H440   H     0.69684   0.58573   0.32234   0.00000  Uiso   1.00
H441   H     0.72681   0.66297   0.31500   0.00000  Uiso   1.00
H442   H     0.79425   0.34851   0.35147   0.00000  Uiso   1.00
H443   H     0.83214   0.62358   0.39471   0.00000  Uiso   1.00
H444   H     0.79935   0.56017   0.11194   0.00000  Uiso   1.00
H445   H     0.83451   0.37643   0.10526   0.00000  Uiso   1.00
H446   H     0.87238   0.65148   0.14850   0.00000  Uiso   1.00
H447   H     0.93981   0.33699   0.18499   0.00000  Uiso   1.00
H448   H     0.96979   0.41423   0.17769   0.00000  Uiso   1.00
H449   H     0.93217   0.47303   0.13493   0.00000  Uiso   1.00
H450   H     0.77261   0.59613   0.46402   0.00000  Uiso   1.00
H451   H     0.89407   0.40388   0.03598   0.00000  Uiso   1.00
H452   H     0.77639   0.59508   0.04428   0.00000  Uiso   1.00
H453   H     0.89030   0.40493   0.45572   0.00000  Uiso   1.00
H454   H     0.70445   0.43101   0.27493   0.00000  Uiso   1.00
H455   H     0.96222   0.56899   0.22507   0.00000  Uiso   1.00
H456   H     0.96233   0.43110   0.27509   0.00000  Uiso   1.00
N457   N     0.83333   0.61907   0.25000   0.00000  Uiso   1.00
N458   N     0.83333   0.38093   0.25000   0.00000  Uiso   1.00
O459   O     0.77226   0.53821   0.24999   0.00000  Uiso   1.00
O460   O     0.89441   0.46179   0.25000   0.00000  Uiso   1.00
O461   O     0.89441   0.53821   0.25000   0.00000  Uiso   1.00
O462   O     0.77226   0.46179   0.24999   0.00000  Uiso   1.00
O463   O     0.83333   0.53823   0.18392   0.00000  Uiso   1.00
O464   O     0.83334   0.46177   0.31607   0.00000  Uiso   1.00
O465   O     0.83334   0.53823   0.31607   0.00000  Uiso   1.00
O466   O     0.83333   0.46177   0.18392   0.00000  Uiso   1.00
Zn467  Zn    0.83333   0.55104   0.25000   0.00000  Uiso   1.00
Zn468  Zn    0.83333   0.44896   0.25000   0.00000  Uiso   1.00
C469   C     0.08661   0.83331   0.24995   0.00000  Uiso   1.00
C470   C     0.04249   0.83328   0.24990   0.00000  Uiso   1.00
C471   C     0.19554   0.69087   0.27432   0.00000  Uiso   1.00
C472   C     0.13779   0.97580   0.22568   0.00000  Uiso   1.00
C473   C     0.13779   0.69049   0.22568   0.00000  Uiso   1.00
C474   C     0.19554   0.97618   0.27432   0.00000  Uiso   1.00
C475   C     0.16791   0.83312   0.16340   0.00000  Uiso   1.00
C476   C     0.16543   0.83354   0.33660   0.00000  Uiso   1.00
C477   C     0.18452   0.79944   0.40668   0.00000  Uiso   1.00
C478   C     0.14882   0.86723   0.09332   0.00000  Uiso   1.00
C479   C     0.16364   0.83406   0.38445   0.00000  Uiso   1.00
C480   C     0.24672   0.83336   0.25005   0.00000  Uiso   1.00
C481   C     0.16970   0.83261   0.11555   0.00000  Uiso   1.00
C482   C     0.14264   0.86891   0.40776   0.00000  Uiso   1.00
C483   C     0.19070   0.79776   0.09224   0.00000  Uiso   1.00
C484   C     0.14382   0.86872   0.45449   0.00000  Uiso   1.00
C485   C     0.18952   0.79796   0.04551   0.00000  Uiso   1.00
C486   C     0.16579   0.83364   0.47673   0.00000  Uiso   1.00
C487   C     0.16756   0.83303   0.02327   0.00000  Uiso   1.00
C488   C     0.18598   0.79907   0.45253   0.00000  Uiso   1.00
C489   C     0.14737   0.86761   0.04746   0.00000  Uiso   1.00
C490   C     0.12350   0.90245   0.47958   0.00000  Uiso   1.00
C491   C     0.12548   0.90195   0.02565   0.00000  Uiso   1.00
C492   C     0.20985   0.76422   0.02041   0.00000  Uiso   1.00
C493   C     0.11912   0.90457   0.38333   0.00000  Uiso   1.00
C494   C     0.08090   0.89409   0.36260   0.00000  Uiso   1.00
C495   C     0.05965   0.92722   0.33821   0.00000  Uiso   1.00
C496   C     0.07651   0.97080   0.33414   0.00000  Uiso   1.00
C497   C     0.11452   0.98145   0.35474   0.00000  Uiso   1.00
C498   C     0.13582   0.94848   0.37928   0.00000  Uiso   1.00
C499   C     0.21421   0.76209   0.11667   0.00000  Uiso   1.00
C500   C     0.19749   0.71818   0.12070   0.00000  Uiso   1.00
C501   C     0.21878   0.68520   0.14524   0.00000  Uiso   1.00
C502   C     0.20787   0.76473   0.47435   0.00000  Uiso   1.00
C503   C     0.25679   0.69584   0.16585   0.00000  Uiso   1.00
C504   C     0.27366   0.73941   0.16180   0.00000  Uiso   1.00
C505   C     0.25242   0.77255   0.13741   0.00000  Uiso   1.00
C506   C     0.02138   0.79443   0.26383   0.00000  Uiso   1.00
C507   C     0.31195   0.87224   0.23617   0.00000  Uiso   1.00
C508   C     0.31202   0.79450   0.26398   0.00000  Uiso   1.00
C509   C     0.02132   0.87217   0.23602   0.00000  Uiso   1.00
C510   C     0.29084   0.83339   0.25010   0.00000  Uiso   1.00
H511   H     0.20066   0.77317   0.38806   0.00000  Uiso   1.00
H512   H     0.03767   0.90224   0.22490   0.00000  Uiso   1.00
H513   H     0.21856   0.70927   0.29380   0.00000  Uiso   1.00
H514   H     0.11477   0.95740   0.20620   0.00000  Uiso   1.00
H515   H     0.11480   0.70858   0.20617   0.00000  Uiso   1.00
H516   H     0.21853   0.95808   0.29383   0.00000  Uiso   1.00
H517   H     0.06782   0.86028   0.36509   0.00000  Uiso   1.00
H518   H     0.03018   0.91907   0.32234   0.00000  Uiso   1.00
H519   H     0.06014   0.99631   0.31500   0.00000  Uiso   1.00
H520   H     0.12758   0.68184   0.35147   0.00000  Uiso   1.00
H521   H     0.16547   0.95691   0.39471   0.00000  Uiso   1.00
H522   H     0.13268   0.89351   0.11194   0.00000  Uiso   1.00
H523   H     0.16784   0.70976   0.10526   0.00000  Uiso   1.00
H524   H     0.20571   0.98481   0.14850   0.00000  Uiso   1.00
H525   H     0.27314   0.67032   0.18499   0.00000  Uiso   1.00
H526   H     0.30313   0.74756   0.17769   0.00000  Uiso   1.00
H527   H     0.26550   0.80637   0.13493   0.00000  Uiso   1.00
H528   H     0.10594   0.92946   0.46402   0.00000  Uiso   1.00
H529   H     0.22741   0.73721   0.03598   0.00000  Uiso   1.00
H530   H     0.10972   0.92841   0.04428   0.00000  Uiso   1.00
H531   H     0.22363   0.73826   0.45572   0.00000  Uiso   1.00
H532   H     0.03778   0.76435   0.27493   0.00000  Uiso   1.00
H533   H     0.29555   0.90232   0.22507   0.00000  Uiso   1.00
H534   H     0.29567   0.76443   0.27509   0.00000  Uiso   1.00
N535   N     0.16667   0.95240   0.25000   0.00000  Uiso   1.00
N536   N     0.16667   0.71427   0.25000   0.00000  Uiso   1.00
O537   O     0.10559   0.87154   0.24999   0.00000  Uiso   1.00
O538   O     0.22774   0.79513   0.25000   0.00000  Uiso   1.00
O539   O     0.22774   0.87154   0.25000   0.00000  Uiso   1.00
O540   O     0.10559   0.79513   0.24999   0.00000  Uiso   1.00
O541   O     0.16666   0.87156   0.18392   0.00000  Uiso   1.00
O542   O     0.16667   0.79511   0.31607   0.00000  Uiso   1.00
O543   O     0.16667   0.87156   0.31607   0.00000  Uiso   1.00
O544   O     0.16666   0.79511   0.18392   0.00000  Uiso   1.00
Zn545  Zn    0.16667   0.88437   0.25000   0.00000  Uiso   1.00
Zn546  Zn    0.16667   0.78229   0.25000   0.00000  Uiso   1.00
C547   C     0.41995   0.83331   0.24995   0.00000  Uiso   1.00
C548   C     0.37582   0.83328   0.24990   0.00000  Uiso   1.00
C549   C     0.52888   0.69087   0.27432   0.00000  Uiso   1.00
C550   C     0.47112   0.97580   0.22568   0.00000  Uiso   1.00
C551   C     0.47112   0.69049   0.22568   0.00000  Uiso   1.00
C552   C     0.52888   0.97618   0.27432   0.00000  Uiso   1.00
C553   C     0.50124   0.83312   0.16340   0.00000  Uiso   1.00
C554   C     0.49876   0.83354   0.33660   0.00000  Uiso   1.00
C555   C     0.51785   0.79944   0.40668   0.00000  Uiso   1.00
C556   C     0.48216   0.86723   0.09332   0.00000  Uiso   1.00
C557   C     0.49697   0.83406   0.38445   0.00000  Uiso   1.00
C558   C     0.58005   0.83336   0.25005   0.00000  Uiso   1.00
C559   C     0.50303   0.83261   0.11555   0.00000  Uiso   1.00
C560   C     0.47597   0.86891   0.40776   0.00000  Uiso   1.00
C561   C     0.52403   0.79776   0.09224   0.00000  Uiso   1.00
C562   C     0.47716   0.86872   0.45449   0.00000  Uiso   1.00
C563   C     0.52286   0.79796   0.04551   0.00000  Uiso   1.00
C564   C     0.49913   0.83364   0.47673   0.00000  Uiso   1.00
C565   C     0.50089   0.83303   0.02327   0.00000  Uiso   1.00
C566   C     0.51931   0.79907   0.45253   0.00000  Uiso   1.00
C567   C     0.48070   0.86761   0.04746   0.00000  Uiso   1.00
C568   C     0.45683   0.90245   0.47958   0.00000  Uiso   1.00
C569   C     0.45881   0.90195   0.02565   0.00000  Uiso   1.00
C570   C     0.54318   0.76422   0.02041   0.00000  Uiso   1.00
C571   C     0.45245   0.90457   0.38333   0.00000  Uiso   1.00
C572   C     0.41424   0.89409   0.36260   0.00000  Uiso   1.00
C573   C     0.39298   0.92722   0.33821   0.00000  Uiso   1.00
C574   C     0.40984   0.97080   0.33414   0.00000  Uiso   1.00
C575   C     0.44785   0.98145   0.35474   0.00000  Uiso   1.00
C576   C     0.46916   0.94848   0.37928   0.00000  Uiso   1.00
C577   C     0.54754   0.76209   0.11667   0.00000  Uiso   1.00
C578   C     0.53082   0.71818   0.12070   0.00000  Uiso   1.00
C579   C     0.55212   0.68520   0.14524   0.00000  Uiso   1.00
C580   C     0.54120   0.76473   0.47435   0.00000  Uiso   1.00
C581   C     0.59012   0.69584   0.16585   0.00000  Uiso   1.00
C582   C     0.60699   0.73941   0.16180   0.00000  Uiso   1.00
C583   C     0.58575   0.77255   0.13741   0.00000  Uiso   1.00
C584   C     0.35472   0.79443   0.26383   0.00000  Uiso   1.00
C585   C     0.64528   0.87224   0.23617   0.00000  Uiso   1.00
C586   C     0.64535   0.79450   0.26398   0.00000  Uiso   1.00
C587   C     0.35465   0.87217   0.23602   0.00000  Uiso   1.00
C588   C     0.62418   0.83339   0.25010   0.00000  Uiso   1.00
H589   H     0.53400   0.77317   0.38806   0.00000  Uiso   1.00
H590   H     0.37100   0.90224   0.22490   0.00000  Uiso   1.00
H591   H     0.55190   0.70927   0.29380   0.00000  Uiso   1.00
H592   H     0.44810   0.95740   0.20620   0.00000  Uiso   1.00
H593   H     0.44813   0.70858   0.20617   0.00000  Uiso   1.00
H594   H     0.55187   0.95808   0.29383   0.00000  Uiso   1.00
H595   H     0.40116   0.86028   0.36509   0.00000  Uiso   1.00
H596   H     0.36351   0.91907   0.32234   0.00000  Uiso   1.00
H597   H     0.39348   0.99631   0.31500   0.00000  Uiso   1.00
H598   H     0.46092   0.68184   0.35147   0.00000  Uiso   1.00
H599   H     0.49881   0.95691   0.39471   0.00000  Uiso   1.00
H600   H     0.46602   0.89351   0.11194   0.00000  Uiso   1.00
H601   H     0.50118   0.70976   0.10526   0.00000  Uiso   1.00
H602   H     0.53904   0.98481   0.14850   0.00000  Uiso   1.00
H603   H     0.60648   0.67032   0.18499   0.00000  Uiso   1.00
H604   H     0.63646   0.74756   0.17769   0.00000  Uiso   1.00
H605   H     0.59884   0.80637   0.13493   0.00000  Uiso   1.00
H606   H     0.43927   0.92946   0.46402   0.00000  Uiso   1.00
H607   H     0.56074   0.73721   0.03598   0.00000  Uiso   1.00
H608   H     0.44305   0.92841   0.04428   0.00000  Uiso   1.00
H609   H     0.55696   0.73826   0.45572   0.00000  Uiso   1.00
H610   H     0.37111   0.76435   0.27493   0.00000  Uiso   1.00
H611   H     0.62889   0.90232   0.22507   0.00000  Uiso   1.00
H612   H     0.62900   0.76443   0.27509   0.00000  Uiso   1.00
N613   N     0.50000   0.95240   0.25000   0.00000  Uiso   1.00
N614   N     0.50000   0.71427   0.25000   0.00000  Uiso   1.00
O615   O     0.43892   0.87154   0.24999   0.00000  Uiso   1.00
O616   O     0.56108   0.79513   0.25000   0.00000  Uiso   1.00
O617   O     0.56108   0.87154   0.25000   0.00000  Uiso   1.00
O618   O     0.43892   0.79513   0.24999   0.00000  Uiso   1.00
O619   O     0.49999   0.87156   0.18392   0.00000  Uiso   1.00
O620   O     0.50001   0.79511   0.31607   0.00000  Uiso   1.00
O621   O     0.50001   0.87156   0.31607   0.00000  Uiso   1.00
O622   O     0.49999   0.79511   0.18392   0.00000  Uiso   1.00
Zn623  Zn    0.50000   0.88437   0.25000   0.00000  Uiso   1.00
Zn624  Zn    0.50000   0.78229   0.25000   0.00000  Uiso   1.00
C625   C     0.75328   0.83331   0.24995   0.00000  Uiso   1.00
C626   C     0.70916   0.83328   0.24990   0.00000  Uiso   1.00
C627   C     0.86221   0.69087   0.27432   0.00000  Uiso   1.00
C628   C     0.80446   0.97580   0.22568   0.00000  Uiso   1.00
C629   C     0.80446   0.69049   0.22568   0.00000  Uiso   1.00
C630   C     0.86221   0.97618   0.27432   0.00000  Uiso   1.00
C631   C     0.83457   0.83312   0.16340   0.00000  Uiso   1.00
C632   C     0.83210   0.83354   0.33660   0.00000  Uiso   1.00
C633   C     0.85119   0.79944   0.40668   0.00000  Uiso   1.00
C634   C     0.81549   0.86723   0.09332   0.00000  Uiso   1.00
C635   C     0.83031   0.83406   0.38445   0.00000  Uiso   1.00
C636   C     0.91339   0.83336   0.25005   0.00000  Uiso   1.00
C637   C     0.83636   0.83261   0.11555   0.00000  Uiso   1.00
C638   C     0.80931   0.86891   0.40776   0.00000  Uiso   1.00
C639   C     0.85737   0.79776   0.09224   0.00000  Uiso   1.00
C640   C     0.81049   0.86872   0.45449   0.00000  Uiso   1.00
C641   C     0.85619   0.79796   0.04551   0.00000  Uiso   1.00
C642   C     0.83246   0.83364   0.47673   0.00000  Uiso   1.00
C643   C     0.83422   0.83303   0.02327   0.00000  Uiso   1.00
C644   C     0.85265   0.79907   0.45253   0.00000  Uiso   1.00
C645   C     0.81403   0.86761   0.04746   0.00000  Uiso   1.00
C646   C     0.79016   0.90245   0.47958   0.00000  Uiso   1.00
C647   C     0.79215   0.90195   0.02565   0.00000  Uiso   1.00
C648   C     0.87652   0.76422   0.02041   0.00000  Uiso   1.00
C649   C     0.78578   0.90457   0.38333   0.00000  Uiso   1.00
C650   C     0.74757   0.89409   0.36260   0.00000  Uiso   1.00
C651   C     0.72631   0.92722   0.33821   0.00000  Uiso   1.00
C652   C     0.74317   0.97080   0.33414   0.00000  Uiso   1.00
C653   C     0.78118   0.98145   0.35474   0.00000  Uiso   1.00
C654   C     0.80249   0.94848   0.37928   0.00000  Uiso   1.00
C655   C     0.88088   0.76209   0.11667   0.00000  Uiso   1.00
C656   C     0.86416   0.71818   0.12070   0.00000  Uiso   1.00
C657   C     0.88545   0.68520   0.14524   0.00000  Uiso   1.00
C658   C     0.87454   0.76473   0.47435   0.00000  Uiso   1.00
C659   C     0.92346   0.69584   0.16585   0.00000  Uiso   1.00
C660   C     0.94033   0.73941   0.16180   0.00000  Uiso   1.00
C661   C     0.91908   0.77255   0.13741   0.00000  Uiso   1.00
C662   C     0.68805   0.79443   0.26383   0.00000  Uiso   1.00
C663   C     0.97862   0.87224   0.23617   0.00000  Uiso   1.00
C664   C     0.97868   0.79450   0.26398   0.00000  Uiso   1.00
C665   C     0.68798   0.87217   0.23602   0.00000  Uiso   1.00
C666   C     0.95751   0.83339   0.25010   0.00000  Uiso   1.00
H667   H     0.86733   0.77317   0.38806   0.00000  Uiso   1.00
H668   H     0.70433   0.90224   0.22490   0.00000  Uiso   1.00
H669   H     0.88523   0.70927   0.29380   0.00000  Uiso   1.00
H670   H     0.78144   0.95740   0.20620   0.00000  Uiso   1.00
H671   H     0.78147   0.70858   0.20617   0.00000  Uiso   1.00
H672   H     0.88520   0.95808   0.29383   0.00000  Uiso   1.00
H673   H     0.73449   0.86028   0.36509   0.00000  Uiso   1.00
H674   H     0.69684   0.91907   0.32234   0.00000  Uiso   1.00
H675   H     0.72681   0.99631   0.31500   0.00000  Uiso   1.00
H676   H     0.79425   0.68184   0.35147   0.00000  Uiso   1.00
H677   H     0.83214   0.95691   0.39471   0.00000  Uiso   1.00
H678   H     0.79935   0.89351   0.11194   0.00000  Uiso   1.00
H679   H     0.83451   0.70976   0.10526   0.00000  Uiso   1.00
H680   H     0.87238   0.98481   0.14850   0.00000  Uiso   1.00
H681   H     0.93981   0.67032   0.18499   0.00000  Uiso   1.00
H682   H     0.96979   0.74756   0.17769   0.00000  Uiso   1.00
H683   H     0.93217   0.80637   0.13493   0.00000  Uiso   1.00
H684   H     0.77261   0.92946   0.46402   0.00000  Uiso   1.00
H685   H     0.89407   0.73721   0.03598   0.00000  Uiso   1.00
H686   H     0.77639   0.92841   0.04428   0.00000  Uiso   1.00
H687   H     0.89030   0.73826   0.45572   0.00000  Uiso   1.00
H688   H     0.70445   0.76435   0.27493   0.00000  Uiso   1.00
H689   H     0.96222   0.90232   0.22507   0.00000  Uiso   1.00
H690   H     0.96233   0.76443   0.27509   0.00000  Uiso   1.00
N691   N     0.83333   0.95240   0.25000   0.00000  Uiso   1.00
N692   N     0.83333   0.71427   0.25000   0.00000  Uiso   1.00
O693   O     0.77226   0.87154   0.24999   0.00000  Uiso   1.00
O694   O     0.89441   0.79513   0.25000   0.00000  Uiso   1.00
O695   O     0.89441   0.87154   0.25000   0.00000  Uiso   1.00
O696   O     0.77226   0.79513   0.24999   0.00000  Uiso   1.00
O697   O     0.83333   0.87156   0.18392   0.00000  Uiso   1.00
O698   O     0.83334   0.79511   0.31607   0.00000  Uiso   1.00
O699   O     0.83334   0.87156   0.31607   0.00000  Uiso   1.00
O700   O     0.83333   0.79511   0.18392   0.00000  Uiso   1.00
Zn701  Zn    0.83333   0.88437   0.25000   0.00000  Uiso   1.00
Zn702  Zn    0.83333   0.78229   0.25000   0.00000  Uiso   1.00
C703   C     0.08661   0.16664   0.74995   0.00000  Uiso   1.00
C704   C     0.04249   0.16661   0.74990   0.00000  Uiso   1.00
C705   C     0.19554   0.02420   0.77432   0.00000  Uiso   1.00
C706   C     0.13779   0.30913   0.72568   0.00000  Uiso   1.00
C707   C     0.13779   0.02382   0.72568   0.00000  Uiso   1.00
C708   C     0.19554   0.30951   0.77432   0.00000  Uiso   1.00
C709   C     0.16791   0.16646   0.66340   0.00000  Uiso   1.00
C710   C     0.16543   0.16688   0.83660   0.00000  Uiso   1.00
C711   C     0.18452   0.13277   0.90668   0.00000  Uiso   1.00
C712   C     0.14882   0.20057   0.59332   0.00000  Uiso   1.00
C713   C     0.16364   0.16740   0.88445   0.00000  Uiso   1.00
C714   C     0.24672   0.16669   0.75005   0.00000  Uiso   1.00
C715   C     0.16970   0.16594   0.61555   0.00000  Uiso   1.00
C716   C     0.14264   0.20224   0.90776   0.00000  Uiso   1.00
C717   C     0.19070   0.13110   0.59224   0.00000  Uiso   1.00
C718   C     0.14382   0.20205   0.95449   0.00000  Uiso   1.00
C719   C     0.18952   0.13129   0.54551   0.00000  Uiso   1.00
C720   C     0.16579   0.16698   0.97673   0.00000  Uiso   1.00
C721   C     0.16756   0.16636   0.52327   0.00000  Uiso   1.00
C722   C     0.18598   0.13240   0.95253   0.00000  Uiso   1.00
C723   C     0.14737   0.20094   0.54746   0.00000  Uiso   1.00
C724   C     0.12350   0.23578   0.97958   0.00000  Uiso   1.00
C725   C     0.12548   0.23528   0.52565   0.00000  Uiso   1.00
C726   C     0.20985   0.09756   0.52041   0.00000  Uiso   1.00
C727   C     0.11912   0.23791   0.88333   0.00000  Uiso   1.00
C728   C     0.08090   0.22743   0.86260   0.00000  Uiso   1.00
C729   C     0.05965   0.26056   0.83821   0.00000  Uiso   1.00
C730   C     0.07651   0.30414   0.83414   0.00000  Uiso   1.00
C731   C     0.11452   0.31479   0.85474   0.00000  Uiso   1.00
C732   C     0.13582   0.28181   0.87928   0.00000  Uiso   1.00
C733   C     0.21421   0.09542   0.61667   0.00000  Uiso   1.00
C734   C     0.19749   0.05151   0.62070   0.00000  Uiso   1.00
C735   C     0.21878   0.01853   0.64524   0.00000  Uiso   1.00
C736   C     0.20787   0.09806   0.97435   0.00000  Uiso   1.00
C737   C     0.25679   0.02917   0.66585   0.00000  Uiso   1.00
C738   C     0.27366   0.07275   0.66180   0.00000  Uiso   1.00
C739   C     0.25242   0.10589   0.63741   0.00000  Uiso   1.00
C740   C     0.02138   0.12776   0.76383   0.00000  Uiso   1.00
C741   C     0.31195   0.20557   0.73617   0.00000  Uiso   1.00
C742   C     0.31202   0.12783   0.76398   0.00000  Uiso   1.00
C743   C     0.02132   0.20550   0.73602   0.00000  Uiso   1.00
C744   C     0.29084   0.16672   0.75010   0.00000  Uiso   1.00
H745   H     0.20066   0.10650   0.88806   0.00000  Uiso   1.00
H746   H     0.03767   0.23557   0.72490   0.00000  Uiso   1.00
H747   H     0.21856   0.04260   0.79380   0.00000  Uiso   1.00
H748   H     0.11477   0.29073   0.70620   0.00000  Uiso   1.00
H749   H     0.11480   0.04192   0.70617   0.00000  Uiso   1.00
H750   H     0.21853   0.29142   0.79383   0.00000  Uiso   1.00
H751   H     0.06782   0.19361   0.86509   0.00000  Uiso   1.00
H752   H     0.03018   0.25240   0.82234   0.00000  Uiso   1.00
H753   H     0.06014   0.32964   0.81500   0.00000  Uiso   1.00
H754   H     0.12758   0.01518   0.85147   0.00000  Uiso   1.00
H755   H     0.16547   0.29025   0.89471   0.00000  Uiso   1.00
H756   H     0.13268   0.22684   0.61194   0.00000  Uiso   1.00
H757   H     0.16784   0.04309   0.60526   0.00000  Uiso   1.00
H758   H     0.20571   0.31814   0.64850   0.00000  Uiso   1.00
H759   H     0.27314   0.00366   0.68499   0.00000  Uiso   1.00
H760   H     0.30313   0.08089   0.67769   0.00000  Uiso   1.00
H761   H     0.26550   0.13970   0.63493   0.00000  Uiso   1.00
H762   H     0.10594   0.26280   0.96402   0.00000  Uiso   1.00
H763   H     0.22741   0.07054   0.53598   0.00000  Uiso   1.00
H764   H     0.10972   0.26175   0.54428   0.00000  Uiso   1.00
H765   H     0.22363   0.07160   0.95572   0.00000  Uiso   1.00
H766   H     0.03778   0.09768   0.77493   0.00000  Uiso   1.00
H767   H     0.29555   0.23565   0.72507   0.00000  Uiso   1.00
H768   H     0.29567   0.09776   0.77509   0.00000  Uiso   1.00
N769   N     0.16667   0.28573   0.75000   0.00000  Uiso   1.00
N770   N     0.16667   0.04760   0.75000   0.00000  Uiso   1.00
O771   O     0.10559   0.20487   0.74999   0.00000  Uiso   1.00
O772   O     0.22774   0.12846   0.75000   0.00000  Uiso   1.00
O773   O     0.22774   0.20487   0.75000   0.00000  Uiso   1.00
O774   O     0.10559   0.12846   0.74999   0.00000  Uiso   1.00
O775   O     0.16666   0.20489   0.68392   0.00000  Uiso   1.00
O776   O     0.16667   0.12844   0.81607   0.00000  Uiso   1.00
O777   O     0.16667   0.20489   0.81607   0.00000  Uiso   1.00
O778   O     0.16666   0.12844   0.68392   0.00000  Uiso   1.00
Zn779  Zn    0.16667   0.21771   0.75000   0.00000  Uiso   1.00
Zn780  Zn    0.16667   0.11563   0.75000   0.00000  Uiso   1.00
C781   C     0.41995   0.16664   0.74995   0.00000  Uiso   1.00
C782   C     0.37582   0.16661   0.74990   0.00000  Uiso   1.00
C783   C     0.52888   0.02420   0.77432   0.00000  Uiso   1.00
C784   C     0.47112   0.30913   0.72568   0.00000  Uiso   1.00
C785   C     0.47112   0.02382   0.72568   0.00000  Uiso   1.00
C786   C     0.52888   0.30951   0.77432   0.00000  Uiso   1.00
C787   C     0.50124   0.16646   0.66340   0.00000  Uiso   1.00
C788   C     0.49876   0.16688   0.83660   0.00000  Uiso   1.00
C789   C     0.51785   0.13277   0.90668   0.00000  Uiso   1.00
C790   C     0.48216   0.20057   0.59332   0.00000  Uiso   1.00
C791   C     0.49697   0.16740   0.88445   0.00000  Uiso   1.00
C792   C     0.58005   0.16669   0.75005   0.00000  Uiso   1.00
C793   C     0.50303   0.16594   0.61555   0.00000  Uiso   1.00
C794   C     0.47597   0.20224   0.90776   0.00000  Uiso   1.00
C795   C     0.52403   0.13110   0.59224   0.00000  Uiso   1.00
C796   C     0.47716   0.20205   0.95449   0.00000  Uiso   1.00
C797   C     0.52286   0.13129   0.54551   0.00000  Uiso   1.00
C798   C     0.49913   0.16698   0.97673   0.00000  Uiso   1.00
C799   C     0.50089   0.16636   0.52327   0.00000  Uiso   1.00
C800   C     0.51931   0.13240   0.95253   0.00000  Uiso   1.00
C801   C     0.48070   0.20094   0.54746   0.00000  Uiso   1.00
C802   C     0.45683   0.23578   0.97958   0.00000  Uiso   1.00
C803   C     0.45881   0.23528   0.52565   0.00000  Uiso   1.00
C804   C     0.54318   0.09756   0.52041   0.00000  Uiso   1.00
C805   C     0.45245   0.23791   0.88333   0.00000  Uiso   1.00
C806   C     0.41424   0.22743   0.86260   0.00000  Uiso   1.00
C807   C     0.39298   0.26056   0.83821   0.00000  Uiso   1.00
C808   C     0.40984   0.30414   0.83414   0.00000  Uiso   1.00
C809   C     0.44785   0.31479   0.85474   0.00000  Uiso   1.00
C810   C     0.46916   0.28181   0.87928   0.00000  Uiso   1.00
C811   C     0.54754   0.09542   0.61667   0.00000  Uiso   1.00
C812   C     0.53082   0.05151   0.62070   0.00000  Uiso   1.00
C813   C     0.55212   0.01853   0.64524   0.00000  Uiso   1.00
C814   C     0.54120   0.09806   0.97435   0.00000  Uiso   1.00
C815   C     0.59012   0.02917   0.66585   0.00000  Uiso   1.00
C816   C     0.60699   0.07275   0.66180   0.00000  Uiso   1.00
C817   C     0.58575   0.10589   0.63741   0.00000  Uiso   1.00
C818   C     0.35472   0.12776   0.76383   0.00000  Uiso   1.00
C819   C     0.64528   0.20557   0.73617   0.00000  Uiso   1.00
C820   C     0.64535   0.12783   0.76398   0.00000  Uiso   1.00
C821   C     0.35465   0.20550   0.73602   0.00000  Uiso   1.00
C822   C     0.62418   0.16672   0.75010   0.00000  Uiso   1.00
H823   H     0.53400   0.10650   0.88806   0.00000  Uiso   1.00
H824   H     0.37100   0.23557   0.72490   0.00000  Uiso   1.00
H825   H     0.55190   0.04260   0.79380   0.00000  Uiso   1.00
H826   H     0.44810   0.29073   0.70620   0.00000  Uiso   1.00
H827   H     0.44813   0.04192   0.70617   0.00000  Uiso   1.00
H828   H     0.55187   0.29142   0.79383   0.00000  Uiso   1.00
H829   H     0.40116   0.19361   0.86509   0.00000  Uiso   1.00
H830   H     0.36351   0.25240   0.82234   0.00000  Uiso   1.00
H831   H     0.39348   0.32964   0.81500   0.00000  Uiso   1.00
H832   H     0.46092   0.01518   0.85147   0.00000  Uiso   1.00
H833   H     0.49881   0.29025   0.89471   0.00000  Uiso   1.00
H834   H     0.46602   0.22684   0.61194   0.00000  Uiso   1.00
H835   H     0.50118   0.04309   0.60526   0.00000  Uiso   1.00
H836   H     0.53904   0.31814   0.64850   0.00000  Uiso   1.00
H837   H     0.60648   0.00366   0.68499   0.00000  Uiso   1.00
H838   H     0.63646   0.08089   0.67769   0.00000  Uiso   1.00
H839   H     0.59884   0.13970   0.63493   0.00000  Uiso   1.00
H840   H     0.43927   0.26280   0.96402   0.00000  Uiso   1.00
H841   H     0.56074   0.07054   0.53598   0.00000  Uiso   1.00
H842   H     0.44305   0.26175   0.54428   0.00000  Uiso   1.00
H843   H     0.55696   0.07160   0.95572   0.00000  Uiso   1.00
H844   H     0.37111   0.09768   0.77493   0.00000  Uiso   1.00
H845   H     0.62889   0.23565   0.72507   0.00000  Uiso   1.00
H846   H     0.62900   0.09776   0.77509   0.00000  Uiso   1.00
N847   N     0.50000   0.28573   0.75000   0.00000  Uiso   1.00
N848   N     0.50000   0.04760   0.75000   0.00000  Uiso   1.00
O849   O     0.43892   0.20487   0.74999   0.00000  Uiso   1.00
O850   O     0.56108   0.12846   0.75000   0.00000  Uiso   1.00
O851   O     0.56108   0.20487   0.75000   0.00000  Uiso   1.00
O852   O     0.43892   0.12846   0.74999   0.00000  Uiso   1.00
O853   O     0.49999   0.20489   0.68392   0.00000  Uiso   1.00
O854   O     0.50001   0.12844   0.81607   0.00000  Uiso   1.00
O855   O     0.50001   0.20489   0.81607   0.00000  Uiso   1.00
O856   O     0.49999   0.12844   0.68392   0.00000  Uiso   1.00
Zn857  Zn    0.50000   0.21771   0.75000   0.00000  Uiso   1.00
Zn858  Zn    0.50000   0.11563   0.75000   0.00000  Uiso   1.00
C859   C     0.75328   0.16664   0.74995   0.00000  Uiso   1.00
C860   C     0.70916   0.16661   0.74990   0.00000  Uiso   1.00
C861   C     0.86221   0.02420   0.77432   0.00000  Uiso   1.00
C862   C     0.80446   0.30913   0.72568   0.00000  Uiso   1.00
C863   C     0.80446   0.02382   0.72568   0.00000  Uiso   1.00
C864   C     0.86221   0.30951   0.77432   0.00000  Uiso   1.00
C865   C     0.83457   0.16646   0.66340   0.00000  Uiso   1.00
C866   C     0.83210   0.16688   0.83660   0.00000  Uiso   1.00
C867   C     0.85119   0.13277   0.90668   0.00000  Uiso   1.00
C868   C     0.81549   0.20057   0.59332   0.00000  Uiso   1.00
C869   C     0.83031   0.16740   0.88445   0.00000  Uiso   1.00
C870   C     0.91339   0.16669   0.75005   0.00000  Uiso   1.00
C871   C     0.83636   0.16594   0.61555   0.00000  Uiso   1.00
C872   C     0.80931   0.20224   0.90776   0.00000  Uiso   1.00
C873   C     0.85737   0.13110   0.59224   0.00000  Uiso   1.00
C874   C     0.81049   0.20205   0.95449   0.00000  Uiso   1.00
C875   C     0.85619   0.13129   0.54551   0.00000  Uiso   1.00
C876   C     0.83246   0.16698   0.97673   0.00000  Uiso   1.00
C877   C     0.83422   0.16636   0.52327   0.00000  Uiso   1.00
C878   C     0.85265   0.13240   0.95253   0.00000  Uiso   1.00
C879   C     0.81403   0.20094   0.54746   0.00000  Uiso   1.00
C880   C     0.79016   0.23578   0.97958   0.00000  Uiso   1.00
C881   C     0.79215   0.23528   0.52565   0.00000  Uiso   1.00
C882   C     0.87652   0.09756   0.52041   0.00000  Uiso   1.00
C883   C     0.78578   0.23791   0.88333   0.00000  Uiso   1.00
C884   C     0.74757   0.22743   0.86260   0.00000  Uiso   1.00
C885   C     0.72631   0.26056   0.83821   0.00000  Uiso   1.00
C886   C     0.74317   0.30414   0.83414   0.00000  Uiso   1.00
C887   C     0.78118   0.31479   0.85474   0.00000  Uiso   1.00
C888   C     0.80249   0.28181   0.87928   0.00000  Uiso   1.00
C889   C     0.88088   0.09542   0.61667   0.00000  Uiso   1.00
C890   C     0.86416   0.05151   0.62070   0.00000  Uiso   1.00
C891   C     0.88545   0.01853   0.64524   0.00000  Uiso   1.00
C892   C     0.87454   0.09806   0.97435   0.00000  Uiso   1.00
C893   C     0.92346   0.02917   0.66585   0.00000  Uiso   1.00
C894   C     0.94033   0.07275   0.66180   0.00000  Uiso   1.00
C895   C     0.91908   0.10589   0.63741   0.00000  Uiso   1.00
C896   C     0.68805   0.12776   0.76383   0.00000  Uiso   1.00
C897   C     0.97862   0.20557   0.73617   0.00000  Uiso   1.00
C898   C     0.97868   0.12783   0.76398   0.00000  Uiso   1.00
C899   C     0.68798   0.20550   0.73602   0.00000  Uiso   1.00
C900   C     0.95751   0.16672   0.75010   0.00000  Uiso   1.00
H901   H     0.86733   0.10650   0.88806   0.00000  Uiso   1.00
H902   H     0.70433   0.23557   0.72490   0.00000  Uiso   1.00
H903   H     0.88523   0.04260   0.79380   0.00000  Uiso   1.00
H904   H     0.78144   0.29073   0.70620   0.00000  Uiso   1.00
H905   H     0.78147   0.04192   0.70617   0.00000  Uiso   1.00
H906   H     0.88520   0.29142   0.79383   0.00000  Uiso   1.00
H907   H     0.73449   0.19361   0.86509   0.00000  Uiso   1.00
H908   H     0.69684   0.25240   0.82234   0.00000  Uiso   1.00
H909   H     0.72681   0.32964   0.81500   0.00000  Uiso   1.00
H910   H     0.79425   0.01518   0.85147   0.00000  Uiso   1.00
H911   H     0.83214   0.29025   0.89471   0.00000  Uiso   1.00
H912   H     0.79935   0.22684   0.61194   0.00000  Uiso   1.00
H913   H     0.83451   0.04309   0.60526   0.00000  Uiso   1.00
H914   H     0.87238   0.31814   0.64850   0.00000  Uiso   1.00
H915   H     0.93981   0.00366   0.68499   0.00000  Uiso   1.00
H916   H     0.96979   0.08089   0.67769   0.00000  Uiso   1.00
H917   H     0.93217   0.13970   0.63493   0.00000  Uiso   1.00
H918   H     0.77261   0.26280   0.96402   0.00000  Uiso   1.00
H919   H     0.89407   0.07054   0.53598   0.00000  Uiso   1.00
H920   H     0.77639   0.26175   0.54428   0.00000  Uiso   1.00
H921   H     0.89030   0.07160   0.95572   0.00000  Uiso   1.00
H922   H     0.70445   0.09768   0.77493   0.00000  Uiso   1.00
H923   H     0.96222   0.23565   0.72507   0.00000  Uiso   1.00
H924   H     0.96233   0.09776   0.77509   0.00000  Uiso   1.00
N925   N     0.83333   0.28573   0.75000   0.00000  Uiso   1.00
N926   N     0.83333   0.04760   0.75000   0.00000  Uiso   1.00
O927   O     0.77226   0.20487   0.74999   0.00000  Uiso   1.00
O928   O     0.89441   0.12846   0.75000   0.00000  Uiso   1.00
O929   O     0.89441   0.20487   0.75000   0.00000  Uiso   1.00
O930   O     0.77226   0.12846   0.74999   0.00000  Uiso   1.00
O931   O     0.83333   0.20489   0.68392   0.00000  Uiso   1.00
O932   O     0.83334   0.12844   0.81607   0.00000  Uiso   1.00
O933   O     0.83334   0.20489   0.81607   0.00000  Uiso   1.00
O934   O     0.83333   0.12844   0.68392   0.00000  Uiso   1.00
Zn935  Zn    0.83333   0.21771   0.75000   0.00000  Uiso   1.00
Zn936  Zn    0.83333   0.11563   0.75000   0.00000  Uiso   1.00
C937   C     0.08661   0.49998   0.74995   0.00000  Uiso   1.00
C938   C     0.04249   0.49995   0.74990   0.00000  Uiso   1.00
C939   C     0.19554   0.35753   0.77432   0.00000  Uiso   1.00
C940   C     0.13779   0.64247   0.72568   0.00000  Uiso   1.00
C941   C     0.13779   0.35715   0.72568   0.00000  Uiso   1.00
C942   C     0.19554   0.64285   0.77432   0.00000  Uiso   1.00
C943   C     0.16791   0.49979   0.66340   0.00000  Uiso   1.00
C944   C     0.16543   0.50021   0.83660   0.00000  Uiso   1.00
C945   C     0.18452   0.46611   0.90668   0.00000  Uiso   1.00
C946   C     0.14882   0.53390   0.59332   0.00000  Uiso   1.00
C947   C     0.16364   0.50073   0.88445   0.00000  Uiso   1.00
C948   C     0.24672   0.50002   0.75005   0.00000  Uiso   1.00
C949   C     0.16970   0.49927   0.61555   0.00000  Uiso   1.00
C950   C     0.14264   0.53557   0.90776   0.00000  Uiso   1.00
C951   C     0.19070   0.46443   0.59224   0.00000  Uiso   1.00
C952   C     0.14382   0.53538   0.95449   0.00000  Uiso   1.00
C953   C     0.18952   0.46462   0.54551   0.00000  Uiso   1.00
C954   C     0.16579   0.50031   0.97673   0.00000  Uiso   1.00
C955   C     0.16756   0.49970   0.52327   0.00000  Uiso   1.00
C956   C     0.18598   0.46573   0.95253   0.00000  Uiso   1.00
C957   C     0.14737   0.53428   0.54746   0.00000  Uiso   1.00
C958   C     0.12350   0.56912   0.97958   0.00000  Uiso   1.00
C959   C     0.12548   0.56862   0.52565   0.00000  Uiso   1.00
C960   C     0.20985   0.43089   0.52041   0.00000  Uiso   1.00
C961   C     0.11912   0.57124   0.88333   0.00000  Uiso   1.00
C962   C     0.08090   0.56076   0.86260   0.00000  Uiso   1.00
C963   C     0.05965   0.59389   0.83821   0.00000  Uiso   1.00
C964   C     0.07651   0.63747   0.83414   0.00000  Uiso   1.00
C965   C     0.11452   0.64812   0.85474   0.00000  Uiso   1.00
C966   C     0.13582   0.61515   0.87928   0.00000  Uiso   1.00
C967   C     0.21421   0.42875   0.61667   0.00000  Uiso   1.00
C968   C     0.19749   0.38485   0.62070   0.00000  Uiso   1.00
C969   C     0.21878   0.35187   0.64524   0.00000  Uiso   1.00
C970   C     0.20787   0.43139   0.97435   0.00000  Uiso   1.00
C971   C     0.25679   0.36250   0.66585   0.00000  Uiso   1.00
C972   C     0.27366   0.40608   0.66180   0.00000  Uiso   1.00
C973   C     0.25242   0.43922   0.63741   0.00000  Uiso   1.00
C974   C     0.02138   0.46109   0.76383   0.00000  Uiso   1.00
C975   C     0.31195   0.53891   0.73617   0.00000  Uiso   1.00
C976   C     0.31202   0.46117   0.76398   0.00000  Uiso   1.00
C977   C     0.02132   0.53883   0.73602   0.00000  Uiso   1.00
C978   C     0.29084   0.50005   0.75010   0.00000  Uiso   1.00
H979   H     0.20066   0.43983   0.88806   0.00000  Uiso   1.00
H980   H     0.03767   0.56890   0.72490   0.00000  Uiso   1.00
H981   H     0.21856   0.37593   0.79380   0.00000  Uiso   1.00
H982   H     0.11477   0.62407   0.70620   0.00000  Uiso   1.00
H983   H     0.11480   0.37525   0.70617   0.00000  Uiso   1.00
H984   H     0.21853   0.62475   0.79383   0.00000  Uiso   1.00
H985   H     0.06782   0.52694   0.86509   0.00000  Uiso   1.00
H986   H     0.03018   0.58573   0.82234   0.00000  Uiso   1.00
H987   H     0.06014   0.66297   0.81500   0.00000  Uiso   1.00
H988   H     0.12758   0.34851   0.85147   0.00000  Uiso   1.00
H989   H     0.16547   0.62358   0.89471   0.00000  Uiso   1.00
H990   H     0.13268   0.56017   0.61194   0.00000  Uiso   1.00
H991   H     0.16784   0.37643   0.60526   0.00000  Uiso   1.00
H992   H     0.20571   0.65148   0.64850   0.00000  Uiso   1.00
H993   H     0.27314   0.33699   0.68499   0.00000  Uiso   1.00
H994   H     0.30313   0.41423   0.67769   0.00000  Uiso   1.00
H995   H     0.26550   0.47303   0.63493   0.00000  Uiso   1.00
H996   H     0.10594   0.59613   0.96402   0.00000  Uiso   1.00
H997   H     0.22741   0.40388   0.53598   0.00000  Uiso   1.00
H998   H     0.10972   0.59508   0.54428   0.00000  Uiso   1.00
H999   H     0.22363   0.40493   0.95572   0.00000  Uiso   1.00
H1000  H     0.03778   0.43101   0.77493   0.00000  Uiso   1.00
H1001  H     0.29555   0.56899   0.72507   0.00000  Uiso   1.00
H1002  H     0.29567   0.43110   0.77509   0.00000  Uiso   1.00
N1003  N     0.16667   0.61907   0.75000   0.00000  Uiso   1.00
N1004  N     0.16667   0.38093   0.75000   0.00000  Uiso   1.00
O1005  O     0.10559   0.53821   0.74999   0.00000  Uiso   1.00
O1006  O     0.22774   0.46179   0.75000   0.00000  Uiso   1.00
O1007  O     0.22774   0.53821   0.75000   0.00000  Uiso   1.00
O1008  O     0.10559   0.46179   0.74999   0.00000  Uiso   1.00
O1009  O     0.16666   0.53823   0.68392   0.00000  Uiso   1.00
O1010  O     0.16667   0.46177   0.81607   0.00000  Uiso   1.00
O1011  O     0.16667   0.53823   0.81607   0.00000  Uiso   1.00
O1012  O     0.16666   0.46177   0.68392   0.00000  Uiso   1.00
Zn1013 Zn    0.16667   0.55104   0.75000   0.00000  Uiso   1.00
Zn1014 Zn    0.16667   0.44896   0.75000   0.00000  Uiso   1.00
C1015  C     0.41995   0.49998   0.74995   0.00000  Uiso   1.00
C1016  C     0.37582   0.49995   0.74990   0.00000  Uiso   1.00
C1017  C     0.52888   0.35753   0.77432   0.00000  Uiso   1.00
C1018  C     0.47112   0.64247   0.72568   0.00000  Uiso   1.00
C1019  C     0.47112   0.35715   0.72568   0.00000  Uiso   1.00
C1020  C     0.52888   0.64285   0.77432   0.00000  Uiso   1.00
C1021  C     0.50124   0.49979   0.66340   0.00000  Uiso   1.00
C1022  C     0.49876   0.50021   0.83660   0.00000  Uiso   1.00
C1023  C     0.51785   0.46611   0.90668   0.00000  Uiso   1.00
C1024  C     0.48216   0.53390   0.59332   0.00000  Uiso   1.00
C1025  C     0.49697   0.50073   0.88445   0.00000  Uiso   1.00
C1026  C     0.58005   0.50002   0.75005   0.00000  Uiso   1.00
C1027  C     0.50303   0.49927   0.61555   0.00000  Uiso   1.00
C1028  C     0.47597   0.53557   0.90776   0.00000  Uiso   1.00
C1029  C     0.52403   0.46443   0.59224   0.00000  Uiso   1.00
C1030  C     0.47716   0.53538   0.95449   0.00000  Uiso   1.00
C1031  C     0.52286   0.46462   0.54551   0.00000  Uiso   1.00
C1032  C     0.49913   0.50031   0.97673   0.00000  Uiso   1.00
C1033  C     0.50089   0.49970   0.52327   0.00000  Uiso   1.00
C1034  C     0.51931   0.46573   0.95253   0.00000  Uiso   1.00
C1035  C     0.48070   0.53428   0.54746   0.00000  Uiso   1.00
C1036  C     0.45683   0.56912   0.97958   0.00000  Uiso   1.00
C1037  C     0.45881   0.56862   0.52565   0.00000  Uiso   1.00
C1038  C     0.54318   0.43089   0.52041   0.00000  Uiso   1.00
C1039  C     0.45245   0.57124   0.88333   0.00000  Uiso   1.00
C1040  C     0.41424   0.56076   0.86260   0.00000  Uiso   1.00
C1041  C     0.39298   0.59389   0.83821   0.00000  Uiso   1.00
C1042  C     0.40984   0.63747   0.83414   0.00000  Uiso   1.00
C1043  C     0.44785   0.64812   0.85474   0.00000  Uiso   1.00
C1044  C     0.46916   0.61515   0.87928   0.00000  Uiso   1.00
C1045  C     0.54754   0.42875   0.61667   0.00000  Uiso   1.00
C1046  C     0.53082   0.38485   0.62070   0.00000  Uiso   1.00
C1047  C     0.55212   0.35187   0.64524   0.00000  Uiso   1.00
C1048  C     0.54120   0.43139   0.97435   0.00000  Uiso   1.00
C1049  C     0.59012   0.36250   0.66585   0.00000  Uiso   1.00
C1050  C     0.60699   0.40608   0.66180   0.00000  Uiso   1.00
C1051  C     0.58575   0.43922   0.63741   0.00000  Uiso   1.00
C1052  C     0.35472   0.46109   0.76383   0.00000  Uiso   1.00
C1053  C     0.64528   0.53891   0.73617   0.00000  Uiso   1.00
C1054  C     0.64535   0.46117   0.76398   0.00000  Uiso   1.00
C1055  C     0.35465   0.53883   0.73602   0.00000  Uiso   1.00
C1056  C     0.62418   0.50005   0.75010   0.00000  Uiso   1.00
H1057  H     0.53400   0.43983   0.88806   0.00000  Uiso   1.00
H1058  H     0.37100   0.56890   0.72490   0.00000  Uiso   1.00
H1059  H     0.55190   0.37593   0.79380   0.00000  Uiso   1.00
H1060  H     0.44810   0.62407   0.70620   0.00000  Uiso   1.00
H1061  H     0.44813   0.37525   0.70617   0.00000  Uiso   1.00
H1062  H     0.55187   0.62475   0.79383   0.00000  Uiso   1.00
H1063  H     0.40116   0.52694   0.86509   0.00000  Uiso   1.00
H1064  H     0.36351   0.58573   0.82234   0.00000  Uiso   1.00
H1065  H     0.39348   0.66297   0.81500   0.00000  Uiso   1.00
H1066  H     0.46092   0.34851   0.85147   0.00000  Uiso   1.00
H1067  H     0.49881   0.62358   0.89471   0.00000  Uiso   1.00
H1068  H     0.46602   0.56017   0.61194   0.00000  Uiso   1.00
H1069  H     0.50118   0.37643   0.60526   0.00000  Uiso   1.00
H1070  H     0.53904   0.65148   0.64850   0.00000  Uiso   1.00
H1071  H     0.60648   0.33699   0.68499   0.00000  Uiso   1.00
H1072  H     0.63646   0.41423   0.67769   0.00000  Uiso   1.00
H1073  H     0.59884   0.47303   0.63493   0.00000  Uiso   1.00
H1074  H     0.43927   0.59613   0.96402   0.00000  Uiso   1.00
H1075  H     0.56074   0.40388   0.53598   0.00000  Uiso   1.00
H1076  H     0.44305   0.59508   0.54428   0.00000  Uiso   1.00
H1077  H     0.55696   0.40493   0.95572   0.00000  Uiso   1.00
H1078  H     0.37111   0.43101   0.77493   0.00000  Uiso   1.00
H1079  H     0.62889   0.56899   0.72507   0.00000  Uiso   1.00
H1080  H     0.62900   0.43110   0.77509   0.00000  Uiso   1.00
N1081  N     0.50000   0.61907   0.75000   0.00000  Uiso   1.00
N1082  N     0.50000   0.38093   0.75000   0.00000  Uiso   1.00
O1083  O     0.43892   0.53821   0.74999   0.00000  Uiso   1.00
O1084  O     0.56108   0.46179   0.75000   0.00000  Uiso   1.00
O1085  O     0.56108   0.53821   0.75000   0.00000  Uiso   1.00
O1086  O     0.43892   0.46179   0.74999   0.00000  Uiso   1.00
O1087  O     0.49999   0.53823   0.68392   0.00000  Uiso   1.00
O1088  O     0.50001   0.46177   0.81607   0.00000  Uiso   1.00
O1089  O     0.50001   0.53823   0.81607   0.00000  Uiso   1.00
O1090  O     0.49999   0.46177   0.68392   0.00000  Uiso   1.00
Zn1091 Zn    0.50000   0.55104   0.75000   0.00000  Uiso   1.00
Zn1092 Zn    0.50000   0.44896   0.75000   0.00000  Uiso   1.00
C1093  C     0.75328   0.49998   0.74995   0.00000  Uiso   1.00
C1094  C     0.70916   0.49995   0.74990   0.00000  Uiso   1.00
C1095  C     0.86221   0.35753   0.77432   0.00000  Uiso   1.00
C1096  C     0.80446   0.64247   0.72568   0.00000  Uiso   1.00
C1097  C     0.80446   0.35715   0.72568   0.00000  Uiso   1.00
C1098  C     0.86221   0.64285   0.77432   0.00000  Uiso   1.00
C1099  C     0.83457   0.49979   0.66340   0.00000  Uiso   1.00
C1100  C     0.83210   0.50021   0.83660   0.00000  Uiso   1.00
C1101  C     0.85119   0.46611   0.90668   0.00000  Uiso   1.00
C1102  C     0.81549   0.53390   0.59332   0.00000  Uiso   1.00
C1103  C     0.83031   0.50073   0.88445   0.00000  Uiso   1.00
C1104  C     0.91339   0.50002   0.75005   0.00000  Uiso   1.00
C1105  C     0.83636   0.49927   0.61555   0.00000  Uiso   1.00
C1106  C     0.80931   0.53557   0.90776   0.00000  Uiso   1.00
C1107  C     0.85737   0.46443   0.59224   0.00000  Uiso   1.00
C1108  C     0.81049   0.53538   0.95449   0.00000  Uiso   1.00
C1109  C     0.85619   0.46462   0.54551   0.00000  Uiso   1.00
C1110  C     0.83246   0.50031   0.97673   0.00000  Uiso   1.00
C1111  C     0.83422   0.49970   0.52327   0.00000  Uiso   1.00
C1112  C     0.85265   0.46573   0.95253   0.00000  Uiso   1.00
C1113  C     0.81403   0.53428   0.54746   0.00000  Uiso   1.00
C1114  C     0.79016   0.56912   0.97958   0.00000  Uiso   1.00
C1115  C     0.79215   0.56862   0.52565   0.00000  Uiso   1.00
C1116  C     0.87652   0.43089   0.52041   0.00000  Uiso   1.00
C1117  C     0.78578   0.57124   0.88333   0.00000  Uiso   1.00
C1118  C     0.74757   0.56076   0.86260   0.00000  Uiso   1.00
C1119  C     0.72631   0.59389   0.83821   0.00000  Uiso   1.00
C1120  C     0.74317   0.63747   0.83414   0.00000  Uiso   1.00
C1121  C     0.78118   0.64812   0.85474   0.00000  Uiso   1.00
C1122  C     0.80249   0.61515   0.87928   0.00000  Uiso   1.00
C1123  C     0.88088   0.42875   0.61667   0.00000  Uiso   1.00
C1124  C     0.86416   0.38485   0.62070   0.00000  Uiso   1.00
C1125  C     0.88545   0.35187   0.64524   0.00000  Uiso   1.00
C1126  C     0.87454   0.43139   0.97435   0.00000  Uiso   1.00
C1127  C     0.92346   0.36250   0.66585   0.00000  Uiso   1.00
C1128  C     0.94033   0.40608   0.66180   0.00000  Uiso   1.00
C1129  C     0.91908   0.43922   0.63741   0.00000  Uiso   1.00
C1130  C     0.68805   0.46109   0.76383   0.00000  Uiso   1.00
C1131  C     0.97862   0.53891   0.73617   0.00000  Uiso   1.00
C1132  C     0.97868   0.46117   0.76398   0.00000  Uiso   1.00
C1133  C     0.68798   0.53883   0.73602   0.00000  Uiso   1.00
C1134  C     0.95751   0.50005   0.75010   0.00000  Uiso   1.00
H1135  H     0.86733   0.43983   0.88806   0.00000  Uiso   1.00
H1136  H     0.70433   0.56890   0.72490   0.00000  Uiso   1.00
H1137  H     0.88523   0.37593   0.79380   0.00000  Uiso   1.00
H1138  H     0.78144   0.62407   0.70620   0.00000  Uiso   1.00
H1139  H     0.78147   0.37525   0.70617   0.00000  Uiso   1.00
H1140  H     0.88520   0.62475   0.79383   0.00000  Uiso   1.00
H1141  H     0.73449   0.52694   0.86509   0.00000  Uiso   1.00
H1142  H     0.69684   0.58573   0.82234   0.00000  Uiso   1.00
H1143  H     0.72681   0.66297   0.81500   0.00000  Uiso   1.00
H1144  H     0.79425   0.34851   0.85147   0.00000  Uiso   1.00
H1145  H     0.83214   0.62358   0.89471   0.00000  Uiso   1.00
H1146  H     0.79935   0.56017   0.61194   0.00000  Uiso   1.00
H1147  H     0.83451   0.37643   0.60526   0.00000  Uiso   1.00
H1148  H     0.87238   0.65148   0.64850   0.00000  Uiso   1.00
H1149  H     0.93981   0.33699   0.68499   0.00000  Uiso   1.00
H1150  H     0.96979   0.41423   0.67769   0.00000  Uiso   1.00
H1151  H     0.93217   0.47303   0.63493   0.00000  Uiso   1.00
H1152  H     0.77261   0.59613   0.96402   0.00000  Uiso   1.00
H1153  H     0.89407   0.40388   0.53598   0.00000  Uiso   1.00
H1154  H     0.77639   0.59508   0.54428   0.00000  Uiso   1.00
H1155  H     0.89030   0.40493   0.95572   0.00000  Uiso   1.00
H1156  H     0.70445   0.43101   0.77493   0.00000  Uiso   1.00
H1157  H     0.96222   0.56899   0.72507   0.00000  Uiso   1.00
H1158  H     0.96233   0.43110   0.77509   0.00000  Uiso   1.00
N1159  N     0.83333   0.61907   0.75000   0.00000  Uiso   1.00
N1160  N     0.83333   0.38093   0.75000   0.00000  Uiso   1.00
O1161  O     0.77226   0.53821   0.74999   0.00000  Uiso   1.00
O1162  O     0.89441   0.46179   0.75000   0.00000  Uiso   1.00
O1163  O     0.89441   0.53821   0.75000   0.00000  Uiso   1.00
O1164  O     0.77226   0.46179   0.74999   0.00000  Uiso   1.00
O1165  O     0.83333   0.53823   0.68392   0.00000  Uiso   1.00
O1166  O     0.83334   0.46177   0.81607   0.00000  Uiso   1.00
O1167  O     0.83334   0.53823   0.81607   0.00000  Uiso   1.00
O1168  O     0.83333   0.46177   0.68392   0.00000  Uiso   1.00
Zn1169 Zn    0.83333   0.55104   0.75000   0.00000  Uiso   1.00
Zn1170 Zn    0.83333   0.44896   0.75000   0.00000  Uiso   1.00
C1171  C     0.08661   0.83331   0.74995   0.00000  Uiso   1.00
C1172  C     0.04249   0.83328   0.74990   0.00000  Uiso   1.00
C1173  C     0.19554   0.69087   0.77432   0.00000  Uiso   1.00
C1174  C     0.13779   0.97580   0.72568   0.00000  Uiso   1.00
C1175  C     0.13779   0.69049   0.72568   0.00000  Uiso   1.00
C1176  C     0.19554   0.97618   0.77432   0.00000  Uiso   1.00
C1177  C     0.16791   0.83312   0.66340   0.00000  Uiso   1.00
C1178  C     0.16543   0.83354   0.83660   0.00000  Uiso   1.00
C1179  C     0.18452   0.79944   0.90668   0.00000  Uiso   1.00
C1180  C     0.14882   0.86723   0.59332   0.00000  Uiso   1.00
C1181  C     0.16364   0.83406   0.88445   0.00000  Uiso   1.00
C1182  C     0.24672   0.83336   0.75005   0.00000  Uiso   1.00
C1183  C     0.16970   0.83261   0.61555   0.00000  Uiso   1.00
C1184  C     0.14264   0.86891   0.90776   0.00000  Uiso   1.00
C1185  C     0.19070   0.79776   0.59224   0.00000  Uiso   1.00
C1186  C     0.14382   0.86872   0.95449   0.00000  Uiso   1.00
C1187  C     0.18952   0.79796   0.54551   0.00000  Uiso   1.00
C1188  C     0.16579   0.83364   0.97673   0.00000  Uiso   1.00
C1189  C     0.16756   0.83303   0.52327   0.00000  Uiso   1.00
C1190  C     0.18598   0.79907   0.95253   0.00000  Uiso   1.00
C1191  C     0.14737   0.86761   0.54746   0.00000  Uiso   1.00
C1192  C     0.12350   0.90245   0.97958   0.00000  Uiso   1.00
C1193  C     0.12548   0.90195   0.52565   0.00000  Uiso   1.00
C1194  C     0.20985   0.76422   0.52041   0.00000  Uiso   1.00
C1195  C     0.11912   0.90457   0.88333   0.00000  Uiso   1.00
C1196  C     0.08090   0.89409   0.86260   0.00000  Uiso   1.00
C1197  C     0.05965   0.92722   0.83821   0.00000  Uiso   1.00
C1198  C     0.07651   0.97080   0.83414   0.00000  Uiso   1.00
C1199  C     0.11452   0.98145   0.85474   0.00000  Uiso   1.00
C1200  C     0.13582   0.94848   0.87928   0.00000  Uiso   1.00
C1201  C     0.21421   0.76209   0.61667   0.00000  Uiso   1.00
C1202  C     0.19749   0.71818   0.62070   0.00000  Uiso   1.00
C1203  C     0.21878   0.68520   0.64524   0.00000  Uiso   1.00
C1204  C     0.20787   0.76473   0.97435   0.00000  Uiso   1.00
C1205  C     0.25679   0.69584   0.66585   0.00000  Uiso   1.00
C1206  C     0.27366   0.73941   0.66180   0.00000  Uiso   1.00
C1207  C     0.25242   0.77255   0.63741   0.00000  Uiso   1.00
C1208  C     0.02138   0.79443   0.76383   0.00000  Uiso   1.00
C1209  C     0.31195   0.87224   0.73617   0.00000  Uiso   1.00
C1210  C     0.31202   0.79450   0.76398   0.00000  Uiso   1.00
C1211  C     0.02132   0.87217   0.73602   0.00000  Uiso   1.00
C1212  C     0.29084   0.83339   0.75010   0.00000  Uiso   1.00
H1213  H     0.20066   0.77317   0.88806   0.00000  Uiso   1.00
H1214  H     0.03767   0.90224   0.72490   0.00000  Uiso   1.00
H1215  H     0.21856   0.70927   0.79380   0.00000  Uiso   1.00
H1216  H     0.11477   0.95740   0.70620   0.00000  Uiso   1.00
H1217  H     0.11480   0.70858   0.70617   0.00000  Uiso   1.00
H1218  H     0.21853   0.95808   0.79383   0.00000  Uiso   1.00
H1219  H     0.06782   0.86028   0.86509   0.00000  Uiso   1.00
H1220  H     0.03018   0.91907   0.82234   0.00000  Uiso   1.00
H1221  H     0.06014   0.99631   0.81500   0.00000  Uiso   1.00
H1222  H     0.12758   0.68184   0.85147   0.00000  Uiso   1.00
H1223  H     0.16547   0.95691   0.89471   0.00000  Uiso   1.00
H1224  H     0.13268   0.89351   0.61194   0.00000  Uiso   1.00
H1225  H     0.16784   0.70976   0.60526   0.00000  Uiso   1.00
H1226  H     0.20571   0.98481   0.64850   0.00000  Uiso   1.00
H1227  H     0.27314   0.67032   0.68499   0.00000  Uiso   1.00
H1228  H     0.30313   0.74756   0.67769   0.00000  Uiso   1.00
H1229  H     0.26550   0.80637   0.63493   0.00000  Uiso   1.00
H1230  H     0.10594   0.92946   0.96402   0.00000  Uiso   1.00
H1231  H     0.22741   0.73721   0.53598   0.00000  Uiso   1.00
H1232  H     0.10972   0.92841   0.54428   0.00000  Uiso   1.00
H1233  H     0.22363   0.73826   0.95572   0.00000  Uiso   1.00
H1234  H     0.03778   0.76435   0.77493   0.00000  Uiso   1.00
H1235  H     0.29555   0.90232   0.72507   0.00000  Uiso   1.00
H1236  H     0.29567   0.76443   0.77509   0.00000  Uiso   1.00
N1237  N     0.16667   0.95240   0.75000   0.00000  Uiso   1.00
N1238  N     0.16667   0.71427   0.75000   0.00000  Uiso   1.00
O1239  O     0.10559   0.87154   0.74999   0.00000  Uiso   1.00
O1240  O     0.22774   0.79513   0.75000   0.00000  Uiso   1.00
O1241  O     0.22774   0.87154   0.75000   0.00000  Uiso   1.00
O1242  O     0.10559   0.79513   0.74999   0.00000  Uiso   1.00
O1243  O     0.16666   0.87156   0.68392   0.00000  Uiso   1.00
O1244  O     0.16667   0.79511   0.81607   0.00000  Uiso   1.00
O1245  O     0.16667   0.87156   0.81607   0.00000  Uiso   1.00
O1246  O     0.16666   0.79511   0.68392   0.00000  Uiso   1.00
Zn1247 Zn    0.16667   0.88437   0.75000   0.00000  Uiso   1.00
Zn1248 Zn    0.16667   0.78229   0.75000   0.00000  Uiso   1.00
C1249  C     0.41995   0.83331   0.74995   0.00000  Uiso   1.00
C1250  C     0.37582   0.83328   0.74990   0.00000  Uiso   1.00
C1251  C     0.52888   0.69087   0.77432   0.00000  Uiso   1.00
C1252  C     0.47112   0.97580   0.72568   0.00000  Uiso   1.00
C1253  C     0.47112   0.69049   0.72568   0.00000  Uiso   1.00
C1254  C     0.52888   0.97618   0.77432   0.00000  Uiso   1.00
C1255  C     0.50124   0.83312   0.66340   0.00000  Uiso   1.00
C1256  C     0.49876   0.83354   0.83660   0.00000  Uiso   1.00
C1257  C     0.51785   0.79944   0.90668   0.00000  Uiso   1.00
C1258  C     0.48216   0.86723   0.59332   0.00000  Uiso   1.00
C1259  C     0.49697   0.83406   0.88445   0.00000  Uiso   1.00
C1260  C     0.58005   0.83336   0.75005   0.00000  Uiso   1.00
C1261  C     0.50303   0.83261   0.61555   0.00000  Uiso   1.00
C1262  C     0.47597   0.86891   0.90776   0.00000  Uiso   1.00
C1263  C     0.52403   0.79776   0.59224   0.00000  Uiso   1.00
C1264  C     0.47716   0.86872   0.95449   0.00000  Uiso   1.00
C1265  C     0.52286   0.79796   0.54551   0.00000  Uiso   1.00
C1266  C     0.49913   0.83364   0.97673   0.00000  Uiso   1.00
C1267  C     0.50089   0.83303   0.52327   0.00000  Uiso   1.00
C1268  C     0.51931   0.79907   0.95253   0.00000  Uiso   1.00
C1269  C     0.48070   0.86761   0.54746   0.00000  Uiso   1.00
C1270  C     0.45683   0.90245   0.97958   0.00000  Uiso   1.00
C1271  C     0.45881   0.90195   0.52565   0.00000  Uiso   1.00
C1272  C     0.54318   0.76422   0.52041   0.00000  Uiso   1.00
C1273  C     0.45245   0.90457   0.88333   0.00000  Uiso   1.00
C1274  C     0.41424   0.89409   0.86260   0.00000  Uiso   1.00
C1275  C     0.39298   0.92722   0.83821   0.00000  Uiso   1.00
C1276  C     0.40984   0.97080   0.83414   0.00000  Uiso   1.00
C1277  C     0.44785   0.98145   0.85474   0.00000  Uiso   1.00
C1278  C     0.46916   0.94848   0.87928   0.00000  Uiso   1.00
C1279  C     0.54754   0.76209   0.61667   0.00000  Uiso   1.00
C1280  C     0.53082   0.71818   0.62070   0.00000  Uiso   1.00
C1281  C     0.55212   0.68520   0.64524   0.00000  Uiso   1.00
C1282  C     0.54120   0.76473   0.97435   0.00000  Uiso   1.00
C1283  C     0.59012   0.69584   0.66585   0.00000  Uiso   1.00
C1284  C     0.60699   0.73941   0.66180   0.00000  Uiso   1.00
C1285  C     0.58575   0.77255   0.63741   0.00000  Uiso   1.00
C1286  C     0.35472   0.79443   0.76383   0.00000  Uiso   1.00
C1287  C     0.64528   0.87224   0.73617   0.00000  Uiso   1.00
C1288  C     0.64535   0.79450   0.76398   0.00000  Uiso   1.00
C1289  C     0.35465   0.87217   0.73602   0.00000  Uiso   1.00
C1290  C     0.62418   0.83339   0.75010   0.00000  Uiso   1.00
H1291  H     0.53400   0.77317   0.88806   0.00000  Uiso   1.00
H1292  H     0.37100   0.90224   0.72490   0.00000  Uiso   1.00
H1293  H     0.55190   0.70927   0.79380   0.00000  Uiso   1.00
H1294  H     0.44810   0.95740   0.70620   0.00000  Uiso   1.00
H1295  H     0.44813   0.70858   0.70617   0.00000  Uiso   1.00
H1296  H     0.55187   0.95808   0.79383   0.00000  Uiso   1.00
H1297  H     0.40116   0.86028   0.86509   0.00000  Uiso   1.00
H1298  H     0.36351   0.91907   0.82234   0.00000  Uiso   1.00
H1299  H     0.39348   0.99631   0.81500   0.00000  Uiso   1.00
H1300  H     0.46092   0.68184   0.85147   0.00000  Uiso   1.00
H1301  H     0.49881   0.95691   0.89471   0.00000  Uiso   1.00
H1302  H     0.46602   0.89351   0.61194   0.00000  Uiso   1.00
H1303  H     0.50118   0.70976   0.60526   0.00000  Uiso   1.00
H1304  H     0.53904   0.98481   0.64850   0.00000  Uiso   1.00
H1305  H     0.60648   0.67032   0.68499   0.00000  Uiso   1.00
H1306  H     0.63646   0.74756   0.67769   0.00000  Uiso   1.00
H1307  H     0.59884   0.80637   0.63493   0.00000  Uiso   1.00
H1308  H     0.43927   0.92946   0.96402   0.00000  Uiso   1.00
H1309  H     0.56074   0.73721   0.53598   0.00000  Uiso   1.00
H1310  H     0.44305   0.92841   0.54428   0.00000  Uiso   1.00
H1311  H     0.55696   0.73826   0.95572   0.00000  Uiso   1.00
H1312  H     0.37111   0.76435   0.77493   0.00000  Uiso   1.00
H1313  H     0.62889   0.90232   0.72507   0.00000  Uiso   1.00
H1314  H     0.62900   0.76443   0.77509   0.00000  Uiso   1.00
N1315  N     0.50000   0.95240   0.75000   0.00000  Uiso   1.00
N1316  N     0.50000   0.71427   0.75000   0.00000  Uiso   1.00
O1317  O     0.43892   0.87154   0.74999   0.00000  Uiso   1.00
O1318  O     0.56108   0.79513   0.75000   0.00000  Uiso   1.00
O1319  O     0.56108   0.87154   0.75000   0.00000  Uiso   1.00
O1320  O     0.43892   0.79513   0.74999   0.00000  Uiso   1.00
O1321  O     0.49999   0.87156   0.68392   0.00000  Uiso   1.00
O1322  O     0.50001   0.79511   0.81607   0.00000  Uiso   1.00
O1323  O     0.50001   0.87156   0.81607   0.00000  Uiso   1.00
O1324  O     0.49999   0.79511   0.68392   0.00000  Uiso   1.00
Zn1325 Zn    0.50000   0.88437   0.75000   0.00000  Uiso   1.00
Zn1326 Zn    0.50000   0.78229   0.75000   0.00000  Uiso   1.00
C1327  C     0.75328   0.83331   0.74995   0.00000  Uiso   1.00
C1328  C     0.70916   0.83328   0.74990   0.00000  Uiso   1.00
C1329  C     0.86221   0.69087   0.77432   0.00000  Uiso   1.00
C1330  C     0.80446   0.97580   0.72568   0.00000  Uiso   1.00
C1331  C     0.80446   0.69049   0.72568   0.00000  Uiso   1.00
C1332  C     0.86221   0.97618   0.77432   0.00000  Uiso   1.00
C1333  C     0.83457   0.83312   0.66340   0.00000  Uiso   1.00
C1334  C     0.83210   0.83354   0.83660   0.00000  Uiso   1.00
C1335  C     0.85119   0.79944   0.90668   0.00000  Uiso   1.00
C1336  C     0.81549   0.86723   0.59332   0.00000  Uiso   1.00
C1337  C     0.83031   0.83406   0.88445   0.00000  Uiso   1.00
C1338  C     0.91339   0.83336   0.75005   0.00000  Uiso   1.00
C1339  C     0.83636   0.83261   0.61555   0.00000  Uiso   1.00
C1340  C     0.80931   0.86891   0.90776   0.00000  Uiso   1.00
C1341  C     0.85737   0.79776   0.59224   0.00000  Uiso   1.00
C1342  C     0.81049   0.86872   0.95449   0.00000  Uiso   1.00
C1343  C     0.85619   0.79796   0.54551   0.00000  Uiso   1.00
C1344  C     0.83246   0.83364   0.97673   0.00000  Uiso   1.00
C1345  C     0.83422   0.83303   0.52327   0.00000  Uiso   1.00
C1346  C     0.85265   0.79907   0.95253   0.00000  Uiso   1.00
C1347  C     0.81403   0.86761   0.54746   0.00000  Uiso   1.00
C1348  C     0.79016   0.90245   0.97958   0.00000  Uiso   1.00
C1349  C     0.79215   0.90195   0.52565   0.00000  Uiso   1.00
C1350  C     0.87652   0.76422   0.52041   0.00000  Uiso   1.00
C1351  C     0.78578   0.90457   0.88333   0.00000  Uiso   1.00
C1352  C     0.74757   0.89409   0.86260   0.00000  Uiso   1.00
C1353  C     0.72631   0.92722   0.83821   0.00000  Uiso   1.00
C1354  C     0.74317   0.97080   0.83414   0.00000  Uiso   1.00
C1355  C     0.78118   0.98145   0.85474   0.00000  Uiso   1.00
C1356  C     0.80249   0.94848   0.87928   0.00000  Uiso   1.00
C1357  C     0.88088   0.76209   0.61667   0.00000  Uiso   1.00
C1358  C     0.86416   0.71818   0.62070   0.00000  Uiso   1.00
C1359  C     0.88545   0.68520   0.64524   0.00000  Uiso   1.00
C1360  C     0.87454   0.76473   0.97435   0.00000  Uiso   1.00
C1361  C     0.92346   0.69584   0.66585   0.00000  Uiso   1.00
C1362  C     0.94033   0.73941   0.66180   0.00000  Uiso   1.00
C1363  C     0.91908   0.77255   0.63741   0.00000  Uiso   1.00
C1364  C     0.68805   0.79443   0.76383   0.00000  Uiso   1.00
C1365  C     0.97862   0.87224   0.73617   0.00000  Uiso   1.00
C1366  C     0.97868   0.79450   0.76398   0.00000  Uiso   1.00
C1367  C     0.68798   0.87217   0.73602   0.00000  Uiso   1.00
C1368  C     0.95751   0.83339   0.75010   0.00000  Uiso   1.00
H1369  H     0.86733   0.77317   0.88806   0.00000  Uiso   1.00
H1370  H     0.70433   0.90224   0.72490   0.00000  Uiso   1.00
H1371  H     0.88523   0.70927   0.79380   0.00000  Uiso   1.00
H1372  H     0.78144   0.95740   0.70620   0.00000  Uiso   1.00
H1373  H     0.78147   0.70858   0.70617   0.00000  Uiso   1.00
H1374  H     0.88520   0.95808   0.79383   0.00000  Uiso   1.00
H1375  H     0.73449   0.86028   0.86509   0.00000  Uiso   1.00
H1376  H     0.69684   0.91907   0.82234   0.00000  Uiso   1.00
H1377  H     0.72681   0.99631   0.81500   0.00000  Uiso   1.00
H1378  H     0.79425   0.68184   0.85147   0.00000  Uiso   1.00
H1379  H     0.83214   0.95691   0.89471   0.00000  Uiso   1.00
H1380  H     0.79935   0.89351   0.61194   0.00000  Uiso   1.00
H1381  H     0.83451   0.70976   0.60526   0.00000  Uiso   1.00
H1382  H     0.87238   0.98481   0.64850   0.00000  Uiso   1.00
H1383  H     0.93981   0.67032   0.68499   0.00000  Uiso   1.00
H1384  H     0.96979   0.74756   0.67769   0.00000  Uiso   1.00
H1385  H     0.93217   0.80637   0.63493   0.00000  Uiso   1.00
H1386  H     0.77261   0.92946   0.96402   0.00000  Uiso   1.00
H1387  H     0.89407   0.73721   0.53598   0.00000  Uiso   1.00
H1388  H     0.77639   0.92841   0.54428   0.00000  Uiso   1.00
H1389  H     0.89030   0.73826   0.95572   0.00000  Uiso   1.00
H1390  H     0.70445   0.76435   0.77493   0.00000  Uiso   1.00
H1391  H     0.96222   0.90232   0.72507   0.00000  Uiso   1.00
H1392  H     0.96233   0.76443   0.77509   0.00000  Uiso   1.00
N1393  N     0.83333   0.95240   0.75000   0.00000  Uiso   1.00
N1394  N     0.83333   0.71427   0.75000   0.00000  Uiso   1.00
O1395  O     0.77226   0.87154   0.74999   0.00000  Uiso   1.00
O1396  O     0.89441   0.79513   0.75000   0.00000  Uiso   1.00
O1397  O     0.89441   0.87154   0.75000   0.00000  Uiso   1.00
O1398  O     0.77226   0.79513   0.74999   0.00000  Uiso   1.00
O1399  O     0.83333   0.87156   0.68392   0.00000  Uiso   1.00
O1400  O     0.83334   0.79511   0.81607   0.00000  Uiso   1.00
O1401  O     0.83334   0.87156   0.81607   0.00000  Uiso   1.00
O1402  O     0.83333   0.79511   0.68392   0.00000  Uiso   1.00
Zn1403 Zn    0.83333   0.88437   0.75000   0.00000  Uiso   1.00
Zn1404 Zn    0.83333   0.78229   0.75000   0.00000  Uiso   1.00
loop_
_geom_bond_atom_site_label_1
_geom_bond_atom_site_label_2
_geom_bond_distance
_geom_bond_site_symmetry_2
_ccdc_geom_bond_type
C1     C2      1.415   .     S
C1     O72     1.279   .     A
C1     O69     1.279   .     A
C2     C41     1.396   .     A
C2     C38     1.396   .     A
C3     N68     1.366   .     A
C3     H45     1.082   .     S
C3     C474    1.414   1_545 S
C4     H46     1.082   .     S
C4     N67     1.366   .     A
C4     C239    1.414   .     S
C5     H47     1.082   .     S
C5     N68     1.366   .     A
C5     C472    1.414   1_545 S
C6     H48     1.082   .     S
C6     N67     1.366   .     A
C6     C237    1.414   .     S
C7     O73     1.286   .     A
C7     O76     1.282   .     A
C7     C13     1.438   .     S
C8     O75     1.282   .     A
C8     O74     1.286   .     A
C8     C11     1.438   .     S
C9     H43     1.086   .     S
C9     C20     1.377   .     A
C9     C11     1.392   .     A
C10    C21     1.377   .     A
C10    C13     1.392   .     A
C10    H54     1.086   .     S
C11    C14     1.413   .     A
C12    C42     1.415   .     S
C12    O71     1.279   .     A
C12    O70     1.279   .     A
C13    C15     1.413   .     A
C14    C16     1.403   .     A
C14    C25     1.488   .     S
C15    C17     1.403   .     A
C15    C31     1.488   .     S
C16    C22     1.407   .     A
C16    C18     1.419   .     A
C17    C19     1.419   .     A
C17    C24     1.407   .     A
C18    C20     1.408   .     A
C18    C721    1.398   .     S
C19    C21     1.408   .     A
C19    C720    1.398   1_554 S
C20    C34     1.396   .     A
C21    C23     1.396   .     A
C22    H60     1.082   .     S
C22    C725    1.384   .     S
C23    H62     1.084   .     S
C23    C724    1.384   1_554 S
C24    H61     1.082   .     S
C24    C736    1.384   1_554 S
C25    C26     1.404   .     A
C25    C30     1.405   .     A
C26    C27     1.399   .     A
C26    H49     1.083   .     S
C27    H50     1.082   .     S
C27    C28     1.398   .     A
C28    H51     1.082   .     S
C28    C29     1.398   .     A
C29    C30     1.399   .     A
C29    H286    1.083   .     S
C30    H53     1.083   .     S
C31    C37     1.404   .     A
C31    C32     1.405   .     A
C32    H55     1.083   .     S
C32    C33     1.398   .     A
C33    C35     1.398   .     A
C33    H524    1.083   1_545 S
C34    H63     1.084   .     S
C34    C726    1.384   .     S
C35    C36     1.398   .     A
C35    H57     1.082   .     S
C36    C37     1.399   .     A
C36    H58     1.082   .     S
C37    H59     1.083   .     S
C38    H64     1.084   .     S
C38    C196    1.370   1_455 S
C39    H65     1.084   .     S
C39    C42     1.396   .     A
C39    C119    1.370   .     S
C40    C42     1.396   .     A
C40    H66     1.084   .     S
C40    C116    1.370   .     S
C41    H44     1.084   .     S
C41    C195    1.370   1_455 S
H52    C497    1.083   1_545 S
H56    C267    1.083   .     S
N67    Zn77    2.003   .     S
N68    Zn78    2.003   .     S
O69    Zn77    1.995   .     S
O70    Zn78    1.995   .     S
O71    Zn77    1.996   .     S
O72    Zn78    1.996   .     S
O73    Zn77    2.017   .     S
O74    Zn78    2.017   .     S
O75    Zn77    2.021   .     S
O76    Zn78    2.021   .     S
C79    C80     1.415   .     S
C79    O150    1.279   .     A
C79    O147    1.279   .     A
C80    C119    1.396   .     A
C80    C116    1.396   .     A
C81    N146    1.366   .     A
C81    H123    1.082   .     S
C81    C552    1.414   1_545 S
C82    H124    1.082   .     S
C82    N145    1.366   .     A
C82    C317    1.414   .     S
C83    H125    1.082   .     S
C83    N146    1.366   .     A
C83    C550    1.414   1_545 S
C84    H126    1.082   .     S
C84    N145    1.366   .     A
C84    C315    1.414   .     S
C85    O151    1.286   .     A
C85    O154    1.282   .     A
C85    C91     1.438   .     S
C86    O153    1.282   .     A
C86    O152    1.286   .     A
C86    C89     1.438   .     S
C87    H121    1.086   .     S
C87    C98     1.377   .     A
C87    C89     1.392   .     A
C88    C99     1.377   .     A
C88    C91     1.392   .     A
C88    H132    1.086   .     S
C89    C92     1.413   .     A
C90    C120    1.415   .     S
C90    O149    1.279   .     A
C90    O148    1.279   .     A
C91    C93     1.413   .     A
C92    C94     1.403   .     A
C92    C103    1.488   .     S
C93    C95     1.403   .     A
C93    C109    1.488   .     S
C94    C100    1.407   .     A
C94    C96     1.419   .     A
C95    C97     1.419   .     A
C95    C102    1.407   .     A
C96    C98     1.408   .     A
C96    C799    1.398   .     S
C97    C99     1.408   .     A
C97    C798    1.398   1_554 S
C98    C112    1.396   .     A
C99    C101    1.396   .     A
C100   H138    1.082   .     S
C100   C803    1.384   .     S
C101   H140    1.084   .     S
C101   C802    1.384   1_554 S
C102   H139    1.082   .     S
C102   C814    1.384   1_554 S
C103   C104    1.404   .     A
C103   C108    1.405   .     A
C104   C105    1.399   .     A
C104   H127    1.083   .     S
C105   H128    1.082   .     S
C105   C106    1.398   .     A
C106   H129    1.082   .     S
C106   C107    1.398   .     A
C107   C108    1.399   .     A
C107   H364    1.083   .     S
C108   H131    1.083   .     S
C109   C115    1.404   .     A
C109   C110    1.405   .     A
C110   H133    1.083   .     S
C110   C111    1.398   .     A
C111   C113    1.398   .     A
C111   H602    1.083   1_545 S
C112   H141    1.084   .     S
C112   C804    1.384   .     S
C113   C114    1.398   .     A
C113   H135    1.082   .     S
C114   C115    1.399   .     A
C114   H136    1.082   .     S
C115   H137    1.083   .     S
C116   H142    1.084   .     S
C117   H143    1.084   .     S
C117   C120    1.396   .     A
C117   C197    1.370   .     S
C118   C120    1.396   .     A
C118   H144    1.084   .     S
C118   C194    1.370   .     S
C119   H122    1.084   .     S
H130   C575    1.083   1_545 S
H134   C345    1.083   .     S
N145   Zn155   2.003   .     S
N146   Zn156   2.003   .     S
O147   Zn155   1.995   .     S
O148   Zn156   1.995   .     S
O149   Zn155   1.996   .     S
O150   Zn156   1.996   .     S
O151   Zn155   2.017   .     S
O152   Zn156   2.017   .     S
O153   Zn155   2.021   .     S
O154   Zn156   2.021   .     S
C157   C158    1.415   .     S
C157   O228    1.279   .     A
C157   O225    1.279   .     A
C158   C197    1.396   .     A
C158   C194    1.396   .     A
C159   N224    1.366   .     A
C159   H201    1.082   .     S
C159   C630    1.414   1_545 S
C160   H202    1.082   .     S
C160   N223    1.366   .     A
C160   C395    1.414   .     S
C161   H203    1.082   .     S
C161   N224    1.366   .     A
C161   C628    1.414   1_545 S
C162   H204    1.082   .     S
C162   N223    1.366   .     A
C162   C393    1.414   .     S
C163   O229    1.286   .     A
C163   O232    1.282   .     A
C163   C169    1.438   .     S
C164   O231    1.282   .     A
C164   O230    1.286   .     A
C164   C167    1.438   .     S
C165   H199    1.086   .     S
C165   C176    1.377   .     A
C165   C167    1.392   .     A
C166   C177    1.377   .     A
C166   C169    1.392   .     A
C166   H210    1.086   .     S
C167   C170    1.413   .     A
C168   C198    1.415   .     S
C168   O227    1.279   .     A
C168   O226    1.279   .     A
C169   C171    1.413   .     A
C170   C172    1.403   .     A
C170   C181    1.488   .     S
C171   C173    1.403   .     A
C171   C187    1.488   .     S
C172   C178    1.407   .     A
C172   C174    1.419   .     A
C173   C175    1.419   .     A
C173   C180    1.407   .     A
C174   C176    1.408   .     A
C174   C877    1.398   .     S
C175   C177    1.408   .     A
C175   C876    1.398   1_554 S
C176   C190    1.396   .     A
C177   C179    1.396   .     A
C178   H216    1.082   .     S
C178   C881    1.384   .     S
C179   H218    1.084   .     S
C179   C880    1.384   1_554 S
C180   H217    1.082   .     S
C180   C892    1.384   1_554 S
C181   C182    1.404   .     A
C181   C186    1.405   .     A
C182   C183    1.399   .     A
C182   H205    1.083   .     S
C183   H206    1.082   .     S
C183   C184    1.398   .     A
C184   H207    1.082   .     S
C184   C185    1.398   .     A
C185   C186    1.399   .     A
C185   H442    1.083   .     S
C186   H209    1.083   .     S
C187   C193    1.404   .     A
C187   C188    1.405   .     A
C188   H211    1.083   .     S
C188   C189    1.398   .     A
C189   C191    1.398   .     A
C189   H680    1.083   1_545 S
C190   H219    1.084   .     S
C190   C882    1.384   .     S
C191   C192    1.398   .     A
C191   H213    1.082   .     S
C192   C193    1.399   .     A
C192   H214    1.082   .     S
C193   H215    1.083   .     S
C194   H220    1.084   .     S
C195   H221    1.084   .     S
C195   C198    1.396   .     A
C195   C41     1.370   1_655 S
C196   C198    1.396   .     A
C196   H222    1.084   .     S
C196   C38     1.370   1_655 S
C197   H200    1.084   .     S
H208   C653    1.083   1_545 S
H212   C423    1.083   .     S
N223   Zn233   2.003   .     S
N224   Zn234   2.003   .     S
O225   Zn233   1.995   .     S
O226   Zn234   1.995   .     S
O227   Zn233   1.996   .     S
O228   Zn234   1.996   .     S
O229   Zn233   2.017   .     S
O230   Zn234   2.017   .     S
O231   Zn233   2.021   .     S
O232   Zn234   2.021   .     S
C235   C236    1.415   .     S
C235   O306    1.279   .     A
C235   O303    1.279   .     A
C236   C275    1.396   .     A
C236   C272    1.396   .     A
C237   N302    1.366   .     A
C237   H279    1.082   .     S
C238   H280    1.082   .     S
C238   N301    1.366   .     A
C238   C473    1.414   .     S
C239   H281    1.082   .     S
C239   N302    1.366   .     A
C240   H282    1.082   .     S
C240   N301    1.366   .     A
C240   C471    1.414   .     S
C241   O307    1.286   .     A
C241   O310    1.282   .     A
C241   C247    1.438   .     S
C242   O309    1.282   .     A
C242   O308    1.286   .     A
C242   C245    1.438   .     S
C243   H277    1.086   .     S
C243   C254    1.377   .     A
C243   C245    1.392   .     A
C244   C255    1.377   .     A
C244   C247    1.392   .     A
C244   H288    1.086   .     S
C245   C248    1.413   .     A
C246   C276    1.415   .     S
C246   O305    1.279   .     A
C246   O304    1.279   .     A
C247   C249    1.413   .     A
C248   C250    1.403   .     A
C248   C259    1.488   .     S
C249   C251    1.403   .     A
C249   C265    1.488   .     S
C250   C256    1.407   .     A
C250   C252    1.419   .     A
C251   C253    1.419   .     A
C251   C258    1.407   .     A
C252   C254    1.408   .     A
C252   C955    1.398   .     S
C253   C255    1.408   .     A
C253   C954    1.398   1_554 S
C254   C268    1.396   .     A
C255   C257    1.396   .     A
C256   H294    1.082   .     S
C256   C959    1.384   .     S
C257   H296    1.084   .     S
C257   C958    1.384   1_554 S
C258   H295    1.082   .     S
C258   C970    1.384   1_554 S
C259   C260    1.404   .     A
C259   C264    1.405   .     A
C260   C261    1.399   .     A
C260   H283    1.083   .     S
C261   H284    1.082   .     S
C261   C262    1.398   .     A
C262   H285    1.082   .     S
C262   C263    1.398   .     A
C263   C264    1.399   .     A
C263   H520    1.083   .     S
C264   H287    1.083   .     S
C265   C271    1.404   .     A
C265   C266    1.405   .     A
C266   H289    1.083   .     S
C266   C267    1.398   .     A
C267   C269    1.398   .     A
C268   H297    1.084   .     S
C268   C960    1.384   .     S
C269   C270    1.398   .     A
C269   H291    1.082   .     S
C270   C271    1.399   .     A
C270   H292    1.082   .     S
C271   H293    1.083   .     S
C272   H298    1.084   .     S
C272   C430    1.370   1_455 S
C273   H299    1.084   .     S
C273   C276    1.396   .     A
C273   C353    1.370   .     S
C274   C276    1.396   .     A
C274   H300    1.084   .     S
C274   C350    1.370   .     S
C275   H278    1.084   .     S
C275   C429    1.370   1_455 S
H290   C501    1.083   .     S
N301   Zn311   2.003   .     S
N302   Zn312   2.003   .     S
O303   Zn311   1.995   .     S
O304   Zn312   1.995   .     S
O305   Zn311   1.996   .     S
O306   Zn312   1.996   .     S
O307   Zn311   2.017   .     S
O308   Zn312   2.017   .     S
O309   Zn311   2.021   .     S
O310   Zn312   2.021   .     S
C313   C314    1.415   .     S
C313   O384    1.279   .     A
C313   O381    1.279   .     A
C314   C353    1.396   .     A
C314   C350    1.396   .     A
C315   N380    1.366   .     A
C315   H357    1.082   .     S
C316   H358    1.082   .     S
C316   N379    1.366   .     A
C316   C551    1.414   .     S
C317   H359    1.082   .     S
C317   N380    1.366   .     A
C318   H360    1.082   .     S
C318   N379    1.366   .     A
C318   C549    1.414   .     S
C319   O385    1.286   .     A
C319   O388    1.282   .     A
C319   C325    1.438   .     S
C320   O387    1.282   .     A
C320   O386    1.286   .     A
C320   C323    1.438   .     S
C321   H355    1.086   .     S
C321   C332    1.377   .     A
C321   C323    1.392   .     A
C322   C333    1.377   .     A
C322   C325    1.392   .     A
C322   H366    1.086   .     S
C323   C326    1.413   .     A
C324   C354    1.415   .     S
C324   O383    1.279   .     A
C324   O382    1.279   .     A
C325   C327    1.413   .     A
C326   C328    1.403   .     A
C326   C337    1.488   .     S
C327   C329    1.403   .     A
C327   C343    1.488   .     S
C328   C334    1.407   .     A
C328   C330    1.419   .     A
C329   C331    1.419   .     A
C329   C336    1.407   .     A
C330   C332    1.408   .     A
C330   C1033   1.398   .     S
C331   C333    1.408   .     A
C331   C1032   1.398   1_554 S
C332   C346    1.396   .     A
C333   C335    1.396   .     A
C334   H372    1.082   .     S
C334   C1037   1.384   .     S
C335   H374    1.084   .     S
C335   C1036   1.384   1_554 S
C336   H373    1.082   .     S
C336   C1048   1.384   1_554 S
C337   C338    1.404   .     A
C337   C342    1.405   .     A
C338   C339    1.399   .     A
C338   H361    1.083   .     S
C339   H362    1.082   .     S
C339   C340    1.398   .     A
C340   H363    1.082   .     S
C340   C341    1.398   .     A
C341   C342    1.399   .     A
C341   H598    1.083   .     S
C342   H365    1.083   .     S
C343   C349    1.404   .     A
C343   C344    1.405   .     A
C344   H367    1.083   .     S
C344   C345    1.398   .     A
C345   C347    1.398   .     A
C346   H375    1.084   .     S
C346   C1038   1.384   .     S
C347   C348    1.398   .     A
C347   H369    1.082   .     S
C348   C349    1.399   .     A
C348   H370    1.082   .     S
C349   H371    1.083   .     S
C350   H376    1.084   .     S
C351   H377    1.084   .     S
C351   C354    1.396   .     A
C351   C431    1.370   .     S
C352   C354    1.396   .     A
C352   H378    1.084   .     S
C352   C428    1.370   .     S
C353   H356    1.084   .     S
H368   C579    1.083   .     S
N379   Zn389   2.003   .     S
N380   Zn390   2.003   .     S
O381   Zn389   1.995   .     S
O382   Zn390   1.995   .     S
O383   Zn389   1.996   .     S
O384   Zn390   1.996   .     S
O385   Zn389   2.017   .     S
O386   Zn390   2.017   .     S
O387   Zn389   2.021   .     S
O388   Zn390   2.021   .     S
C391   C392    1.415   .     S
C391   O462    1.279   .     A
C391   O459    1.279   .     A
C392   C431    1.396   .     A
C392   C428    1.396   .     A
C393   N458    1.366   .     A
C393   H435    1.082   .     S
C394   H436    1.082   .     S
C394   N457    1.366   .     A
C394   C629    1.414   .     S
C395   H437    1.082   .     S
C395   N458    1.366   .     A
C396   H438    1.082   .     S
C396   N457    1.366   .     A
C396   C627    1.414   .     S
C397   O463    1.286   .     A
C397   O466    1.282   .     A
C397   C403    1.438   .     S
C398   O465    1.282   .     A
C398   O464    1.286   .     A
C398   C401    1.438   .     S
C399   H433    1.086   .     S
C399   C410    1.377   .     A
C399   C401    1.392   .     A
C400   C411    1.377   .     A
C400   C403    1.392   .     A
C400   H444    1.086   .     S
C401   C404    1.413   .     A
C402   C432    1.415   .     S
C402   O461    1.279   .     A
C402   O460    1.279   .     A
C403   C405    1.413   .     A
C404   C406    1.403   .     A
C404   C415    1.488   .     S
C405   C407    1.403   .     A
C405   C421    1.488   .     S
C406   C412    1.407   .     A
C406   C408    1.419   .     A
C407   C409    1.419   .     A
C407   C414    1.407   .     A
C408   C410    1.408   .     A
C408   C1111   1.398   .     S
C409   C411    1.408   .     A
C409   C1110   1.398   1_554 S
C410   C424    1.396   .     A
C411   C413    1.396   .     A
C412   H450    1.082   .     S
C412   C1115   1.384   .     S
C413   H452    1.084   .     S
C413   C1114   1.384   1_554 S
C414   H451    1.082   .     S
C414   C1126   1.384   1_554 S
C415   C416    1.404   .     A
C415   C420    1.405   .     A
C416   C417    1.399   .     A
C416   H439    1.083   .     S
C417   H440    1.082   .     S
C417   C418    1.398   .     A
C418   H441    1.082   .     S
C418   C419    1.398   .     A
C419   C420    1.399   .     A
C419   H676    1.083   .     S
C420   H443    1.083   .     S
C421   C427    1.404   .     A
C421   C422    1.405   .     A
C422   H445    1.083   .     S
C422   C423    1.398   .     A
C423   C425    1.398   .     A
C424   H453    1.084   .     S
C424   C1116   1.384   .     S
C425   C426    1.398   .     A
C425   H447    1.082   .     S
C426   C427    1.399   .     A
C426   H448    1.082   .     S
C427   H449    1.083   .     S
C428   H454    1.084   .     S
C429   H455    1.084   .     S
C429   C432    1.396   .     A
C429   C275    1.370   1_655 S
C430   C432    1.396   .     A
C430   H456    1.084   .     S
C430   C272    1.370   1_655 S
C431   H434    1.084   .     S
H446   C657    1.083   .     S
N457   Zn467   2.003   .     S
N458   Zn468   2.003   .     S
O459   Zn467   1.995   .     S
O460   Zn468   1.995   .     S
O461   Zn467   1.996   .     S
O462   Zn468   1.996   .     S
O463   Zn467   2.017   .     S
O464   Zn468   2.017   .     S
O465   Zn467   2.021   .     S
O466   Zn468   2.021   .     S
C469   C470    1.415   .     S
C469   O540    1.279   .     A
C469   O537    1.279   .     A
C470   C509    1.396   .     A
C470   C506    1.396   .     A
C471   N536    1.366   .     A
C471   H513    1.082   .     S
C472   H514    1.082   .     S
C472   N535    1.366   .     A
C472   C5      1.414   1_565 S
C473   H515    1.082   .     S
C473   N536    1.366   .     A
C474   H516    1.082   .     S
C474   N535    1.366   .     A
C474   C3      1.414   1_565 S
C475   O541    1.286   .     A
C475   O544    1.282   .     A
C475   C481    1.438   .     S
C476   O543    1.282   .     A
C476   O542    1.286   .     A
C476   C479    1.438   .     S
C477   H511    1.086   .     S
C477   C488    1.377   .     A
C477   C479    1.392   .     A
C478   C489    1.377   .     A
C478   C481    1.392   .     A
C478   H522    1.086   .     S
C479   C482    1.413   .     A
C480   C510    1.415   .     S
C480   O539    1.279   .     A
C480   O538    1.279   .     A
C481   C483    1.413   .     A
C482   C484    1.403   .     A
C482   C493    1.488   .     S
C483   C485    1.403   .     A
C483   C499    1.488   .     S
C484   C490    1.407   .     A
C484   C486    1.419   .     A
C485   C487    1.419   .     A
C485   C492    1.407   .     A
C486   C488    1.408   .     A
C486   C1189   1.398   .     S
C487   C489    1.408   .     A
C487   C1188   1.398   1_554 S
C488   C502    1.396   .     A
C489   C491    1.396   .     A
C490   H528    1.082   .     S
C490   C1193   1.384   .     S
C491   H530    1.084   .     S
C491   C1192   1.384   1_554 S
C492   H529    1.082   .     S
C492   C1204   1.384   1_554 S
C493   C494    1.404   .     A
C493   C498    1.405   .     A
C494   C495    1.399   .     A
C494   H517    1.083   .     S
C495   H518    1.082   .     S
C495   C496    1.398   .     A
C496   H519    1.082   .     S
C496   C497    1.398   .     A
C497   C498    1.399   .     A
C497   H52     1.083   1_565 S
C498   H521    1.083   .     S
C499   C505    1.404   .     A
C499   C500    1.405   .     A
C500   H523    1.083   .     S
C500   C501    1.398   .     A
C501   C503    1.398   .     A
C502   H531    1.084   .     S
C502   C1194   1.384   .     S
C503   C504    1.398   .     A
C503   H525    1.082   .     S
C504   C505    1.399   .     A
C504   H526    1.082   .     S
C505   H527    1.083   .     S
C506   H532    1.084   .     S
C506   C664    1.370   1_455 S
C507   H533    1.084   .     S
C507   C510    1.396   .     A
C507   C587    1.370   .     S
C508   C510    1.396   .     A
C508   H534    1.084   .     S
C508   C584    1.370   .     S
C509   H512    1.084   .     S
C509   C663    1.370   1_455 S
H524   C33     1.083   1_565 S
N535   Zn545   2.003   .     S
N536   Zn546   2.003   .     S
O537   Zn545   1.995   .     S
O538   Zn546   1.995   .     S
O539   Zn545   1.996   .     S
O540   Zn546   1.996   .     S
O541   Zn545   2.017   .     S
O542   Zn546   2.017   .     S
O543   Zn545   2.021   .     S
O544   Zn546   2.021   .     S
C547   C548    1.415   .     S
C547   O618    1.279   .     A
C547   O615    1.279   .     A
C548   C587    1.396   .     A
C548   C584    1.396   .     A
C549   N614    1.366   .     A
C549   H591    1.082   .     S
C550   H592    1.082   .     S
C550   N613    1.366   .     A
C550   C83     1.414   1_565 S
C551   H593    1.082   .     S
C551   N614    1.366   .     A
C552   H594    1.082   .     S
C552   N613    1.366   .     A
C552   C81     1.414   1_565 S
C553   O619    1.286   .     A
C553   O622    1.282   .     A
C553   C559    1.438   .     S
C554   O621    1.282   .     A
C554   O620    1.286   .     A
C554   C557    1.438   .     S
C555   H589    1.086   .     S
C555   C566    1.377   .     A
C555   C557    1.392   .     A
C556   C567    1.377   .     A
C556   C559    1.392   .     A
C556   H600    1.086   .     S
C557   C560    1.413   .     A
C558   C588    1.415   .     S
C558   O617    1.279   .     A
C558   O616    1.279   .     A
C559   C561    1.413   .     A
C560   C562    1.403   .     A
C560   C571    1.488   .     S
C561   C563    1.403   .     A
C561   C577    1.488   .     S
C562   C568    1.407   .     A
C562   C564    1.419   .     A
C563   C565    1.419   .     A
C563   C570    1.407   .     A
C564   C566    1.408   .     A
C564   C1267   1.398   .     S
C565   C567    1.408   .     A
C565   C1266   1.398   1_554 S
C566   C580    1.396   .     A
C567   C569    1.396   .     A
C568   H606    1.082   .     S
C568   C1271   1.384   .     S
C569   H608    1.084   .     S
C569   C1270   1.384   1_554 S
C570   H607    1.082   .     S
C570   C1282   1.384   1_554 S
C571   C572    1.404   .     A
C571   C576    1.405   .     A
C572   C573    1.399   .     A
C572   H595    1.083   .     S
C573   H596    1.082   .     S
C573   C574    1.398   .     A
C574   H597    1.082   .     S
C574   C575    1.398   .     A
C575   C576    1.399   .     A
C575   H130    1.083   1_565 S
C576   H599    1.083   .     S
C577   C583    1.404   .     A
C577   C578    1.405   .     A
C578   H601    1.083   .     S
C578   C579    1.398   .     A
C579   C581    1.398   .     A
C580   H609    1.084   .     S
C580   C1272   1.384   .     S
C581   C582    1.398   .     A
C581   H603    1.082   .     S
C582   C583    1.399   .     A
C582   H604    1.082   .     S
C583   H605    1.083   .     S
C584   H610    1.084   .     S
C585   H611    1.084   .     S
C585   C588    1.396   .     A
C585   C665    1.370   .     S
C586   C588    1.396   .     A
C586   H612    1.084   .     S
C586   C662    1.370   .     S
C587   H590    1.084   .     S
H602   C111    1.083   1_565 S
N613   Zn623   2.003   .     S
N614   Zn624   2.003   .     S
O615   Zn623   1.995   .     S
O616   Zn624   1.995   .     S
O617   Zn623   1.996   .     S
O618   Zn624   1.996   .     S
O619   Zn623   2.017   .     S
O620   Zn624   2.017   .     S
O621   Zn623   2.021   .     S
O622   Zn624   2.021   .     S
C625   C626    1.415   .     S
C625   O696    1.279   .     A
C625   O693    1.279   .     A
C626   C665    1.396   .     A
C626   C662    1.396   .     A
C627   N692    1.366   .     A
C627   H669    1.082   .     S
C628   H670    1.082   .     S
C628   N691    1.366   .     A
C628   C161    1.414   1_565 S
C629   H671    1.082   .     S
C629   N692    1.366   .     A
C630   H672    1.082   .     S
C630   N691    1.366   .     A
C630   C159    1.414   1_565 S
C631   O697    1.286   .     A
C631   O700    1.282   .     A
C631   C637    1.438   .     S
C632   O699    1.282   .     A
C632   O698    1.286   .     A
C632   C635    1.438   .     S
C633   H667    1.086   .     S
C633   C644    1.377   .     A
C633   C635    1.392   .     A
C634   C645    1.377   .     A
C634   C637    1.392   .     A
C634   H678    1.086   .     S
C635   C638    1.413   .     A
C636   C666    1.415   .     S
C636   O695    1.279   .     A
C636   O694    1.279   .     A
C637   C639    1.413   .     A
C638   C640    1.403   .     A
C638   C649    1.488   .     S
C639   C641    1.403   .     A
C639   C655    1.488   .     S
C640   C646    1.407   .     A
C640   C642    1.419   .     A
C641   C643    1.419   .     A
C641   C648    1.407   .     A
C642   C644    1.408   .     A
C642   C1345   1.398   .     S
C643   C645    1.408   .     A
C643   C1344   1.398   1_554 S
C644   C658    1.396   .     A
C645   C647    1.396   .     A
C646   H684    1.082   .     S
C646   C1349   1.384   .     S
C647   H686    1.084   .     S
C647   C1348   1.384   1_554 S
C648   H685    1.082   .     S
C648   C1360   1.384   1_554 S
C649   C650    1.404   .     A
C649   C654    1.405   .     A
C650   C651    1.399   .     A
C650   H673    1.083   .     S
C651   H674    1.082   .     S
C651   C652    1.398   .     A
C652   H675    1.082   .     S
C652   C653    1.398   .     A
C653   C654    1.399   .     A
C653   H208    1.083   1_565 S
C654   H677    1.083   .     S
C655   C661    1.404   .     A
C655   C656    1.405   .     A
C656   H679    1.083   .     S
C656   C657    1.398   .     A
C657   C659    1.398   .     A
C658   H687    1.084   .     S
C658   C1350   1.384   .     S
C659   C660    1.398   .     A
C659   H681    1.082   .     S
C660   C661    1.399   .     A
C660   H682    1.082   .     S
C661   H683    1.083   .     S
C662   H688    1.084   .     S
C663   H689    1.084   .     S
C663   C666    1.396   .     A
C663   C509    1.370   1_655 S
C664   C666    1.396   .     A
C664   H690    1.084   .     S
C664   C506    1.370   1_655 S
C665   H668    1.084   .     S
H680   C189    1.083   1_565 S
N691   Zn701   2.003   .     S
N692   Zn702   2.003   .     S
O693   Zn701   1.995   .     S
O694   Zn702   1.995   .     S
O695   Zn701   1.996   .     S
O696   Zn702   1.996   .     S
O697   Zn701   2.017   .     S
O698   Zn702   2.017   .     S
O699   Zn701   2.021   .     S
O700   Zn702   2.021   .     S
C703   C704    1.415   .     S
C703   O774    1.279   .     A
C703   O771    1.279   .     A
C704   C743    1.396   .     A
C704   C740    1.396   .     A
C705   N770    1.366   .     A
C705   H747    1.082   .     S
C705   C1176   1.414   1_545 S
C706   H748    1.082   .     S
C706   N769    1.366   .     A
C706   C941    1.414   .     S
C707   H749    1.082   .     S
C707   N770    1.366   .     A
C707   C1174   1.414   1_545 S
C708   H750    1.082   .     S
C708   N769    1.366   .     A
C708   C939    1.414   .     S
C709   O775    1.286   .     A
C709   O778    1.282   .     A
C709   C715    1.438   .     S
C710   O777    1.282   .     A
C710   O776    1.286   .     A
C710   C713    1.438   .     S
C711   H745    1.086   .     S
C711   C722    1.377   .     A
C711   C713    1.392   .     A
C712   C723    1.377   .     A
C712   C715    1.392   .     A
C712   H756    1.086   .     S
C713   C716    1.413   .     A
C714   C744    1.415   .     S
C714   O773    1.279   .     A
C714   O772    1.279   .     A
C715   C717    1.413   .     A
C716   C718    1.403   .     A
C716   C727    1.488   .     S
C717   C719    1.403   .     A
C717   C733    1.488   .     S
C718   C724    1.407   .     A
C718   C720    1.419   .     A
C719   C721    1.419   .     A
C719   C726    1.407   .     A
C720   C722    1.408   .     A
C720   C19     1.398   1_556 S
C721   C723    1.408   .     A
C722   C736    1.396   .     A
C723   C725    1.396   .     A
C724   H762    1.082   .     S
C724   C23     1.384   1_556 S
C725   H764    1.084   .     S
C726   H763    1.082   .     S
C727   C728    1.404   .     A
C727   C732    1.405   .     A
C728   C729    1.399   .     A
C728   H751    1.083   .     S
C729   H752    1.082   .     S
C729   C730    1.398   .     A
C730   H753    1.082   .     S
C730   C731    1.398   .     A
C731   C732    1.399   .     A
C731   H988    1.083   .     S
C732   H755    1.083   .     S
C733   C739    1.404   .     A
C733   C734    1.405   .     A
C734   H757    1.083   .     S
C734   C735    1.398   .     A
C735   C737    1.398   .     A
C735   H1226   1.083   1_545 S
C736   H765    1.084   .     S
C736   C24     1.384   1_556 S
C737   C738    1.398   .     A
C737   H759    1.082   .     S
C738   C739    1.399   .     A
C738   H760    1.082   .     S
C739   H761    1.083   .     S
C740   H766    1.084   .     S
C740   C898    1.370   1_455 S
C741   H767    1.084   .     S
C741   C744    1.396   .     A
C741   C821    1.370   .     S
C742   C744    1.396   .     A
C742   H768    1.084   .     S
C742   C818    1.370   .     S
C743   H746    1.084   .     S
C743   C897    1.370   1_455 S
H754   C1199   1.083   1_545 S
H758   C969    1.083   .     S
N769   Zn779   2.003   .     S
N770   Zn780   2.003   .     S
O771   Zn779   1.995   .     S
O772   Zn780   1.995   .     S
O773   Zn779   1.996   .     S
O774   Zn780   1.996   .     S
O775   Zn779   2.017   .     S
O776   Zn780   2.017   .     S
O777   Zn779   2.021   .     S
O778   Zn780   2.021   .     S
C781   C782    1.415   .     S
C781   O852    1.279   .     A
C781   O849    1.279   .     A
C782   C821    1.396   .     A
C782   C818    1.396   .     A
C783   N848    1.366   .     A
C783   H825    1.082   .     S
C783   C1254   1.414   1_545 S
C784   H826    1.082   .     S
C784   N847    1.366   .     A
C784   C1019   1.414   .     S
C785   H827    1.082   .     S
C785   N848    1.366   .     A
C785   C1252   1.414   1_545 S
C786   H828    1.082   .     S
C786   N847    1.366   .     A
C786   C1017   1.414   .     S
C787   O853    1.286   .     A
C787   O856    1.282   .     A
C787   C793    1.438   .     S
C788   O855    1.282   .     A
C788   O854    1.286   .     A
C788   C791    1.438   .     S
C789   H823    1.086   .     S
C789   C800    1.377   .     A
C789   C791    1.392   .     A
C790   C801    1.377   .     A
C790   C793    1.392   .     A
C790   H834    1.086   .     S
C791   C794    1.413   .     A
C792   C822    1.415   .     S
C792   O851    1.279   .     A
C792   O850    1.279   .     A
C793   C795    1.413   .     A
C794   C796    1.403   .     A
C794   C805    1.488   .     S
C795   C797    1.403   .     A
C795   C811    1.488   .     S
C796   C802    1.407   .     A
C796   C798    1.419   .     A
C797   C799    1.419   .     A
C797   C804    1.407   .     A
C798   C800    1.408   .     A
C798   C97     1.398   1_556 S
C799   C801    1.408   .     A
C800   C814    1.396   .     A
C801   C803    1.396   .     A
C802   H840    1.082   .     S
C802   C101    1.384   1_556 S
C803   H842    1.084   .     S
C804   H841    1.082   .     S
C805   C806    1.404   .     A
C805   C810    1.405   .     A
C806   C807    1.399   .     A
C806   H829    1.083   .     S
C807   H830    1.082   .     S
C807   C808    1.398   .     A
C808   H831    1.082   .     S
C808   C809    1.398   .     A
C809   C810    1.399   .     A
C809   H1066   1.083   .     S
C810   H833    1.083   .     S
C811   C817    1.404   .     A
C811   C812    1.405   .     A
C812   H835    1.083   .     S
C812   C813    1.398   .     A
C813   C815    1.398   .     A
C813   H1304   1.083   1_545 S
C814   H843    1.084   .     S
C814   C102    1.384   1_556 S
C815   C816    1.398   .     A
C815   H837    1.082   .     S
C816   C817    1.399   .     A
C816   H838    1.082   .     S
C817   H839    1.083   .     S
C818   H844    1.084   .     S
C819   H845    1.084   .     S
C819   C822    1.396   .     A
C819   C899    1.370   .     S
C820   C822    1.396   .     A
C820   H846    1.084   .     S
C820   C896    1.370   .     S
C821   H824    1.084   .     S
H832   C1277   1.083   1_545 S
H836   C1047   1.083   .     S
N847   Zn857   2.003   .     S
N848   Zn858   2.003   .     S
O849   Zn857   1.995   .     S
O850   Zn858   1.995   .     S
O851   Zn857   1.996   .     S
O852   Zn858   1.996   .     S
O853   Zn857   2.017   .     S
O854   Zn858   2.017   .     S
O855   Zn857   2.021   .     S
O856   Zn858   2.021   .     S
C859   C860    1.415   .     S
C859   O930    1.279   .     A
C859   O927    1.279   .     A
C860   C899    1.396   .     A
C860   C896    1.396   .     A
C861   N926    1.366   .     A
C861   H903    1.082   .     S
C861   C1332   1.414   1_545 S
C862   H904    1.082   .     S
C862   N925    1.366   .     A
C862   C1097   1.414   .     S
C863   H905    1.082   .     S
C863   N926    1.366   .     A
C863   C1330   1.414   1_545 S
C864   H906    1.082   .     S
C864   N925    1.366   .     A
C864   C1095   1.414   .     S
C865   O931    1.286   .     A
C865   O934    1.282   .     A
C865   C871    1.438   .     S
C866   O933    1.282   .     A
C866   O932    1.286   .     A
C866   C869    1.438   .     S
C867   H901    1.086   .     S
C867   C878    1.377   .     A
C867   C869    1.392   .     A
C868   C879    1.377   .     A
C868   C871    1.392   .     A
C868   H912    1.086   .     S
C869   C872    1.413   .     A
C870   C900    1.415   .     S
C870   O929    1.279   .     A
C870   O928    1.279   .     A
C871   C873    1.413   .     A
C872   C874    1.403   .     A
C872   C883    1.488   .     S
C873   C875    1.403   .     A
C873   C889    1.488   .     S
C874   C880    1.407   .     A
C874   C876    1.419   .     A
C875   C877    1.419   .     A
C875   C882    1.407   .     A
C876   C878    1.408   .     A
C876   C175    1.398   1_556 S
C877   C879    1.408   .     A
C878   C892    1.396   .     A
C879   C881    1.396   .     A
C880   H918    1.082   .     S
C880   C179    1.384   1_556 S
C881   H920    1.084   .     S
C882   H919    1.082   .     S
C883   C884    1.404   .     A
C883   C888    1.405   .     A
C884   C885    1.399   .     A
C884   H907    1.083   .     S
C885   H908    1.082   .     S
C885   C886    1.398   .     A
C886   H909    1.082   .     S
C886   C887    1.398   .     A
C887   C888    1.399   .     A
C887   H1144   1.083   .     S
C888   H911    1.083   .     S
C889   C895    1.404   .     A
C889   C890    1.405   .     A
C890   H913    1.083   .     S
C890   C891    1.398   .     A
C891   C893    1.398   .     A
C891   H1382   1.083   1_545 S
C892   H921    1.084   .     S
C892   C180    1.384   1_556 S
C893   C894    1.398   .     A
C893   H915    1.082   .     S
C894   C895    1.399   .     A
C894   H916    1.082   .     S
C895   H917    1.083   .     S
C896   H922    1.084   .     S
C897   H923    1.084   .     S
C897   C900    1.396   .     A
C897   C743    1.370   1_655 S
C898   C900    1.396   .     A
C898   H924    1.084   .     S
C898   C740    1.370   1_655 S
C899   H902    1.084   .     S
H910   C1355   1.083   1_545 S
H914   C1125   1.083   .     S
N925   Zn935   2.003   .     S
N926   Zn936   2.003   .     S
O927   Zn935   1.995   .     S
O928   Zn936   1.995   .     S
O929   Zn935   1.996   .     S
O930   Zn936   1.996   .     S
O931   Zn935   2.017   .     S
O932   Zn936   2.017   .     S
O933   Zn935   2.021   .     S
O934   Zn936   2.021   .     S
C937   C938    1.415   .     S
C937   O1008   1.279   .     A
C937   O1005   1.279   .     A
C938   C977    1.396   .     A
C938   C974    1.396   .     A
C939   N1004   1.366   .     A
C939   H981    1.082   .     S
C940   H982    1.082   .     S
C940   N1003   1.366   .     A
C940   C1175   1.414   .     S
C941   H983    1.082   .     S
C941   N1004   1.366   .     A
C942   H984    1.082   .     S
C942   N1003   1.366   .     A
C942   C1173   1.414   .     S
C943   O1009   1.286   .     A
C943   O1012   1.282   .     A
C943   C949    1.438   .     S
C944   O1011   1.282   .     A
C944   O1010   1.286   .     A
C944   C947    1.438   .     S
C945   H979    1.086   .     S
C945   C956    1.377   .     A
C945   C947    1.392   .     A
C946   C957    1.377   .     A
C946   C949    1.392   .     A
C946   H990    1.086   .     S
C947   C950    1.413   .     A
C948   C978    1.415   .     S
C948   O1007   1.279   .     A
C948   O1006   1.279   .     A
C949   C951    1.413   .     A
C950   C952    1.403   .     A
C950   C961    1.488   .     S
C951   C953    1.403   .     A
C951   C967    1.488   .     S
C952   C958    1.407   .     A
C952   C954    1.419   .     A
C953   C955    1.419   .     A
C953   C960    1.407   .     A
C954   C956    1.408   .     A
C954   C253    1.398   1_556 S
C955   C957    1.408   .     A
C956   C970    1.396   .     A
C957   C959    1.396   .     A
C958   H996    1.082   .     S
C958   C257    1.384   1_556 S
C959   H998    1.084   .     S
C960   H997    1.082   .     S
C961   C962    1.404   .     A
C961   C966    1.405   .     A
C962   C963    1.399   .     A
C962   H985    1.083   .     S
C963   H986    1.082   .     S
C963   C964    1.398   .     A
C964   H987    1.082   .     S
C964   C965    1.398   .     A
C965   C966    1.399   .     A
C965   H1222   1.083   .     S
C966   H989    1.083   .     S
C967   C973    1.404   .     A
C967   C968    1.405   .     A
C968   H991    1.083   .     S
C968   C969    1.398   .     A
C969   C971    1.398   .     A
C970   H999    1.084   .     S
C970   C258    1.384   1_556 S
C971   C972    1.398   .     A
C971   H993    1.082   .     S
C972   C973    1.399   .     A
C972   H994    1.082   .     S
C973   H995    1.083   .     S
C974   H1000   1.084   .     S
C974   C1132   1.370   1_455 S
C975   H1001   1.084   .     S
C975   C978    1.396   .     A
C975   C1055   1.370   .     S
C976   C978    1.396   .     A
C976   H1002   1.084   .     S
C976   C1052   1.370   .     S
C977   H980    1.084   .     S
C977   C1131   1.370   1_455 S
H992   C1203   1.083   .     S
N1003  Zn1013  2.003   .     S
N1004  Zn1014  2.003   .     S
O1005  Zn1013  1.995   .     S
O1006  Zn1014  1.995   .     S
O1007  Zn1013  1.996   .     S
O1008  Zn1014  1.996   .     S
O1009  Zn1013  2.017   .     S
O1010  Zn1014  2.017   .     S
O1011  Zn1013  2.021   .     S
O1012  Zn1014  2.021   .     S
C1015  C1016   1.415   .     S
C1015  O1086   1.279   .     A
C1015  O1083   1.279   .     A
C1016  C1055   1.396   .     A
C1016  C1052   1.396   .     A
C1017  N1082   1.366   .     A
C1017  H1059   1.082   .     S
C1018  H1060   1.082   .     S
C1018  N1081   1.366   .     A
C1018  C1253   1.414   .     S
C1019  H1061   1.082   .     S
C1019  N1082   1.366   .     A
C1020  H1062   1.082   .     S
C1020  N1081   1.366   .     A
C1020  C1251   1.414   .     S
C1021  O1087   1.286   .     A
C1021  O1090   1.282   .     A
C1021  C1027   1.438   .     S
C1022  O1089   1.282   .     A
C1022  O1088   1.286   .     A
C1022  C1025   1.438   .     S
C1023  H1057   1.086   .     S
C1023  C1034   1.377   .     A
C1023  C1025   1.392   .     A
C1024  C1035   1.377   .     A
C1024  C1027   1.392   .     A
C1024  H1068   1.086   .     S
C1025  C1028   1.413   .     A
C1026  C1056   1.415   .     S
C1026  O1085   1.279   .     A
C1026  O1084   1.279   .     A
C1027  C1029   1.413   .     A
C1028  C1030   1.403   .     A
C1028  C1039   1.488   .     S
C1029  C1031   1.403   .     A
C1029  C1045   1.488   .     S
C1030  C1036   1.407   .     A
C1030  C1032   1.419   .     A
C1031  C1033   1.419   .     A
C1031  C1038   1.407   .     A
C1032  C1034   1.408   .     A
C1032  C331    1.398   1_556 S
C1033  C1035   1.408   .     A
C1034  C1048   1.396   .     A
C1035  C1037   1.396   .     A
C1036  H1074   1.082   .     S
C1036  C335    1.384   1_556 S
C1037  H1076   1.084   .     S
C1038  H1075   1.082   .     S
C1039  C1040   1.404   .     A
C1039  C1044   1.405   .     A
C1040  C1041   1.399   .     A
C1040  H1063   1.083   .     S
C1041  H1064   1.082   .     S
C1041  C1042   1.398   .     A
C1042  H1065   1.082   .     S
C1042  C1043   1.398   .     A
C1043  C1044   1.399   .     A
C1043  H1300   1.083   .     S
C1044  H1067   1.083   .     S
C1045  C1051   1.404   .     A
C1045  C1046   1.405   .     A
C1046  H1069   1.083   .     S
C1046  C1047   1.398   .     A
C1047  C1049   1.398   .     A
C1048  H1077   1.084   .     S
C1048  C336    1.384   1_556 S
C1049  C1050   1.398   .     A
C1049  H1071   1.082   .     S
C1050  C1051   1.399   .     A
C1050  H1072   1.082   .     S
C1051  H1073   1.083   .     S
C1052  H1078   1.084   .     S
C1053  H1079   1.084   .     S
C1053  C1056   1.396   .     A
C1053  C1133   1.370   .     S
C1054  C1056   1.396   .     A
C1054  H1080   1.084   .     S
C1054  C1130   1.370   .     S
C1055  H1058   1.084   .     S
H1070  C1281   1.083   .     S
N1081  Zn1091  2.003   .     S
N1082  Zn1092  2.003   .     S
O1083  Zn1091  1.995   .     S
O1084  Zn1092  1.995   .     S
O1085  Zn1091  1.996   .     S
O1086  Zn1092  1.996   .     S
O1087  Zn1091  2.017   .     S
O1088  Zn1092  2.017   .     S
O1089  Zn1091  2.021   .     S
O1090  Zn1092  2.021   .     S
C1093  C1094   1.415   .     S
C1093  O1164   1.279   .     A
C1093  O1161   1.279   .     A
C1094  C1133   1.396   .     A
C1094  C1130   1.396   .     A
C1095  N1160   1.366   .     A
C1095  H1137   1.082   .     S
C1096  H1138   1.082   .     S
C1096  N1159   1.366   .     A
C1096  C1331   1.414   .     S
C1097  H1139   1.082   .     S
C1097  N1160   1.366   .     A
C1098  H1140   1.082   .     S
C1098  N1159   1.366   .     A
C1098  C1329   1.414   .     S
C1099  O1165   1.286   .     A
C1099  O1168   1.282   .     A
C1099  C1105   1.438   .     S
C1100  O1167   1.282   .     A
C1100  O1166   1.286   .     A
C1100  C1103   1.438   .     S
C1101  H1135   1.086   .     S
C1101  C1112   1.377   .     A
C1101  C1103   1.392   .     A
C1102  C1113   1.377   .     A
C1102  C1105   1.392   .     A
C1102  H1146   1.086   .     S
C1103  C1106   1.413   .     A
C1104  C1134   1.415   .     S
C1104  O1163   1.279   .     A
C1104  O1162   1.279   .     A
C1105  C1107   1.413   .     A
C1106  C1108   1.403   .     A
C1106  C1117   1.488   .     S
C1107  C1109   1.403   .     A
C1107  C1123   1.488   .     S
C1108  C1114   1.407   .     A
C1108  C1110   1.419   .     A
C1109  C1111   1.419   .     A
C1109  C1116   1.407   .     A
C1110  C1112   1.408   .     A
C1110  C409    1.398   1_556 S
C1111  C1113   1.408   .     A
C1112  C1126   1.396   .     A
C1113  C1115   1.396   .     A
C1114  H1152   1.082   .     S
C1114  C413    1.384   1_556 S
C1115  H1154   1.084   .     S
C1116  H1153   1.082   .     S
C1117  C1118   1.404   .     A
C1117  C1122   1.405   .     A
C1118  C1119   1.399   .     A
C1118  H1141   1.083   .     S
C1119  H1142   1.082   .     S
C1119  C1120   1.398   .     A
C1120  H1143   1.082   .     S
C1120  C1121   1.398   .     A
C1121  C1122   1.399   .     A
C1121  H1378   1.083   .     S
C1122  H1145   1.083   .     S
C1123  C1129   1.404   .     A
C1123  C1124   1.405   .     A
C1124  H1147   1.083   .     S
C1124  C1125   1.398   .     A
C1125  C1127   1.398   .     A
C1126  H1155   1.084   .     S
C1126  C414    1.384   1_556 S
C1127  C1128   1.398   .     A
C1127  H1149   1.082   .     S
C1128  C1129   1.399   .     A
C1128  H1150   1.082   .     S
C1129  H1151   1.083   .     S
C1130  H1156   1.084   .     S
C1131  H1157   1.084   .     S
C1131  C1134   1.396   .     A
C1131  C977    1.370   1_655 S
C1132  C1134   1.396   .     A
C1132  H1158   1.084   .     S
C1132  C974    1.370   1_655 S
C1133  H1136   1.084   .     S
H1148  C1359   1.083   .     S
N1159  Zn1169  2.003   .     S
N1160  Zn1170  2.003   .     S
O1161  Zn1169  1.995   .     S
O1162  Zn1170  1.995   .     S
O1163  Zn1169  1.996   .     S
O1164  Zn1170  1.996   .     S
O1165  Zn1169  2.017   .     S
O1166  Zn1170  2.017   .     S
O1167  Zn1169  2.021   .     S
O1168  Zn1170  2.021   .     S
C1171  C1172   1.415   .     S
C1171  O1242   1.279   .     A
C1171  O1239   1.279   .     A
C1172  C1211   1.396   .     A
C1172  C1208   1.396   .     A
C1173  N1238   1.366   .     A
C1173  H1215   1.082   .     S
C1174  H1216   1.082   .     S
C1174  N1237   1.366   .     A
C1174  C707    1.414   1_565 S
C1175  H1217   1.082   .     S
C1175  N1238   1.366   .     A
C1176  H1218   1.082   .     S
C1176  N1237   1.366   .     A
C1176  C705    1.414   1_565 S
C1177  O1243   1.286   .     A
C1177  O1246   1.282   .     A
C1177  C1183   1.438   .     S
C1178  O1245   1.282   .     A
C1178  O1244   1.286   .     A
C1178  C1181   1.438   .     S
C1179  H1213   1.086   .     S
C1179  C1190   1.377   .     A
C1179  C1181   1.392   .     A
C1180  C1191   1.377   .     A
C1180  C1183   1.392   .     A
C1180  H1224   1.086   .     S
C1181  C1184   1.413   .     A
C1182  C1212   1.415   .     S
C1182  O1241   1.279   .     A
C1182  O1240   1.279   .     A
C1183  C1185   1.413   .     A
C1184  C1186   1.403   .     A
C1184  C1195   1.488   .     S
C1185  C1187   1.403   .     A
C1185  C1201   1.488   .     S
C1186  C1192   1.407   .     A
C1186  C1188   1.419   .     A
C1187  C1189   1.419   .     A
C1187  C1194   1.407   .     A
C1188  C1190   1.408   .     A
C1188  C487    1.398   1_556 S
C1189  C1191   1.408   .     A
C1190  C1204   1.396   .     A
C1191  C1193   1.396   .     A
C1192  H1230   1.082   .     S
C1192  C491    1.384   1_556 S
C1193  H1232   1.084   .     S
C1194  H1231   1.082   .     S
C1195  C1196   1.404   .     A
C1195  C1200   1.405   .     A
C1196  C1197   1.399   .     A
C1196  H1219   1.083   .     S
C1197  H1220   1.082   .     S
C1197  C1198   1.398   .     A
C1198  H1221   1.082   .     S
C1198  C1199   1.398   .     A
C1199  C1200   1.399   .     A
C1199  H754    1.083   1_565 S
C1200  H1223   1.083   .     S
C1201  C1207   1.404   .     A
C1201  C1202   1.405   .     A
C1202  H1225   1.083   .     S
C1202  C1203   1.398   .     A
C1203  C1205   1.398   .     A
C1204  H1233   1.084   .     S
C1204  C492    1.384   1_556 S
C1205  C1206   1.398   .     A
C1205  H1227   1.082   .     S
C1206  C1207   1.399   .     A
C1206  H1228   1.082   .     S
C1207  H1229   1.083   .     S
C1208  H1234   1.084   .     S
C1208  C1366   1.370   1_455 S
C1209  H1235   1.084   .     S
C1209  C1212   1.396   .     A
C1209  C1289   1.370   .     S
C1210  C1212   1.396   .     A
C1210  H1236   1.084   .     S
C1210  C1286   1.370   .     S
C1211  H1214   1.084   .     S
C1211  C1365   1.370   1_455 S
H1226  C735    1.083   1_565 S
N1237  Zn1247  2.003   .     S
N1238  Zn1248  2.003   .     S
O1239  Zn1247  1.995   .     S
O1240  Zn1248  1.995   .     S
O1241  Zn1247  1.996   .     S
O1242  Zn1248  1.996   .     S
O1243  Zn1247  2.017   .     S
O1244  Zn1248  2.017   .     S
O1245  Zn1247  2.021   .     S
O1246  Zn1248  2.021   .     S
C1249  C1250   1.415   .     S
C1249  O1320   1.279   .     A
C1249  O1317   1.279   .     A
C1250  C1289   1.396   .     A
C1250  C1286   1.396   .     A
C1251  N1316   1.366   .     A
C1251  H1293   1.082   .     S
C1252  H1294   1.082   .     S
C1252  N1315   1.366   .     A
C1252  C785    1.414   1_565 S
C1253  H1295   1.082   .     S
C1253  N1316   1.366   .     A
C1254  H1296   1.082   .     S
C1254  N1315   1.366   .     A
C1254  C783    1.414   1_565 S
C1255  O1321   1.286   .     A
C1255  O1324   1.282   .     A
C1255  C1261   1.438   .     S
C1256  O1323   1.282   .     A
C1256  O1322   1.286   .     A
C1256  C1259   1.438   .     S
C1257  H1291   1.086   .     S
C1257  C1268   1.377   .     A
C1257  C1259   1.392   .     A
C1258  C1269   1.377   .     A
C1258  C1261   1.392   .     A
C1258  H1302   1.086   .     S
C1259  C1262   1.413   .     A
C1260  C1290   1.415   .     S
C1260  O1319   1.279   .     A
C1260  O1318   1.279   .     A
C1261  C1263   1.413   .     A
C1262  C1264   1.403   .     A
C1262  C1273   1.488   .     S
C1263  C1265   1.403   .     A
C1263  C1279   1.488   .     S
C1264  C1270   1.407   .     A
C1264  C1266   1.419   .     A
C1265  C1267   1.419   .     A
C1265  C1272   1.407   .     A
C1266  C1268   1.408   .     A
C1266  C565    1.398   1_556 S
C1267  C1269   1.408   .     A
C1268  C1282   1.396   .     A
C1269  C1271   1.396   .     A
C1270  H1308   1.082   .     S
C1270  C569    1.384   1_556 S
C1271  H1310   1.084   .     S
C1272  H1309   1.082   .     S
C1273  C1274   1.404   .     A
C1273  C1278   1.405   .     A
C1274  C1275   1.399   .     A
C1274  H1297   1.083   .     S
C1275  H1298   1.082   .     S
C1275  C1276   1.398   .     A
C1276  H1299   1.082   .     S
C1276  C1277   1.398   .     A
C1277  C1278   1.399   .     A
C1277  H832    1.083   1_565 S
C1278  H1301   1.083   .     S
C1279  C1285   1.404   .     A
C1279  C1280   1.405   .     A
C1280  H1303   1.083   .     S
C1280  C1281   1.398   .     A
C1281  C1283   1.398   .     A
C1282  H1311   1.084   .     S
C1282  C570    1.384   1_556 S
C1283  C1284   1.398   .     A
C1283  H1305   1.082   .     S
C1284  C1285   1.399   .     A
C1284  H1306   1.082   .     S
C1285  H1307   1.083   .     S
C1286  H1312   1.084   .     S
C1287  H1313   1.084   .     S
C1287  C1290   1.396   .     A
C1287  C1367   1.370   .     S
C1288  C1290   1.396   .     A
C1288  H1314   1.084   .     S
C1288  C1364   1.370   .     S
C1289  H1292   1.084   .     S
H1304  C813    1.083   1_565 S
N1315  Zn1325  2.003   .     S
N1316  Zn1326  2.003   .     S
O1317  Zn1325  1.995   .     S
O1318  Zn1326  1.995   .     S
O1319  Zn1325  1.996   .     S
O1320  Zn1326  1.996   .     S
O1321  Zn1325  2.017   .     S
O1322  Zn1326  2.017   .     S
O1323  Zn1325  2.021   .     S
O1324  Zn1326  2.021   .     S
C1327  C1328   1.415   .     S
C1327  O1398   1.279   .     A
C1327  O1395   1.279   .     A
C1328  C1367   1.396   .     A
C1328  C1364   1.396   .     A
C1329  N1394   1.366   .     A
C1329  H1371   1.082   .     S
C1330  H1372   1.082   .     S
C1330  N1393   1.366   .     A
C1330  C863    1.414   1_565 S
C1331  H1373   1.082   .     S
C1331  N1394   1.366   .     A
C1332  H1374   1.082   .     S
C1332  N1393   1.366   .     A
C1332  C861    1.414   1_565 S
C1333  O1399   1.286   .     A
C1333  O1402   1.282   .     A
C1333  C1339   1.438   .     S
C1334  O1401   1.282   .     A
C1334  O1400   1.286   .     A
C1334  C1337   1.438   .     S
C1335  H1369   1.086   .     S
C1335  C1346   1.377   .     A
C1335  C1337   1.392   .     A
C1336  C1347   1.377   .     A
C1336  C1339   1.392   .     A
C1336  H1380   1.086   .     S
C1337  C1340   1.413   .     A
C1338  C1368   1.415   .     S
C1338  O1397   1.279   .     A
C1338  O1396   1.279   .     A
C1339  C1341   1.413   .     A
C1340  C1342   1.403   .     A
C1340  C1351   1.488   .     S
C1341  C1343   1.403   .     A
C1341  C1357   1.488   .     S
C1342  C1348   1.407   .     A
C1342  C1344   1.419   .     A
C1343  C1345   1.419   .     A
C1343  C1350   1.407   .     A
C1344  C1346   1.408   .     A
C1344  C643    1.398   1_556 S
C1345  C1347   1.408   .     A
C1346  C1360   1.396   .     A
C1347  C1349   1.396   .     A
C1348  H1386   1.082   .     S
C1348  C647    1.384   1_556 S
C1349  H1388   1.084   .     S
C1350  H1387   1.082   .     S
C1351  C1352   1.404   .     A
C1351  C1356   1.405   .     A
C1352  C1353   1.399   .     A
C1352  H1375   1.083   .     S
C1353  H1376   1.082   .     S
C1353  C1354   1.398   .     A
C1354  H1377   1.082   .     S
C1354  C1355   1.398   .     A
C1355  C1356   1.399   .     A
C1355  H910    1.083   1_565 S
C1356  H1379   1.083   .     S
C1357  C1363   1.404   .     A
C1357  C1358   1.405   .     A
C1358  H1381   1.083   .     S
C1358  C1359   1.398   .     A
C1359  C1361   1.398   .     A
C1360  H1389   1.084   .     S
C1360  C648    1.384   1_556 S
C1361  C1362   1.398   .     A
C1361  H1383   1.082   .     S
C1362  C1363   1.399   .     A
C1362  H1384   1.082   .     S
C1363  H1385   1.083   .     S
C1364  H1390   1.084   .     S
C1365  H1391   1.084   .     S
C1365  C1368   1.396   .     A
C1365  C1211   1.370   1_655 S
C1366  C1368   1.396   .     A
C1366  H1392   1.084   .     S
C1366  C1208   1.370   1_655 S
C1367  H1370   1.084   .     S
H1382  C891    1.083   1_565 S
N1393  Zn1403  2.003   .     S
N1394  Zn1404  2.003   .     S
O1395  Zn1403  1.995   .     S
O1396  Zn1404  1.995   .     S
O1397  Zn1403  1.996   .     S
O1398  Zn1404  1.996   .     S
O1399  Zn1403  2.017   .     S
O1400  Zn1404  2.017   .     S
O1401  Zn1403  2.021   .     S
O1402  Zn1404  2.021   .     S
