data_str_m3_o1_o5_pcu_sym.75
_audit_creation_date              2020-01-03
_audit_creation_method            'Materials Studio'
_symmetry_space_group_name_H-M    'P1'
_symmetry_Int_Tables_number       1
_symmetry_cell_setting            triclinic
loop_
_symmetry_equiv_pos_as_xyz
  x,y,z
_cell_length_a                    32.0107
_cell_length_b                    29.9777
_cell_length_c                    26.7325
_cell_angle_alpha                 90.0416
_cell_angle_beta                  92.2603
_cell_angle_gamma                 90.1390
loop_
_atom_site_label
_atom_site_type_symbol
_atom_site_fract_x
_atom_site_fract_y
_atom_site_fract_z
_atom_site_U_iso_or_equiv
_atom_site_adp_type
_atom_site_occupancy
C1     C     0.08684   0.16663   0.16645   0.00000  Uiso   1.00
C2     C     0.02264   0.19685   0.19733   0.00000  Uiso   1.00
C3     C     0.29068   0.16674   0.16678   0.00000  Uiso   1.00
C4     C     0.04265   0.16660   0.16656   0.00000  Uiso   1.00
C5     C     0.18982   0.02372   0.20194   0.00000  Uiso   1.00
C6     C     0.14351   0.30961   0.13139   0.00000  Uiso   1.00
C7     C     0.14354   0.02353   0.13138   0.00000  Uiso   1.00
C8     C     0.18979   0.30980   0.20195   0.00000  Uiso   1.00
C9     C     0.24649   0.16671   0.16688   0.00000  Uiso   1.00
C10    C     0.16654   0.16666   0.07303   0.00000  Uiso   1.00
C11    C     0.16679   0.16668   0.26030   0.00000  Uiso   1.00
C12    C     0.16662   0.16665   0.02183   0.00000  Uiso   1.00
C13    C     0.16671   0.16668   0.31151   0.00000  Uiso   1.00
C14    C     0.02027   0.13643   0.13587   0.00000  Uiso   1.00
C15    C     0.31306   0.19690   0.19747   0.00000  Uiso   1.00
C16    C     0.31070   0.13648   0.13600   0.00000  Uiso   1.00
F17    F     0.03984   0.10807   0.10488   0.00000  Uiso   1.00
F18    F     0.29349   0.22526   0.22846   0.00000  Uiso   1.00
F19    F     0.28870   0.10804   0.10528   0.00000  Uiso   1.00
F20    F     0.04463   0.22529   0.22805   0.00000  Uiso   1.00
H21    H     0.21880   0.07544   0.22842   0.00000  Uiso   1.00
H22    H     0.11453   0.25789   0.10491   0.00000  Uiso   1.00
H23    H     0.11508   0.07518   0.10468   0.00000  Uiso   1.00
H24    H     0.21825   0.25815   0.22865   0.00000  Uiso   1.00
N25    N     0.16667   0.28573   0.16667   0.00000  Uiso   1.00
N26    N     0.16667   0.04760   0.16667   0.00000  Uiso   1.00
O27    O     0.10559   0.20487   0.16666   0.00000  Uiso   1.00
O28    O     0.11888   0.28894   0.09492   0.00000  Uiso   1.00
O29    O     0.11896   0.04403   0.09489   0.00000  Uiso   1.00
O30    O     0.21437   0.28930   0.23844   0.00000  Uiso   1.00
O31    O     0.22774   0.12846   0.16667   0.00000  Uiso   1.00
O32    O     0.22774   0.20487   0.16667   0.00000  Uiso   1.00
O33    O     0.10559   0.12846   0.16666   0.00000  Uiso   1.00
O34    O     0.16667   0.20488   0.09511   0.00000  Uiso   1.00
O35    O     0.16666   0.12845   0.23822   0.00000  Uiso   1.00
O36    O     0.16666   0.20488   0.23822   0.00000  Uiso   1.00
O37    O     0.16667   0.12845   0.09511   0.00000  Uiso   1.00
O38    O     0.21445   0.04439   0.23841   0.00000  Uiso   1.00
Zn39   Zn    0.16667   0.21771   0.16667   0.00000  Uiso   1.00
Zn40   Zn    0.16667   0.11563   0.16667   0.00000  Uiso   1.00
C41    C     0.42018   0.16663   0.16645   0.00000  Uiso   1.00
C42    C     0.35597   0.19685   0.19733   0.00000  Uiso   1.00
C43    C     0.62401   0.16674   0.16678   0.00000  Uiso   1.00
C44    C     0.37599   0.16660   0.16656   0.00000  Uiso   1.00
C45    C     0.52315   0.02372   0.20194   0.00000  Uiso   1.00
C46    C     0.47684   0.30961   0.13139   0.00000  Uiso   1.00
C47    C     0.47687   0.02353   0.13138   0.00000  Uiso   1.00
C48    C     0.52313   0.30980   0.20195   0.00000  Uiso   1.00
C49    C     0.57982   0.16671   0.16688   0.00000  Uiso   1.00
C50    C     0.49988   0.16666   0.07303   0.00000  Uiso   1.00
C51    C     0.50012   0.16668   0.26030   0.00000  Uiso   1.00
C52    C     0.49995   0.16665   0.02183   0.00000  Uiso   1.00
C53    C     0.50005   0.16668   0.31151   0.00000  Uiso   1.00
C54    C     0.35360   0.13643   0.13587   0.00000  Uiso   1.00
C55    C     0.64640   0.19690   0.19747   0.00000  Uiso   1.00
C56    C     0.64403   0.13648   0.13600   0.00000  Uiso   1.00
F57    F     0.37318   0.10807   0.10488   0.00000  Uiso   1.00
F58    F     0.62682   0.22526   0.22846   0.00000  Uiso   1.00
F59    F     0.62203   0.10804   0.10528   0.00000  Uiso   1.00
F60    F     0.37797   0.22529   0.22805   0.00000  Uiso   1.00
H61    H     0.55214   0.07544   0.22842   0.00000  Uiso   1.00
H62    H     0.44786   0.25789   0.10491   0.00000  Uiso   1.00
H63    H     0.44841   0.07518   0.10468   0.00000  Uiso   1.00
H64    H     0.55159   0.25815   0.22865   0.00000  Uiso   1.00
N65    N     0.50000   0.28573   0.16667   0.00000  Uiso   1.00
N66    N     0.50000   0.04760   0.16667   0.00000  Uiso   1.00
O67    O     0.43892   0.20487   0.16666   0.00000  Uiso   1.00
O68    O     0.45222   0.28894   0.09492   0.00000  Uiso   1.00
O69    O     0.45230   0.04403   0.09489   0.00000  Uiso   1.00
O70    O     0.54770   0.28930   0.23844   0.00000  Uiso   1.00
O71    O     0.56108   0.12846   0.16667   0.00000  Uiso   1.00
O72    O     0.56108   0.20487   0.16667   0.00000  Uiso   1.00
O73    O     0.43892   0.12846   0.16666   0.00000  Uiso   1.00
O74    O     0.50000   0.20488   0.09511   0.00000  Uiso   1.00
O75    O     0.50000   0.12845   0.23822   0.00000  Uiso   1.00
O76    O     0.50000   0.20488   0.23822   0.00000  Uiso   1.00
O77    O     0.50000   0.12845   0.09511   0.00000  Uiso   1.00
O78    O     0.54778   0.04439   0.23841   0.00000  Uiso   1.00
Zn79   Zn    0.50000   0.21771   0.16667   0.00000  Uiso   1.00
Zn80   Zn    0.50000   0.11563   0.16667   0.00000  Uiso   1.00
C81    C     0.75351   0.16663   0.16645   0.00000  Uiso   1.00
C82    C     0.68930   0.19685   0.19733   0.00000  Uiso   1.00
C83    C     0.95735   0.16674   0.16678   0.00000  Uiso   1.00
C84    C     0.70932   0.16660   0.16656   0.00000  Uiso   1.00
C85    C     0.85649   0.02372   0.20194   0.00000  Uiso   1.00
C86    C     0.81018   0.30961   0.13139   0.00000  Uiso   1.00
C87    C     0.81020   0.02353   0.13138   0.00000  Uiso   1.00
C88    C     0.85646   0.30980   0.20195   0.00000  Uiso   1.00
C89    C     0.91316   0.16671   0.16688   0.00000  Uiso   1.00
C90    C     0.83321   0.16666   0.07303   0.00000  Uiso   1.00
C91    C     0.83346   0.16668   0.26030   0.00000  Uiso   1.00
C92    C     0.83329   0.16665   0.02183   0.00000  Uiso   1.00
C93    C     0.83338   0.16668   0.31151   0.00000  Uiso   1.00
C94    C     0.68694   0.13643   0.13587   0.00000  Uiso   1.00
C95    C     0.97973   0.19690   0.19747   0.00000  Uiso   1.00
C96    C     0.97736   0.13648   0.13600   0.00000  Uiso   1.00
F97    F     0.70651   0.10807   0.10488   0.00000  Uiso   1.00
F98    F     0.96016   0.22526   0.22846   0.00000  Uiso   1.00
F99    F     0.95537   0.10804   0.10528   0.00000  Uiso   1.00
F100   F     0.71130   0.22529   0.22805   0.00000  Uiso   1.00
H101   H     0.88547   0.07544   0.22842   0.00000  Uiso   1.00
H102   H     0.78120   0.25789   0.10491   0.00000  Uiso   1.00
H103   H     0.78175   0.07518   0.10468   0.00000  Uiso   1.00
H104   H     0.88492   0.25815   0.22865   0.00000  Uiso   1.00
N105   N     0.83333   0.28573   0.16667   0.00000  Uiso   1.00
N106   N     0.83333   0.04760   0.16667   0.00000  Uiso   1.00
O107   O     0.77226   0.20487   0.16666   0.00000  Uiso   1.00
O108   O     0.78555   0.28894   0.09492   0.00000  Uiso   1.00
O109   O     0.78563   0.04403   0.09489   0.00000  Uiso   1.00
O110   O     0.88104   0.28930   0.23844   0.00000  Uiso   1.00
O111   O     0.89441   0.12846   0.16667   0.00000  Uiso   1.00
O112   O     0.89441   0.20487   0.16667   0.00000  Uiso   1.00
O113   O     0.77226   0.12846   0.16666   0.00000  Uiso   1.00
O114   O     0.83334   0.20488   0.09511   0.00000  Uiso   1.00
O115   O     0.83333   0.12845   0.23822   0.00000  Uiso   1.00
O116   O     0.83333   0.20488   0.23822   0.00000  Uiso   1.00
O117   O     0.83334   0.12845   0.09511   0.00000  Uiso   1.00
O118   O     0.88112   0.04439   0.23841   0.00000  Uiso   1.00
Zn119  Zn    0.83333   0.21771   0.16667   0.00000  Uiso   1.00
Zn120  Zn    0.83333   0.11563   0.16667   0.00000  Uiso   1.00
C121   C     0.08684   0.49996   0.16645   0.00000  Uiso   1.00
C122   C     0.02264   0.53019   0.19733   0.00000  Uiso   1.00
C123   C     0.29068   0.50007   0.16678   0.00000  Uiso   1.00
C124   C     0.04265   0.49993   0.16656   0.00000  Uiso   1.00
C125   C     0.18982   0.35705   0.20194   0.00000  Uiso   1.00
C126   C     0.14351   0.64295   0.13139   0.00000  Uiso   1.00
C127   C     0.14354   0.35687   0.13138   0.00000  Uiso   1.00
C128   C     0.18979   0.64313   0.20195   0.00000  Uiso   1.00
C129   C     0.24649   0.50004   0.16688   0.00000  Uiso   1.00
C130   C     0.16654   0.49999   0.07303   0.00000  Uiso   1.00
C131   C     0.16679   0.50001   0.26030   0.00000  Uiso   1.00
C132   C     0.16662   0.49998   0.02183   0.00000  Uiso   1.00
C133   C     0.16671   0.50002   0.31151   0.00000  Uiso   1.00
C134   C     0.02027   0.46976   0.13587   0.00000  Uiso   1.00
C135   C     0.31306   0.53024   0.19747   0.00000  Uiso   1.00
C136   C     0.31070   0.46981   0.13600   0.00000  Uiso   1.00
F137   F     0.03984   0.44141   0.10488   0.00000  Uiso   1.00
F138   F     0.29349   0.55859   0.22846   0.00000  Uiso   1.00
F139   F     0.28870   0.44137   0.10528   0.00000  Uiso   1.00
F140   F     0.04463   0.55863   0.22805   0.00000  Uiso   1.00
H141   H     0.21880   0.40877   0.22842   0.00000  Uiso   1.00
H142   H     0.11453   0.59123   0.10491   0.00000  Uiso   1.00
H143   H     0.11508   0.40851   0.10468   0.00000  Uiso   1.00
H144   H     0.21825   0.59148   0.22865   0.00000  Uiso   1.00
N145   N     0.16667   0.61907   0.16667   0.00000  Uiso   1.00
N146   N     0.16667   0.38093   0.16667   0.00000  Uiso   1.00
O147   O     0.10559   0.53821   0.16666   0.00000  Uiso   1.00
O148   O     0.11888   0.62228   0.09492   0.00000  Uiso   1.00
O149   O     0.11896   0.37736   0.09489   0.00000  Uiso   1.00
O150   O     0.21437   0.62264   0.23844   0.00000  Uiso   1.00
O151   O     0.22774   0.46179   0.16667   0.00000  Uiso   1.00
O152   O     0.22774   0.53821   0.16667   0.00000  Uiso   1.00
O153   O     0.10559   0.46179   0.16666   0.00000  Uiso   1.00
O154   O     0.16667   0.53821   0.09511   0.00000  Uiso   1.00
O155   O     0.16666   0.46179   0.23822   0.00000  Uiso   1.00
O156   O     0.16666   0.53821   0.23822   0.00000  Uiso   1.00
O157   O     0.16667   0.46179   0.09511   0.00000  Uiso   1.00
O158   O     0.21445   0.37772   0.23841   0.00000  Uiso   1.00
Zn159  Zn    0.16667   0.55104   0.16667   0.00000  Uiso   1.00
Zn160  Zn    0.16667   0.44896   0.16667   0.00000  Uiso   1.00
C161   C     0.42018   0.49996   0.16645   0.00000  Uiso   1.00
C162   C     0.35597   0.53019   0.19733   0.00000  Uiso   1.00
C163   C     0.62401   0.50007   0.16678   0.00000  Uiso   1.00
C164   C     0.37599   0.49993   0.16656   0.00000  Uiso   1.00
C165   C     0.52315   0.35705   0.20194   0.00000  Uiso   1.00
C166   C     0.47684   0.64295   0.13139   0.00000  Uiso   1.00
C167   C     0.47687   0.35687   0.13138   0.00000  Uiso   1.00
C168   C     0.52313   0.64313   0.20195   0.00000  Uiso   1.00
C169   C     0.57982   0.50004   0.16688   0.00000  Uiso   1.00
C170   C     0.49988   0.49999   0.07303   0.00000  Uiso   1.00
C171   C     0.50012   0.50001   0.26030   0.00000  Uiso   1.00
C172   C     0.49995   0.49998   0.02183   0.00000  Uiso   1.00
C173   C     0.50005   0.50002   0.31151   0.00000  Uiso   1.00
C174   C     0.35360   0.46976   0.13587   0.00000  Uiso   1.00
C175   C     0.64640   0.53024   0.19747   0.00000  Uiso   1.00
C176   C     0.64403   0.46981   0.13600   0.00000  Uiso   1.00
F177   F     0.37318   0.44141   0.10488   0.00000  Uiso   1.00
F178   F     0.62682   0.55859   0.22846   0.00000  Uiso   1.00
F179   F     0.62203   0.44137   0.10528   0.00000  Uiso   1.00
F180   F     0.37797   0.55863   0.22805   0.00000  Uiso   1.00
H181   H     0.55214   0.40877   0.22842   0.00000  Uiso   1.00
H182   H     0.44786   0.59123   0.10491   0.00000  Uiso   1.00
H183   H     0.44841   0.40851   0.10468   0.00000  Uiso   1.00
H184   H     0.55159   0.59148   0.22865   0.00000  Uiso   1.00
N185   N     0.50000   0.61907   0.16667   0.00000  Uiso   1.00
N186   N     0.50000   0.38093   0.16667   0.00000  Uiso   1.00
O187   O     0.43892   0.53821   0.16666   0.00000  Uiso   1.00
O188   O     0.45222   0.62228   0.09492   0.00000  Uiso   1.00
O189   O     0.45230   0.37736   0.09489   0.00000  Uiso   1.00
O190   O     0.54770   0.62264   0.23844   0.00000  Uiso   1.00
O191   O     0.56108   0.46179   0.16667   0.00000  Uiso   1.00
O192   O     0.56108   0.53821   0.16667   0.00000  Uiso   1.00
O193   O     0.43892   0.46179   0.16666   0.00000  Uiso   1.00
O194   O     0.50000   0.53821   0.09511   0.00000  Uiso   1.00
O195   O     0.50000   0.46179   0.23822   0.00000  Uiso   1.00
O196   O     0.50000   0.53821   0.23822   0.00000  Uiso   1.00
O197   O     0.50000   0.46179   0.09511   0.00000  Uiso   1.00
O198   O     0.54778   0.37772   0.23841   0.00000  Uiso   1.00
Zn199  Zn    0.50000   0.55104   0.16667   0.00000  Uiso   1.00
Zn200  Zn    0.50000   0.44896   0.16667   0.00000  Uiso   1.00
C201   C     0.75351   0.49996   0.16645   0.00000  Uiso   1.00
C202   C     0.68930   0.53019   0.19733   0.00000  Uiso   1.00
C203   C     0.95735   0.50007   0.16678   0.00000  Uiso   1.00
C204   C     0.70932   0.49993   0.16656   0.00000  Uiso   1.00
C205   C     0.85649   0.35705   0.20194   0.00000  Uiso   1.00
C206   C     0.81018   0.64295   0.13139   0.00000  Uiso   1.00
C207   C     0.81020   0.35687   0.13138   0.00000  Uiso   1.00
C208   C     0.85646   0.64313   0.20195   0.00000  Uiso   1.00
C209   C     0.91316   0.50004   0.16688   0.00000  Uiso   1.00
C210   C     0.83321   0.49999   0.07303   0.00000  Uiso   1.00
C211   C     0.83346   0.50001   0.26030   0.00000  Uiso   1.00
C212   C     0.83329   0.49998   0.02183   0.00000  Uiso   1.00
C213   C     0.83338   0.50002   0.31151   0.00000  Uiso   1.00
C214   C     0.68694   0.46976   0.13587   0.00000  Uiso   1.00
C215   C     0.97973   0.53024   0.19747   0.00000  Uiso   1.00
C216   C     0.97736   0.46981   0.13600   0.00000  Uiso   1.00
F217   F     0.70651   0.44141   0.10488   0.00000  Uiso   1.00
F218   F     0.96016   0.55859   0.22846   0.00000  Uiso   1.00
F219   F     0.95537   0.44137   0.10528   0.00000  Uiso   1.00
F220   F     0.71130   0.55863   0.22805   0.00000  Uiso   1.00
H221   H     0.88547   0.40877   0.22842   0.00000  Uiso   1.00
H222   H     0.78120   0.59123   0.10491   0.00000  Uiso   1.00
H223   H     0.78175   0.40851   0.10468   0.00000  Uiso   1.00
H224   H     0.88492   0.59148   0.22865   0.00000  Uiso   1.00
N225   N     0.83333   0.61907   0.16667   0.00000  Uiso   1.00
N226   N     0.83333   0.38093   0.16667   0.00000  Uiso   1.00
O227   O     0.77226   0.53821   0.16666   0.00000  Uiso   1.00
O228   O     0.78555   0.62228   0.09492   0.00000  Uiso   1.00
O229   O     0.78563   0.37736   0.09489   0.00000  Uiso   1.00
O230   O     0.88104   0.62264   0.23844   0.00000  Uiso   1.00
O231   O     0.89441   0.46179   0.16667   0.00000  Uiso   1.00
O232   O     0.89441   0.53821   0.16667   0.00000  Uiso   1.00
O233   O     0.77226   0.46179   0.16666   0.00000  Uiso   1.00
O234   O     0.83334   0.53821   0.09511   0.00000  Uiso   1.00
O235   O     0.83333   0.46179   0.23822   0.00000  Uiso   1.00
O236   O     0.83333   0.53821   0.23822   0.00000  Uiso   1.00
O237   O     0.83334   0.46179   0.09511   0.00000  Uiso   1.00
O238   O     0.88112   0.37772   0.23841   0.00000  Uiso   1.00
Zn239  Zn    0.83333   0.55104   0.16667   0.00000  Uiso   1.00
Zn240  Zn    0.83333   0.44896   0.16667   0.00000  Uiso   1.00
C241   C     0.08684   0.83329   0.16645   0.00000  Uiso   1.00
C242   C     0.02264   0.86352   0.19733   0.00000  Uiso   1.00
C243   C     0.29068   0.83340   0.16678   0.00000  Uiso   1.00
C244   C     0.04265   0.83326   0.16656   0.00000  Uiso   1.00
C245   C     0.18982   0.69039   0.20194   0.00000  Uiso   1.00
C246   C     0.14351   0.97628   0.13139   0.00000  Uiso   1.00
C247   C     0.14354   0.69020   0.13138   0.00000  Uiso   1.00
C248   C     0.18979   0.97647   0.20195   0.00000  Uiso   1.00
C249   C     0.24649   0.83337   0.16688   0.00000  Uiso   1.00
C250   C     0.16654   0.83332   0.07303   0.00000  Uiso   1.00
C251   C     0.16679   0.83334   0.26030   0.00000  Uiso   1.00
C252   C     0.16662   0.83332   0.02183   0.00000  Uiso   1.00
C253   C     0.16671   0.83335   0.31151   0.00000  Uiso   1.00
C254   C     0.02027   0.80310   0.13587   0.00000  Uiso   1.00
C255   C     0.31306   0.86357   0.19747   0.00000  Uiso   1.00
C256   C     0.31070   0.80314   0.13600   0.00000  Uiso   1.00
F257   F     0.03984   0.77474   0.10488   0.00000  Uiso   1.00
F258   F     0.29349   0.89193   0.22846   0.00000  Uiso   1.00
F259   F     0.28870   0.77471   0.10528   0.00000  Uiso   1.00
F260   F     0.04463   0.89196   0.22805   0.00000  Uiso   1.00
H261   H     0.21880   0.74211   0.22842   0.00000  Uiso   1.00
H262   H     0.11453   0.92456   0.10491   0.00000  Uiso   1.00
H263   H     0.11508   0.74185   0.10468   0.00000  Uiso   1.00
H264   H     0.21825   0.92482   0.22865   0.00000  Uiso   1.00
N265   N     0.16667   0.95240   0.16667   0.00000  Uiso   1.00
N266   N     0.16667   0.71427   0.16667   0.00000  Uiso   1.00
O267   O     0.10559   0.87154   0.16666   0.00000  Uiso   1.00
O268   O     0.11888   0.95561   0.09492   0.00000  Uiso   1.00
O269   O     0.11896   0.71069   0.09489   0.00000  Uiso   1.00
O270   O     0.21437   0.95597   0.23844   0.00000  Uiso   1.00
O271   O     0.22774   0.79513   0.16667   0.00000  Uiso   1.00
O272   O     0.22774   0.87154   0.16667   0.00000  Uiso   1.00
O273   O     0.10559   0.79513   0.16666   0.00000  Uiso   1.00
O274   O     0.16667   0.87155   0.09511   0.00000  Uiso   1.00
O275   O     0.16666   0.79512   0.23822   0.00000  Uiso   1.00
O276   O     0.16666   0.87155   0.23822   0.00000  Uiso   1.00
O277   O     0.16667   0.79512   0.09511   0.00000  Uiso   1.00
O278   O     0.21445   0.71106   0.23841   0.00000  Uiso   1.00
Zn279  Zn    0.16667   0.88437   0.16667   0.00000  Uiso   1.00
Zn280  Zn    0.16667   0.78229   0.16667   0.00000  Uiso   1.00
C281   C     0.42018   0.83329   0.16645   0.00000  Uiso   1.00
C282   C     0.35597   0.86352   0.19733   0.00000  Uiso   1.00
C283   C     0.62401   0.83340   0.16678   0.00000  Uiso   1.00
C284   C     0.37599   0.83326   0.16656   0.00000  Uiso   1.00
C285   C     0.52315   0.69039   0.20194   0.00000  Uiso   1.00
C286   C     0.47684   0.97628   0.13139   0.00000  Uiso   1.00
C287   C     0.47687   0.69020   0.13138   0.00000  Uiso   1.00
C288   C     0.52313   0.97647   0.20195   0.00000  Uiso   1.00
C289   C     0.57982   0.83337   0.16688   0.00000  Uiso   1.00
C290   C     0.49988   0.83332   0.07303   0.00000  Uiso   1.00
C291   C     0.50012   0.83334   0.26030   0.00000  Uiso   1.00
C292   C     0.49995   0.83332   0.02183   0.00000  Uiso   1.00
C293   C     0.50005   0.83335   0.31151   0.00000  Uiso   1.00
C294   C     0.35360   0.80310   0.13587   0.00000  Uiso   1.00
C295   C     0.64640   0.86357   0.19747   0.00000  Uiso   1.00
C296   C     0.64403   0.80314   0.13600   0.00000  Uiso   1.00
F297   F     0.37318   0.77474   0.10488   0.00000  Uiso   1.00
F298   F     0.62682   0.89193   0.22846   0.00000  Uiso   1.00
F299   F     0.62203   0.77471   0.10528   0.00000  Uiso   1.00
F300   F     0.37797   0.89196   0.22805   0.00000  Uiso   1.00
H301   H     0.55214   0.74211   0.22842   0.00000  Uiso   1.00
H302   H     0.44786   0.92456   0.10491   0.00000  Uiso   1.00
H303   H     0.44841   0.74185   0.10468   0.00000  Uiso   1.00
H304   H     0.55159   0.92482   0.22865   0.00000  Uiso   1.00
N305   N     0.50000   0.95240   0.16667   0.00000  Uiso   1.00
N306   N     0.50000   0.71427   0.16667   0.00000  Uiso   1.00
O307   O     0.43892   0.87154   0.16666   0.00000  Uiso   1.00
O308   O     0.45222   0.95561   0.09492   0.00000  Uiso   1.00
O309   O     0.45230   0.71069   0.09489   0.00000  Uiso   1.00
O310   O     0.54770   0.95597   0.23844   0.00000  Uiso   1.00
O311   O     0.56108   0.79513   0.16667   0.00000  Uiso   1.00
O312   O     0.56108   0.87154   0.16667   0.00000  Uiso   1.00
O313   O     0.43892   0.79513   0.16666   0.00000  Uiso   1.00
O314   O     0.50000   0.87155   0.09511   0.00000  Uiso   1.00
O315   O     0.50000   0.79512   0.23822   0.00000  Uiso   1.00
O316   O     0.50000   0.87155   0.23822   0.00000  Uiso   1.00
O317   O     0.50000   0.79512   0.09511   0.00000  Uiso   1.00
O318   O     0.54778   0.71106   0.23841   0.00000  Uiso   1.00
Zn319  Zn    0.50000   0.88437   0.16667   0.00000  Uiso   1.00
Zn320  Zn    0.50000   0.78229   0.16667   0.00000  Uiso   1.00
C321   C     0.75351   0.83329   0.16645   0.00000  Uiso   1.00
C322   C     0.68930   0.86352   0.19733   0.00000  Uiso   1.00
C323   C     0.95735   0.83340   0.16678   0.00000  Uiso   1.00
C324   C     0.70932   0.83326   0.16656   0.00000  Uiso   1.00
C325   C     0.85649   0.69039   0.20194   0.00000  Uiso   1.00
C326   C     0.81018   0.97628   0.13139   0.00000  Uiso   1.00
C327   C     0.81020   0.69020   0.13138   0.00000  Uiso   1.00
C328   C     0.85646   0.97647   0.20195   0.00000  Uiso   1.00
C329   C     0.91316   0.83337   0.16688   0.00000  Uiso   1.00
C330   C     0.83321   0.83332   0.07303   0.00000  Uiso   1.00
C331   C     0.83346   0.83334   0.26030   0.00000  Uiso   1.00
C332   C     0.83329   0.83332   0.02183   0.00000  Uiso   1.00
C333   C     0.83338   0.83335   0.31151   0.00000  Uiso   1.00
C334   C     0.68694   0.80310   0.13587   0.00000  Uiso   1.00
C335   C     0.97973   0.86357   0.19747   0.00000  Uiso   1.00
C336   C     0.97736   0.80314   0.13600   0.00000  Uiso   1.00
F337   F     0.70651   0.77474   0.10488   0.00000  Uiso   1.00
F338   F     0.96016   0.89193   0.22846   0.00000  Uiso   1.00
F339   F     0.95537   0.77471   0.10528   0.00000  Uiso   1.00
F340   F     0.71130   0.89196   0.22805   0.00000  Uiso   1.00
H341   H     0.88547   0.74211   0.22842   0.00000  Uiso   1.00
H342   H     0.78120   0.92456   0.10491   0.00000  Uiso   1.00
H343   H     0.78175   0.74185   0.10468   0.00000  Uiso   1.00
H344   H     0.88492   0.92482   0.22865   0.00000  Uiso   1.00
N345   N     0.83333   0.95240   0.16667   0.00000  Uiso   1.00
N346   N     0.83333   0.71427   0.16667   0.00000  Uiso   1.00
O347   O     0.77226   0.87154   0.16666   0.00000  Uiso   1.00
O348   O     0.78555   0.95561   0.09492   0.00000  Uiso   1.00
O349   O     0.78563   0.71069   0.09489   0.00000  Uiso   1.00
O350   O     0.88104   0.95597   0.23844   0.00000  Uiso   1.00
O351   O     0.89441   0.79513   0.16667   0.00000  Uiso   1.00
O352   O     0.89441   0.87154   0.16667   0.00000  Uiso   1.00
O353   O     0.77226   0.79513   0.16666   0.00000  Uiso   1.00
O354   O     0.83334   0.87155   0.09511   0.00000  Uiso   1.00
O355   O     0.83333   0.79512   0.23822   0.00000  Uiso   1.00
O356   O     0.83333   0.87155   0.23822   0.00000  Uiso   1.00
O357   O     0.83334   0.79512   0.09511   0.00000  Uiso   1.00
O358   O     0.88112   0.71106   0.23841   0.00000  Uiso   1.00
Zn359  Zn    0.83333   0.88437   0.16667   0.00000  Uiso   1.00
Zn360  Zn    0.83333   0.78229   0.16667   0.00000  Uiso   1.00
C361   C     0.08684   0.16663   0.49979   0.00000  Uiso   1.00
C362   C     0.02264   0.19685   0.53067   0.00000  Uiso   1.00
C363   C     0.29068   0.16674   0.50011   0.00000  Uiso   1.00
C364   C     0.04265   0.16660   0.49989   0.00000  Uiso   1.00
C365   C     0.18982   0.02372   0.53527   0.00000  Uiso   1.00
C366   C     0.14351   0.30961   0.46473   0.00000  Uiso   1.00
C367   C     0.14354   0.02353   0.46471   0.00000  Uiso   1.00
C368   C     0.18979   0.30980   0.53529   0.00000  Uiso   1.00
C369   C     0.24649   0.16671   0.50021   0.00000  Uiso   1.00
C370   C     0.16654   0.16666   0.40637   0.00000  Uiso   1.00
C371   C     0.16679   0.16668   0.59363   0.00000  Uiso   1.00
C372   C     0.16662   0.16665   0.35516   0.00000  Uiso   1.00
C373   C     0.16671   0.16668   0.64484   0.00000  Uiso   1.00
C374   C     0.02027   0.13643   0.46920   0.00000  Uiso   1.00
C375   C     0.31306   0.19690   0.53080   0.00000  Uiso   1.00
C376   C     0.31070   0.13648   0.46933   0.00000  Uiso   1.00
F377   F     0.03984   0.10807   0.43821   0.00000  Uiso   1.00
F378   F     0.29349   0.22526   0.56179   0.00000  Uiso   1.00
F379   F     0.28870   0.10804   0.43861   0.00000  Uiso   1.00
F380   F     0.04463   0.22529   0.56139   0.00000  Uiso   1.00
H381   H     0.21880   0.07544   0.56176   0.00000  Uiso   1.00
H382   H     0.11453   0.25789   0.43824   0.00000  Uiso   1.00
H383   H     0.11508   0.07518   0.43802   0.00000  Uiso   1.00
H384   H     0.21825   0.25815   0.56198   0.00000  Uiso   1.00
N385   N     0.16667   0.28573   0.50000   0.00000  Uiso   1.00
N386   N     0.16667   0.04760   0.50000   0.00000  Uiso   1.00
O387   O     0.10559   0.20487   0.50000   0.00000  Uiso   1.00
O388   O     0.11888   0.28894   0.42825   0.00000  Uiso   1.00
O389   O     0.11896   0.04403   0.42822   0.00000  Uiso   1.00
O390   O     0.21437   0.28930   0.57178   0.00000  Uiso   1.00
O391   O     0.22774   0.12846   0.50000   0.00000  Uiso   1.00
O392   O     0.22774   0.20487   0.50000   0.00000  Uiso   1.00
O393   O     0.10559   0.12846   0.50000   0.00000  Uiso   1.00
O394   O     0.16667   0.20488   0.42845   0.00000  Uiso   1.00
O395   O     0.16666   0.12845   0.57155   0.00000  Uiso   1.00
O396   O     0.16666   0.20488   0.57155   0.00000  Uiso   1.00
O397   O     0.16667   0.12845   0.42845   0.00000  Uiso   1.00
O398   O     0.21445   0.04439   0.57175   0.00000  Uiso   1.00
Zn399  Zn    0.16667   0.21771   0.50000   0.00000  Uiso   1.00
Zn400  Zn    0.16667   0.11563   0.50000   0.00000  Uiso   1.00
C401   C     0.42018   0.16663   0.49979   0.00000  Uiso   1.00
C402   C     0.35597   0.19685   0.53067   0.00000  Uiso   1.00
C403   C     0.62401   0.16674   0.50011   0.00000  Uiso   1.00
C404   C     0.37599   0.16660   0.49989   0.00000  Uiso   1.00
C405   C     0.52315   0.02372   0.53527   0.00000  Uiso   1.00
C406   C     0.47684   0.30961   0.46473   0.00000  Uiso   1.00
C407   C     0.47687   0.02353   0.46471   0.00000  Uiso   1.00
C408   C     0.52313   0.30980   0.53529   0.00000  Uiso   1.00
C409   C     0.57982   0.16671   0.50021   0.00000  Uiso   1.00
C410   C     0.49988   0.16666   0.40637   0.00000  Uiso   1.00
C411   C     0.50012   0.16668   0.59363   0.00000  Uiso   1.00
C412   C     0.49995   0.16665   0.35516   0.00000  Uiso   1.00
C413   C     0.50005   0.16668   0.64484   0.00000  Uiso   1.00
C414   C     0.35360   0.13643   0.46920   0.00000  Uiso   1.00
C415   C     0.64640   0.19690   0.53080   0.00000  Uiso   1.00
C416   C     0.64403   0.13648   0.46933   0.00000  Uiso   1.00
F417   F     0.37318   0.10807   0.43821   0.00000  Uiso   1.00
F418   F     0.62682   0.22526   0.56179   0.00000  Uiso   1.00
F419   F     0.62203   0.10804   0.43861   0.00000  Uiso   1.00
F420   F     0.37797   0.22529   0.56139   0.00000  Uiso   1.00
H421   H     0.55214   0.07544   0.56176   0.00000  Uiso   1.00
H422   H     0.44786   0.25789   0.43824   0.00000  Uiso   1.00
H423   H     0.44841   0.07518   0.43802   0.00000  Uiso   1.00
H424   H     0.55159   0.25815   0.56198   0.00000  Uiso   1.00
N425   N     0.50000   0.28573   0.50000   0.00000  Uiso   1.00
N426   N     0.50000   0.04760   0.50000   0.00000  Uiso   1.00
O427   O     0.43892   0.20487   0.50000   0.00000  Uiso   1.00
O428   O     0.45222   0.28894   0.42825   0.00000  Uiso   1.00
O429   O     0.45230   0.04403   0.42822   0.00000  Uiso   1.00
O430   O     0.54770   0.28930   0.57178   0.00000  Uiso   1.00
O431   O     0.56108   0.12846   0.50000   0.00000  Uiso   1.00
O432   O     0.56108   0.20487   0.50000   0.00000  Uiso   1.00
O433   O     0.43892   0.12846   0.50000   0.00000  Uiso   1.00
O434   O     0.50000   0.20488   0.42845   0.00000  Uiso   1.00
O435   O     0.50000   0.12845   0.57155   0.00000  Uiso   1.00
O436   O     0.50000   0.20488   0.57155   0.00000  Uiso   1.00
O437   O     0.50000   0.12845   0.42845   0.00000  Uiso   1.00
O438   O     0.54778   0.04439   0.57175   0.00000  Uiso   1.00
Zn439  Zn    0.50000   0.21771   0.50000   0.00000  Uiso   1.00
Zn440  Zn    0.50000   0.11563   0.50000   0.00000  Uiso   1.00
C441   C     0.75351   0.16663   0.49979   0.00000  Uiso   1.00
C442   C     0.68930   0.19685   0.53067   0.00000  Uiso   1.00
C443   C     0.95735   0.16674   0.50011   0.00000  Uiso   1.00
C444   C     0.70932   0.16660   0.49989   0.00000  Uiso   1.00
C445   C     0.85649   0.02372   0.53527   0.00000  Uiso   1.00
C446   C     0.81018   0.30961   0.46473   0.00000  Uiso   1.00
C447   C     0.81020   0.02353   0.46471   0.00000  Uiso   1.00
C448   C     0.85646   0.30980   0.53529   0.00000  Uiso   1.00
C449   C     0.91316   0.16671   0.50021   0.00000  Uiso   1.00
C450   C     0.83321   0.16666   0.40637   0.00000  Uiso   1.00
C451   C     0.83346   0.16668   0.59363   0.00000  Uiso   1.00
C452   C     0.83329   0.16665   0.35516   0.00000  Uiso   1.00
C453   C     0.83338   0.16668   0.64484   0.00000  Uiso   1.00
C454   C     0.68694   0.13643   0.46920   0.00000  Uiso   1.00
C455   C     0.97973   0.19690   0.53080   0.00000  Uiso   1.00
C456   C     0.97736   0.13648   0.46933   0.00000  Uiso   1.00
F457   F     0.70651   0.10807   0.43821   0.00000  Uiso   1.00
F458   F     0.96016   0.22526   0.56179   0.00000  Uiso   1.00
F459   F     0.95537   0.10804   0.43861   0.00000  Uiso   1.00
F460   F     0.71130   0.22529   0.56139   0.00000  Uiso   1.00
H461   H     0.88547   0.07544   0.56176   0.00000  Uiso   1.00
H462   H     0.78120   0.25789   0.43824   0.00000  Uiso   1.00
H463   H     0.78175   0.07518   0.43802   0.00000  Uiso   1.00
H464   H     0.88492   0.25815   0.56198   0.00000  Uiso   1.00
N465   N     0.83333   0.28573   0.50000   0.00000  Uiso   1.00
N466   N     0.83333   0.04760   0.50000   0.00000  Uiso   1.00
O467   O     0.77226   0.20487   0.50000   0.00000  Uiso   1.00
O468   O     0.78555   0.28894   0.42825   0.00000  Uiso   1.00
O469   O     0.78563   0.04403   0.42822   0.00000  Uiso   1.00
O470   O     0.88104   0.28930   0.57178   0.00000  Uiso   1.00
O471   O     0.89441   0.12846   0.50000   0.00000  Uiso   1.00
O472   O     0.89441   0.20487   0.50000   0.00000  Uiso   1.00
O473   O     0.77226   0.12846   0.50000   0.00000  Uiso   1.00
O474   O     0.83334   0.20488   0.42845   0.00000  Uiso   1.00
O475   O     0.83333   0.12845   0.57155   0.00000  Uiso   1.00
O476   O     0.83333   0.20488   0.57155   0.00000  Uiso   1.00
O477   O     0.83334   0.12845   0.42845   0.00000  Uiso   1.00
O478   O     0.88112   0.04439   0.57175   0.00000  Uiso   1.00
Zn479  Zn    0.83333   0.21771   0.50000   0.00000  Uiso   1.00
Zn480  Zn    0.83333   0.11563   0.50000   0.00000  Uiso   1.00
C481   C     0.08684   0.49996   0.49979   0.00000  Uiso   1.00
C482   C     0.02264   0.53019   0.53067   0.00000  Uiso   1.00
C483   C     0.29068   0.50007   0.50011   0.00000  Uiso   1.00
C484   C     0.04265   0.49993   0.49989   0.00000  Uiso   1.00
C485   C     0.18982   0.35705   0.53527   0.00000  Uiso   1.00
C486   C     0.14351   0.64295   0.46473   0.00000  Uiso   1.00
C487   C     0.14354   0.35687   0.46471   0.00000  Uiso   1.00
C488   C     0.18979   0.64313   0.53529   0.00000  Uiso   1.00
C489   C     0.24649   0.50004   0.50021   0.00000  Uiso   1.00
C490   C     0.16654   0.49999   0.40637   0.00000  Uiso   1.00
C491   C     0.16679   0.50001   0.59363   0.00000  Uiso   1.00
C492   C     0.16662   0.49998   0.35516   0.00000  Uiso   1.00
C493   C     0.16671   0.50002   0.64484   0.00000  Uiso   1.00
C494   C     0.02027   0.46976   0.46920   0.00000  Uiso   1.00
C495   C     0.31306   0.53024   0.53080   0.00000  Uiso   1.00
C496   C     0.31070   0.46981   0.46933   0.00000  Uiso   1.00
F497   F     0.03984   0.44141   0.43821   0.00000  Uiso   1.00
F498   F     0.29349   0.55859   0.56179   0.00000  Uiso   1.00
F499   F     0.28870   0.44137   0.43861   0.00000  Uiso   1.00
F500   F     0.04463   0.55863   0.56139   0.00000  Uiso   1.00
H501   H     0.21880   0.40877   0.56176   0.00000  Uiso   1.00
H502   H     0.11453   0.59123   0.43824   0.00000  Uiso   1.00
H503   H     0.11508   0.40851   0.43802   0.00000  Uiso   1.00
H504   H     0.21825   0.59148   0.56198   0.00000  Uiso   1.00
N505   N     0.16667   0.61907   0.50000   0.00000  Uiso   1.00
N506   N     0.16667   0.38093   0.50000   0.00000  Uiso   1.00
O507   O     0.10559   0.53821   0.50000   0.00000  Uiso   1.00
O508   O     0.11888   0.62228   0.42825   0.00000  Uiso   1.00
O509   O     0.11896   0.37736   0.42822   0.00000  Uiso   1.00
O510   O     0.21437   0.62264   0.57178   0.00000  Uiso   1.00
O511   O     0.22774   0.46179   0.50000   0.00000  Uiso   1.00
O512   O     0.22774   0.53821   0.50000   0.00000  Uiso   1.00
O513   O     0.10559   0.46179   0.50000   0.00000  Uiso   1.00
O514   O     0.16667   0.53821   0.42845   0.00000  Uiso   1.00
O515   O     0.16666   0.46179   0.57155   0.00000  Uiso   1.00
O516   O     0.16666   0.53821   0.57155   0.00000  Uiso   1.00
O517   O     0.16667   0.46179   0.42845   0.00000  Uiso   1.00
O518   O     0.21445   0.37772   0.57175   0.00000  Uiso   1.00
Zn519  Zn    0.16667   0.55104   0.50000   0.00000  Uiso   1.00
Zn520  Zn    0.16667   0.44896   0.50000   0.00000  Uiso   1.00
C521   C     0.42018   0.49996   0.49979   0.00000  Uiso   1.00
C522   C     0.35597   0.53019   0.53067   0.00000  Uiso   1.00
C523   C     0.62401   0.50007   0.50011   0.00000  Uiso   1.00
C524   C     0.37599   0.49993   0.49989   0.00000  Uiso   1.00
C525   C     0.52315   0.35705   0.53527   0.00000  Uiso   1.00
C526   C     0.47684   0.64295   0.46473   0.00000  Uiso   1.00
C527   C     0.47687   0.35687   0.46471   0.00000  Uiso   1.00
C528   C     0.52313   0.64313   0.53529   0.00000  Uiso   1.00
C529   C     0.57982   0.50004   0.50021   0.00000  Uiso   1.00
C530   C     0.49988   0.49999   0.40637   0.00000  Uiso   1.00
C531   C     0.50012   0.50001   0.59363   0.00000  Uiso   1.00
C532   C     0.49995   0.49998   0.35516   0.00000  Uiso   1.00
C533   C     0.50005   0.50002   0.64484   0.00000  Uiso   1.00
C534   C     0.35360   0.46976   0.46920   0.00000  Uiso   1.00
C535   C     0.64640   0.53024   0.53080   0.00000  Uiso   1.00
C536   C     0.64403   0.46981   0.46933   0.00000  Uiso   1.00
F537   F     0.37318   0.44141   0.43821   0.00000  Uiso   1.00
F538   F     0.62682   0.55859   0.56179   0.00000  Uiso   1.00
F539   F     0.62203   0.44137   0.43861   0.00000  Uiso   1.00
F540   F     0.37797   0.55863   0.56139   0.00000  Uiso   1.00
H541   H     0.55214   0.40877   0.56176   0.00000  Uiso   1.00
H542   H     0.44786   0.59123   0.43824   0.00000  Uiso   1.00
H543   H     0.44841   0.40851   0.43802   0.00000  Uiso   1.00
H544   H     0.55159   0.59148   0.56198   0.00000  Uiso   1.00
N545   N     0.50000   0.61907   0.50000   0.00000  Uiso   1.00
N546   N     0.50000   0.38093   0.50000   0.00000  Uiso   1.00
O547   O     0.43892   0.53821   0.50000   0.00000  Uiso   1.00
O548   O     0.45222   0.62228   0.42825   0.00000  Uiso   1.00
O549   O     0.45230   0.37736   0.42822   0.00000  Uiso   1.00
O550   O     0.54770   0.62264   0.57178   0.00000  Uiso   1.00
O551   O     0.56108   0.46179   0.50000   0.00000  Uiso   1.00
O552   O     0.56108   0.53821   0.50000   0.00000  Uiso   1.00
O553   O     0.43892   0.46179   0.50000   0.00000  Uiso   1.00
O554   O     0.50000   0.53821   0.42845   0.00000  Uiso   1.00
O555   O     0.50000   0.46179   0.57155   0.00000  Uiso   1.00
O556   O     0.50000   0.53821   0.57155   0.00000  Uiso   1.00
O557   O     0.50000   0.46179   0.42845   0.00000  Uiso   1.00
O558   O     0.54778   0.37772   0.57175   0.00000  Uiso   1.00
Zn559  Zn    0.50000   0.55104   0.50000   0.00000  Uiso   1.00
Zn560  Zn    0.50000   0.44896   0.50000   0.00000  Uiso   1.00
C561   C     0.75351   0.49996   0.49979   0.00000  Uiso   1.00
C562   C     0.68930   0.53019   0.53067   0.00000  Uiso   1.00
C563   C     0.95735   0.50007   0.50011   0.00000  Uiso   1.00
C564   C     0.70932   0.49993   0.49989   0.00000  Uiso   1.00
C565   C     0.85649   0.35705   0.53527   0.00000  Uiso   1.00
C566   C     0.81018   0.64295   0.46473   0.00000  Uiso   1.00
C567   C     0.81020   0.35687   0.46471   0.00000  Uiso   1.00
C568   C     0.85646   0.64313   0.53529   0.00000  Uiso   1.00
C569   C     0.91316   0.50004   0.50021   0.00000  Uiso   1.00
C570   C     0.83321   0.49999   0.40637   0.00000  Uiso   1.00
C571   C     0.83346   0.50001   0.59363   0.00000  Uiso   1.00
C572   C     0.83329   0.49998   0.35516   0.00000  Uiso   1.00
C573   C     0.83338   0.50002   0.64484   0.00000  Uiso   1.00
C574   C     0.68694   0.46976   0.46920   0.00000  Uiso   1.00
C575   C     0.97973   0.53024   0.53080   0.00000  Uiso   1.00
C576   C     0.97736   0.46981   0.46933   0.00000  Uiso   1.00
F577   F     0.70651   0.44141   0.43821   0.00000  Uiso   1.00
F578   F     0.96016   0.55859   0.56179   0.00000  Uiso   1.00
F579   F     0.95537   0.44137   0.43861   0.00000  Uiso   1.00
F580   F     0.71130   0.55863   0.56139   0.00000  Uiso   1.00
H581   H     0.88547   0.40877   0.56176   0.00000  Uiso   1.00
H582   H     0.78120   0.59123   0.43824   0.00000  Uiso   1.00
H583   H     0.78175   0.40851   0.43802   0.00000  Uiso   1.00
H584   H     0.88492   0.59148   0.56198   0.00000  Uiso   1.00
N585   N     0.83333   0.61907   0.50000   0.00000  Uiso   1.00
N586   N     0.83333   0.38093   0.50000   0.00000  Uiso   1.00
O587   O     0.77226   0.53821   0.50000   0.00000  Uiso   1.00
O588   O     0.78555   0.62228   0.42825   0.00000  Uiso   1.00
O589   O     0.78563   0.37736   0.42822   0.00000  Uiso   1.00
O590   O     0.88104   0.62264   0.57178   0.00000  Uiso   1.00
O591   O     0.89441   0.46179   0.50000   0.00000  Uiso   1.00
O592   O     0.89441   0.53821   0.50000   0.00000  Uiso   1.00
O593   O     0.77226   0.46179   0.50000   0.00000  Uiso   1.00
O594   O     0.83334   0.53821   0.42845   0.00000  Uiso   1.00
O595   O     0.83333   0.46179   0.57155   0.00000  Uiso   1.00
O596   O     0.83333   0.53821   0.57155   0.00000  Uiso   1.00
O597   O     0.83334   0.46179   0.42845   0.00000  Uiso   1.00
O598   O     0.88112   0.37772   0.57175   0.00000  Uiso   1.00
Zn599  Zn    0.83333   0.55104   0.50000   0.00000  Uiso   1.00
Zn600  Zn    0.83333   0.44896   0.50000   0.00000  Uiso   1.00
C601   C     0.08684   0.83329   0.49979   0.00000  Uiso   1.00
C602   C     0.02264   0.86352   0.53067   0.00000  Uiso   1.00
C603   C     0.29068   0.83340   0.50011   0.00000  Uiso   1.00
C604   C     0.04265   0.83326   0.49989   0.00000  Uiso   1.00
C605   C     0.18982   0.69039   0.53527   0.00000  Uiso   1.00
C606   C     0.14351   0.97628   0.46473   0.00000  Uiso   1.00
C607   C     0.14354   0.69020   0.46471   0.00000  Uiso   1.00
C608   C     0.18979   0.97647   0.53529   0.00000  Uiso   1.00
C609   C     0.24649   0.83337   0.50021   0.00000  Uiso   1.00
C610   C     0.16654   0.83332   0.40637   0.00000  Uiso   1.00
C611   C     0.16679   0.83334   0.59363   0.00000  Uiso   1.00
C612   C     0.16662   0.83332   0.35516   0.00000  Uiso   1.00
C613   C     0.16671   0.83335   0.64484   0.00000  Uiso   1.00
C614   C     0.02027   0.80310   0.46920   0.00000  Uiso   1.00
C615   C     0.31306   0.86357   0.53080   0.00000  Uiso   1.00
C616   C     0.31070   0.80314   0.46933   0.00000  Uiso   1.00
F617   F     0.03984   0.77474   0.43821   0.00000  Uiso   1.00
F618   F     0.29349   0.89193   0.56179   0.00000  Uiso   1.00
F619   F     0.28870   0.77471   0.43861   0.00000  Uiso   1.00
F620   F     0.04463   0.89196   0.56139   0.00000  Uiso   1.00
H621   H     0.21880   0.74211   0.56176   0.00000  Uiso   1.00
H622   H     0.11453   0.92456   0.43824   0.00000  Uiso   1.00
H623   H     0.11508   0.74185   0.43802   0.00000  Uiso   1.00
H624   H     0.21825   0.92482   0.56198   0.00000  Uiso   1.00
N625   N     0.16667   0.95240   0.50000   0.00000  Uiso   1.00
N626   N     0.16667   0.71427   0.50000   0.00000  Uiso   1.00
O627   O     0.10559   0.87154   0.50000   0.00000  Uiso   1.00
O628   O     0.11888   0.95561   0.42825   0.00000  Uiso   1.00
O629   O     0.11896   0.71069   0.42822   0.00000  Uiso   1.00
O630   O     0.21437   0.95597   0.57178   0.00000  Uiso   1.00
O631   O     0.22774   0.79513   0.50000   0.00000  Uiso   1.00
O632   O     0.22774   0.87154   0.50000   0.00000  Uiso   1.00
O633   O     0.10559   0.79513   0.50000   0.00000  Uiso   1.00
O634   O     0.16667   0.87155   0.42845   0.00000  Uiso   1.00
O635   O     0.16666   0.79512   0.57155   0.00000  Uiso   1.00
O636   O     0.16666   0.87155   0.57155   0.00000  Uiso   1.00
O637   O     0.16667   0.79512   0.42845   0.00000  Uiso   1.00
O638   O     0.21445   0.71106   0.57175   0.00000  Uiso   1.00
Zn639  Zn    0.16667   0.88437   0.50000   0.00000  Uiso   1.00
Zn640  Zn    0.16667   0.78229   0.50000   0.00000  Uiso   1.00
C641   C     0.42018   0.83329   0.49979   0.00000  Uiso   1.00
C642   C     0.35597   0.86352   0.53067   0.00000  Uiso   1.00
C643   C     0.62401   0.83340   0.50011   0.00000  Uiso   1.00
C644   C     0.37599   0.83326   0.49989   0.00000  Uiso   1.00
C645   C     0.52315   0.69039   0.53527   0.00000  Uiso   1.00
C646   C     0.47684   0.97628   0.46473   0.00000  Uiso   1.00
C647   C     0.47687   0.69020   0.46471   0.00000  Uiso   1.00
C648   C     0.52313   0.97647   0.53529   0.00000  Uiso   1.00
C649   C     0.57982   0.83337   0.50021   0.00000  Uiso   1.00
C650   C     0.49988   0.83332   0.40637   0.00000  Uiso   1.00
C651   C     0.50012   0.83334   0.59363   0.00000  Uiso   1.00
C652   C     0.49995   0.83332   0.35516   0.00000  Uiso   1.00
C653   C     0.50005   0.83335   0.64484   0.00000  Uiso   1.00
C654   C     0.35360   0.80310   0.46920   0.00000  Uiso   1.00
C655   C     0.64640   0.86357   0.53080   0.00000  Uiso   1.00
C656   C     0.64403   0.80314   0.46933   0.00000  Uiso   1.00
F657   F     0.37318   0.77474   0.43821   0.00000  Uiso   1.00
F658   F     0.62682   0.89193   0.56179   0.00000  Uiso   1.00
F659   F     0.62203   0.77471   0.43861   0.00000  Uiso   1.00
F660   F     0.37797   0.89196   0.56139   0.00000  Uiso   1.00
H661   H     0.55214   0.74211   0.56176   0.00000  Uiso   1.00
H662   H     0.44786   0.92456   0.43824   0.00000  Uiso   1.00
H663   H     0.44841   0.74185   0.43802   0.00000  Uiso   1.00
H664   H     0.55159   0.92482   0.56198   0.00000  Uiso   1.00
N665   N     0.50000   0.95240   0.50000   0.00000  Uiso   1.00
N666   N     0.50000   0.71427   0.50000   0.00000  Uiso   1.00
O667   O     0.43892   0.87154   0.50000   0.00000  Uiso   1.00
O668   O     0.45222   0.95561   0.42825   0.00000  Uiso   1.00
O669   O     0.45230   0.71069   0.42822   0.00000  Uiso   1.00
O670   O     0.54770   0.95597   0.57178   0.00000  Uiso   1.00
O671   O     0.56108   0.79513   0.50000   0.00000  Uiso   1.00
O672   O     0.56108   0.87154   0.50000   0.00000  Uiso   1.00
O673   O     0.43892   0.79513   0.50000   0.00000  Uiso   1.00
O674   O     0.50000   0.87155   0.42845   0.00000  Uiso   1.00
O675   O     0.50000   0.79512   0.57155   0.00000  Uiso   1.00
O676   O     0.50000   0.87155   0.57155   0.00000  Uiso   1.00
O677   O     0.50000   0.79512   0.42845   0.00000  Uiso   1.00
O678   O     0.54778   0.71106   0.57175   0.00000  Uiso   1.00
Zn679  Zn    0.50000   0.88437   0.50000   0.00000  Uiso   1.00
Zn680  Zn    0.50000   0.78229   0.50000   0.00000  Uiso   1.00
C681   C     0.75351   0.83329   0.49979   0.00000  Uiso   1.00
C682   C     0.68930   0.86352   0.53067   0.00000  Uiso   1.00
C683   C     0.95735   0.83340   0.50011   0.00000  Uiso   1.00
C684   C     0.70932   0.83326   0.49989   0.00000  Uiso   1.00
C685   C     0.85649   0.69039   0.53527   0.00000  Uiso   1.00
C686   C     0.81018   0.97628   0.46473   0.00000  Uiso   1.00
C687   C     0.81020   0.69020   0.46471   0.00000  Uiso   1.00
C688   C     0.85646   0.97647   0.53529   0.00000  Uiso   1.00
C689   C     0.91316   0.83337   0.50021   0.00000  Uiso   1.00
C690   C     0.83321   0.83332   0.40637   0.00000  Uiso   1.00
C691   C     0.83346   0.83334   0.59363   0.00000  Uiso   1.00
C692   C     0.83329   0.83332   0.35516   0.00000  Uiso   1.00
C693   C     0.83338   0.83335   0.64484   0.00000  Uiso   1.00
C694   C     0.68694   0.80310   0.46920   0.00000  Uiso   1.00
C695   C     0.97973   0.86357   0.53080   0.00000  Uiso   1.00
C696   C     0.97736   0.80314   0.46933   0.00000  Uiso   1.00
F697   F     0.70651   0.77474   0.43821   0.00000  Uiso   1.00
F698   F     0.96016   0.89193   0.56179   0.00000  Uiso   1.00
F699   F     0.95537   0.77471   0.43861   0.00000  Uiso   1.00
F700   F     0.71130   0.89196   0.56139   0.00000  Uiso   1.00
H701   H     0.88547   0.74211   0.56176   0.00000  Uiso   1.00
H702   H     0.78120   0.92456   0.43824   0.00000  Uiso   1.00
H703   H     0.78175   0.74185   0.43802   0.00000  Uiso   1.00
H704   H     0.88492   0.92482   0.56198   0.00000  Uiso   1.00
N705   N     0.83333   0.95240   0.50000   0.00000  Uiso   1.00
N706   N     0.83333   0.71427   0.50000   0.00000  Uiso   1.00
O707   O     0.77226   0.87154   0.50000   0.00000  Uiso   1.00
O708   O     0.78555   0.95561   0.42825   0.00000  Uiso   1.00
O709   O     0.78563   0.71069   0.42822   0.00000  Uiso   1.00
O710   O     0.88104   0.95597   0.57178   0.00000  Uiso   1.00
O711   O     0.89441   0.79513   0.50000   0.00000  Uiso   1.00
O712   O     0.89441   0.87154   0.50000   0.00000  Uiso   1.00
O713   O     0.77226   0.79513   0.50000   0.00000  Uiso   1.00
O714   O     0.83334   0.87155   0.42845   0.00000  Uiso   1.00
O715   O     0.83333   0.79512   0.57155   0.00000  Uiso   1.00
O716   O     0.83333   0.87155   0.57155   0.00000  Uiso   1.00
O717   O     0.83334   0.79512   0.42845   0.00000  Uiso   1.00
O718   O     0.88112   0.71106   0.57175   0.00000  Uiso   1.00
Zn719  Zn    0.83333   0.88437   0.50000   0.00000  Uiso   1.00
Zn720  Zn    0.83333   0.78229   0.50000   0.00000  Uiso   1.00
C721   C     0.08684   0.16663   0.83312   0.00000  Uiso   1.00
C722   C     0.02264   0.19685   0.86400   0.00000  Uiso   1.00
C723   C     0.29068   0.16674   0.83344   0.00000  Uiso   1.00
C724   C     0.04265   0.16660   0.83322   0.00000  Uiso   1.00
C725   C     0.18982   0.02372   0.86861   0.00000  Uiso   1.00
C726   C     0.14351   0.30961   0.79806   0.00000  Uiso   1.00
C727   C     0.14354   0.02353   0.79805   0.00000  Uiso   1.00
C728   C     0.18979   0.30980   0.86862   0.00000  Uiso   1.00
C729   C     0.24649   0.16671   0.83355   0.00000  Uiso   1.00
C730   C     0.16654   0.16666   0.73970   0.00000  Uiso   1.00
C731   C     0.16679   0.16668   0.92697   0.00000  Uiso   1.00
C732   C     0.16662   0.16665   0.68849   0.00000  Uiso   1.00
C733   C     0.16671   0.16668   0.97817   0.00000  Uiso   1.00
C734   C     0.02027   0.13643   0.80253   0.00000  Uiso   1.00
C735   C     0.31306   0.19690   0.86413   0.00000  Uiso   1.00
C736   C     0.31070   0.13648   0.80267   0.00000  Uiso   1.00
F737   F     0.03984   0.10807   0.77154   0.00000  Uiso   1.00
F738   F     0.29349   0.22526   0.89512   0.00000  Uiso   1.00
F739   F     0.28870   0.10804   0.77195   0.00000  Uiso   1.00
F740   F     0.04463   0.22529   0.89472   0.00000  Uiso   1.00
H741   H     0.21880   0.07544   0.89509   0.00000  Uiso   1.00
H742   H     0.11453   0.25789   0.77158   0.00000  Uiso   1.00
H743   H     0.11508   0.07518   0.77135   0.00000  Uiso   1.00
H744   H     0.21825   0.25815   0.89532   0.00000  Uiso   1.00
N745   N     0.16667   0.28573   0.83333   0.00000  Uiso   1.00
N746   N     0.16667   0.04760   0.83333   0.00000  Uiso   1.00
O747   O     0.10559   0.20487   0.83333   0.00000  Uiso   1.00
O748   O     0.11888   0.28894   0.76159   0.00000  Uiso   1.00
O749   O     0.11896   0.04403   0.76156   0.00000  Uiso   1.00
O750   O     0.21437   0.28930   0.90511   0.00000  Uiso   1.00
O751   O     0.22774   0.12846   0.83334   0.00000  Uiso   1.00
O752   O     0.22774   0.20487   0.83334   0.00000  Uiso   1.00
O753   O     0.10559   0.12846   0.83333   0.00000  Uiso   1.00
O754   O     0.16667   0.20488   0.76178   0.00000  Uiso   1.00
O755   O     0.16666   0.12845   0.90489   0.00000  Uiso   1.00
O756   O     0.16666   0.20488   0.90489   0.00000  Uiso   1.00
O757   O     0.16667   0.12845   0.76178   0.00000  Uiso   1.00
O758   O     0.21445   0.04439   0.90508   0.00000  Uiso   1.00
Zn759  Zn    0.16667   0.21771   0.83333   0.00000  Uiso   1.00
Zn760  Zn    0.16667   0.11563   0.83333   0.00000  Uiso   1.00
C761   C     0.42018   0.16663   0.83312   0.00000  Uiso   1.00
C762   C     0.35597   0.19685   0.86400   0.00000  Uiso   1.00
C763   C     0.62401   0.16674   0.83344   0.00000  Uiso   1.00
C764   C     0.37599   0.16660   0.83322   0.00000  Uiso   1.00
C765   C     0.52315   0.02372   0.86861   0.00000  Uiso   1.00
C766   C     0.47684   0.30961   0.79806   0.00000  Uiso   1.00
C767   C     0.47687   0.02353   0.79805   0.00000  Uiso   1.00
C768   C     0.52313   0.30980   0.86862   0.00000  Uiso   1.00
C769   C     0.57982   0.16671   0.83355   0.00000  Uiso   1.00
C770   C     0.49988   0.16666   0.73970   0.00000  Uiso   1.00
C771   C     0.50012   0.16668   0.92697   0.00000  Uiso   1.00
C772   C     0.49995   0.16665   0.68849   0.00000  Uiso   1.00
C773   C     0.50005   0.16668   0.97817   0.00000  Uiso   1.00
C774   C     0.35360   0.13643   0.80253   0.00000  Uiso   1.00
C775   C     0.64640   0.19690   0.86413   0.00000  Uiso   1.00
C776   C     0.64403   0.13648   0.80267   0.00000  Uiso   1.00
F777   F     0.37318   0.10807   0.77154   0.00000  Uiso   1.00
F778   F     0.62682   0.22526   0.89512   0.00000  Uiso   1.00
F779   F     0.62203   0.10804   0.77195   0.00000  Uiso   1.00
F780   F     0.37797   0.22529   0.89472   0.00000  Uiso   1.00
H781   H     0.55214   0.07544   0.89509   0.00000  Uiso   1.00
H782   H     0.44786   0.25789   0.77158   0.00000  Uiso   1.00
H783   H     0.44841   0.07518   0.77135   0.00000  Uiso   1.00
H784   H     0.55159   0.25815   0.89532   0.00000  Uiso   1.00
N785   N     0.50000   0.28573   0.83333   0.00000  Uiso   1.00
N786   N     0.50000   0.04760   0.83333   0.00000  Uiso   1.00
O787   O     0.43892   0.20487   0.83333   0.00000  Uiso   1.00
O788   O     0.45222   0.28894   0.76159   0.00000  Uiso   1.00
O789   O     0.45230   0.04403   0.76156   0.00000  Uiso   1.00
O790   O     0.54770   0.28930   0.90511   0.00000  Uiso   1.00
O791   O     0.56108   0.12846   0.83334   0.00000  Uiso   1.00
O792   O     0.56108   0.20487   0.83334   0.00000  Uiso   1.00
O793   O     0.43892   0.12846   0.83333   0.00000  Uiso   1.00
O794   O     0.50000   0.20488   0.76178   0.00000  Uiso   1.00
O795   O     0.50000   0.12845   0.90489   0.00000  Uiso   1.00
O796   O     0.50000   0.20488   0.90489   0.00000  Uiso   1.00
O797   O     0.50000   0.12845   0.76178   0.00000  Uiso   1.00
O798   O     0.54778   0.04439   0.90508   0.00000  Uiso   1.00
Zn799  Zn    0.50000   0.21771   0.83333   0.00000  Uiso   1.00
Zn800  Zn    0.50000   0.11563   0.83333   0.00000  Uiso   1.00
C801   C     0.75351   0.16663   0.83312   0.00000  Uiso   1.00
C802   C     0.68930   0.19685   0.86400   0.00000  Uiso   1.00
C803   C     0.95735   0.16674   0.83344   0.00000  Uiso   1.00
C804   C     0.70932   0.16660   0.83322   0.00000  Uiso   1.00
C805   C     0.85649   0.02372   0.86861   0.00000  Uiso   1.00
C806   C     0.81018   0.30961   0.79806   0.00000  Uiso   1.00
C807   C     0.81020   0.02353   0.79805   0.00000  Uiso   1.00
C808   C     0.85646   0.30980   0.86862   0.00000  Uiso   1.00
C809   C     0.91316   0.16671   0.83355   0.00000  Uiso   1.00
C810   C     0.83321   0.16666   0.73970   0.00000  Uiso   1.00
C811   C     0.83346   0.16668   0.92697   0.00000  Uiso   1.00
C812   C     0.83329   0.16665   0.68849   0.00000  Uiso   1.00
C813   C     0.83338   0.16668   0.97817   0.00000  Uiso   1.00
C814   C     0.68694   0.13643   0.80253   0.00000  Uiso   1.00
C815   C     0.97973   0.19690   0.86413   0.00000  Uiso   1.00
C816   C     0.97736   0.13648   0.80267   0.00000  Uiso   1.00
F817   F     0.70651   0.10807   0.77154   0.00000  Uiso   1.00
F818   F     0.96016   0.22526   0.89512   0.00000  Uiso   1.00
F819   F     0.95537   0.10804   0.77195   0.00000  Uiso   1.00
F820   F     0.71130   0.22529   0.89472   0.00000  Uiso   1.00
H821   H     0.88547   0.07544   0.89509   0.00000  Uiso   1.00
H822   H     0.78120   0.25789   0.77158   0.00000  Uiso   1.00
H823   H     0.78175   0.07518   0.77135   0.00000  Uiso   1.00
H824   H     0.88492   0.25815   0.89532   0.00000  Uiso   1.00
N825   N     0.83333   0.28573   0.83333   0.00000  Uiso   1.00
N826   N     0.83333   0.04760   0.83333   0.00000  Uiso   1.00
O827   O     0.77226   0.20487   0.83333   0.00000  Uiso   1.00
O828   O     0.78555   0.28894   0.76159   0.00000  Uiso   1.00
O829   O     0.78563   0.04403   0.76156   0.00000  Uiso   1.00
O830   O     0.88104   0.28930   0.90511   0.00000  Uiso   1.00
O831   O     0.89441   0.12846   0.83334   0.00000  Uiso   1.00
O832   O     0.89441   0.20487   0.83334   0.00000  Uiso   1.00
O833   O     0.77226   0.12846   0.83333   0.00000  Uiso   1.00
O834   O     0.83334   0.20488   0.76178   0.00000  Uiso   1.00
O835   O     0.83333   0.12845   0.90489   0.00000  Uiso   1.00
O836   O     0.83333   0.20488   0.90489   0.00000  Uiso   1.00
O837   O     0.83334   0.12845   0.76178   0.00000  Uiso   1.00
O838   O     0.88112   0.04439   0.90508   0.00000  Uiso   1.00
Zn839  Zn    0.83333   0.21771   0.83333   0.00000  Uiso   1.00
Zn840  Zn    0.83333   0.11563   0.83333   0.00000  Uiso   1.00
C841   C     0.08684   0.49996   0.83312   0.00000  Uiso   1.00
C842   C     0.02264   0.53019   0.86400   0.00000  Uiso   1.00
C843   C     0.29068   0.50007   0.83344   0.00000  Uiso   1.00
C844   C     0.04265   0.49993   0.83322   0.00000  Uiso   1.00
C845   C     0.18982   0.35705   0.86861   0.00000  Uiso   1.00
C846   C     0.14351   0.64295   0.79806   0.00000  Uiso   1.00
C847   C     0.14354   0.35687   0.79805   0.00000  Uiso   1.00
C848   C     0.18979   0.64313   0.86862   0.00000  Uiso   1.00
C849   C     0.24649   0.50004   0.83355   0.00000  Uiso   1.00
C850   C     0.16654   0.49999   0.73970   0.00000  Uiso   1.00
C851   C     0.16679   0.50001   0.92697   0.00000  Uiso   1.00
C852   C     0.16662   0.49998   0.68849   0.00000  Uiso   1.00
C853   C     0.16671   0.50002   0.97817   0.00000  Uiso   1.00
C854   C     0.02027   0.46976   0.80253   0.00000  Uiso   1.00
C855   C     0.31306   0.53024   0.86413   0.00000  Uiso   1.00
C856   C     0.31070   0.46981   0.80267   0.00000  Uiso   1.00
F857   F     0.03984   0.44141   0.77154   0.00000  Uiso   1.00
F858   F     0.29349   0.55859   0.89512   0.00000  Uiso   1.00
F859   F     0.28870   0.44137   0.77195   0.00000  Uiso   1.00
F860   F     0.04463   0.55863   0.89472   0.00000  Uiso   1.00
H861   H     0.21880   0.40877   0.89509   0.00000  Uiso   1.00
H862   H     0.11453   0.59123   0.77158   0.00000  Uiso   1.00
H863   H     0.11508   0.40851   0.77135   0.00000  Uiso   1.00
H864   H     0.21825   0.59148   0.89532   0.00000  Uiso   1.00
N865   N     0.16667   0.61907   0.83333   0.00000  Uiso   1.00
N866   N     0.16667   0.38093   0.83333   0.00000  Uiso   1.00
O867   O     0.10559   0.53821   0.83333   0.00000  Uiso   1.00
O868   O     0.11888   0.62228   0.76159   0.00000  Uiso   1.00
O869   O     0.11896   0.37736   0.76156   0.00000  Uiso   1.00
O870   O     0.21437   0.62264   0.90511   0.00000  Uiso   1.00
O871   O     0.22774   0.46179   0.83334   0.00000  Uiso   1.00
O872   O     0.22774   0.53821   0.83334   0.00000  Uiso   1.00
O873   O     0.10559   0.46179   0.83333   0.00000  Uiso   1.00
O874   O     0.16667   0.53821   0.76178   0.00000  Uiso   1.00
O875   O     0.16666   0.46179   0.90489   0.00000  Uiso   1.00
O876   O     0.16666   0.53821   0.90489   0.00000  Uiso   1.00
O877   O     0.16667   0.46179   0.76178   0.00000  Uiso   1.00
O878   O     0.21445   0.37772   0.90508   0.00000  Uiso   1.00
Zn879  Zn    0.16667   0.55104   0.83333   0.00000  Uiso   1.00
Zn880  Zn    0.16667   0.44896   0.83333   0.00000  Uiso   1.00
C881   C     0.42018   0.49996   0.83312   0.00000  Uiso   1.00
C882   C     0.35597   0.53019   0.86400   0.00000  Uiso   1.00
C883   C     0.62401   0.50007   0.83344   0.00000  Uiso   1.00
C884   C     0.37599   0.49993   0.83322   0.00000  Uiso   1.00
C885   C     0.52315   0.35705   0.86861   0.00000  Uiso   1.00
C886   C     0.47684   0.64295   0.79806   0.00000  Uiso   1.00
C887   C     0.47687   0.35687   0.79805   0.00000  Uiso   1.00
C888   C     0.52313   0.64313   0.86862   0.00000  Uiso   1.00
C889   C     0.57982   0.50004   0.83355   0.00000  Uiso   1.00
C890   C     0.49988   0.49999   0.73970   0.00000  Uiso   1.00
C891   C     0.50012   0.50001   0.92697   0.00000  Uiso   1.00
C892   C     0.49995   0.49998   0.68849   0.00000  Uiso   1.00
C893   C     0.50005   0.50002   0.97817   0.00000  Uiso   1.00
C894   C     0.35360   0.46976   0.80253   0.00000  Uiso   1.00
C895   C     0.64640   0.53024   0.86413   0.00000  Uiso   1.00
C896   C     0.64403   0.46981   0.80267   0.00000  Uiso   1.00
F897   F     0.37318   0.44141   0.77154   0.00000  Uiso   1.00
F898   F     0.62682   0.55859   0.89512   0.00000  Uiso   1.00
F899   F     0.62203   0.44137   0.77195   0.00000  Uiso   1.00
F900   F     0.37797   0.55863   0.89472   0.00000  Uiso   1.00
H901   H     0.55214   0.40877   0.89509   0.00000  Uiso   1.00
H902   H     0.44786   0.59123   0.77158   0.00000  Uiso   1.00
H903   H     0.44841   0.40851   0.77135   0.00000  Uiso   1.00
H904   H     0.55159   0.59148   0.89532   0.00000  Uiso   1.00
N905   N     0.50000   0.61907   0.83333   0.00000  Uiso   1.00
N906   N     0.50000   0.38093   0.83333   0.00000  Uiso   1.00
O907   O     0.43892   0.53821   0.83333   0.00000  Uiso   1.00
O908   O     0.45222   0.62228   0.76159   0.00000  Uiso   1.00
O909   O     0.45230   0.37736   0.76156   0.00000  Uiso   1.00
O910   O     0.54770   0.62264   0.90511   0.00000  Uiso   1.00
O911   O     0.56108   0.46179   0.83334   0.00000  Uiso   1.00
O912   O     0.56108   0.53821   0.83334   0.00000  Uiso   1.00
O913   O     0.43892   0.46179   0.83333   0.00000  Uiso   1.00
O914   O     0.50000   0.53821   0.76178   0.00000  Uiso   1.00
O915   O     0.50000   0.46179   0.90489   0.00000  Uiso   1.00
O916   O     0.50000   0.53821   0.90489   0.00000  Uiso   1.00
O917   O     0.50000   0.46179   0.76178   0.00000  Uiso   1.00
O918   O     0.54778   0.37772   0.90508   0.00000  Uiso   1.00
Zn919  Zn    0.50000   0.55104   0.83333   0.00000  Uiso   1.00
Zn920  Zn    0.50000   0.44896   0.83333   0.00000  Uiso   1.00
C921   C     0.75351   0.49996   0.83312   0.00000  Uiso   1.00
C922   C     0.68930   0.53019   0.86400   0.00000  Uiso   1.00
C923   C     0.95735   0.50007   0.83344   0.00000  Uiso   1.00
C924   C     0.70932   0.49993   0.83322   0.00000  Uiso   1.00
C925   C     0.85649   0.35705   0.86861   0.00000  Uiso   1.00
C926   C     0.81018   0.64295   0.79806   0.00000  Uiso   1.00
C927   C     0.81020   0.35687   0.79805   0.00000  Uiso   1.00
C928   C     0.85646   0.64313   0.86862   0.00000  Uiso   1.00
C929   C     0.91316   0.50004   0.83355   0.00000  Uiso   1.00
C930   C     0.83321   0.49999   0.73970   0.00000  Uiso   1.00
C931   C     0.83346   0.50001   0.92697   0.00000  Uiso   1.00
C932   C     0.83329   0.49998   0.68849   0.00000  Uiso   1.00
C933   C     0.83338   0.50002   0.97817   0.00000  Uiso   1.00
C934   C     0.68694   0.46976   0.80253   0.00000  Uiso   1.00
C935   C     0.97973   0.53024   0.86413   0.00000  Uiso   1.00
C936   C     0.97736   0.46981   0.80267   0.00000  Uiso   1.00
F937   F     0.70651   0.44141   0.77154   0.00000  Uiso   1.00
F938   F     0.96016   0.55859   0.89512   0.00000  Uiso   1.00
F939   F     0.95537   0.44137   0.77195   0.00000  Uiso   1.00
F940   F     0.71130   0.55863   0.89472   0.00000  Uiso   1.00
H941   H     0.88547   0.40877   0.89509   0.00000  Uiso   1.00
H942   H     0.78120   0.59123   0.77158   0.00000  Uiso   1.00
H943   H     0.78175   0.40851   0.77135   0.00000  Uiso   1.00
H944   H     0.88492   0.59148   0.89532   0.00000  Uiso   1.00
N945   N     0.83333   0.61907   0.83333   0.00000  Uiso   1.00
N946   N     0.83333   0.38093   0.83333   0.00000  Uiso   1.00
O947   O     0.77226   0.53821   0.83333   0.00000  Uiso   1.00
O948   O     0.78555   0.62228   0.76159   0.00000  Uiso   1.00
O949   O     0.78563   0.37736   0.76156   0.00000  Uiso   1.00
O950   O     0.88104   0.62264   0.90511   0.00000  Uiso   1.00
O951   O     0.89441   0.46179   0.83334   0.00000  Uiso   1.00
O952   O     0.89441   0.53821   0.83334   0.00000  Uiso   1.00
O953   O     0.77226   0.46179   0.83333   0.00000  Uiso   1.00
O954   O     0.83334   0.53821   0.76178   0.00000  Uiso   1.00
O955   O     0.83333   0.46179   0.90489   0.00000  Uiso   1.00
O956   O     0.83333   0.53821   0.90489   0.00000  Uiso   1.00
O957   O     0.83334   0.46179   0.76178   0.00000  Uiso   1.00
O958   O     0.88112   0.37772   0.90508   0.00000  Uiso   1.00
Zn959  Zn    0.83333   0.55104   0.83333   0.00000  Uiso   1.00
Zn960  Zn    0.83333   0.44896   0.83333   0.00000  Uiso   1.00
C961   C     0.08684   0.83329   0.83312   0.00000  Uiso   1.00
C962   C     0.02264   0.86352   0.86400   0.00000  Uiso   1.00
C963   C     0.29068   0.83340   0.83344   0.00000  Uiso   1.00
C964   C     0.04265   0.83326   0.83322   0.00000  Uiso   1.00
C965   C     0.18982   0.69039   0.86861   0.00000  Uiso   1.00
C966   C     0.14351   0.97628   0.79806   0.00000  Uiso   1.00
C967   C     0.14354   0.69020   0.79805   0.00000  Uiso   1.00
C968   C     0.18979   0.97647   0.86862   0.00000  Uiso   1.00
C969   C     0.24649   0.83337   0.83355   0.00000  Uiso   1.00
C970   C     0.16654   0.83332   0.73970   0.00000  Uiso   1.00
C971   C     0.16679   0.83334   0.92697   0.00000  Uiso   1.00
C972   C     0.16662   0.83332   0.68849   0.00000  Uiso   1.00
C973   C     0.16671   0.83335   0.97817   0.00000  Uiso   1.00
C974   C     0.02027   0.80310   0.80253   0.00000  Uiso   1.00
C975   C     0.31306   0.86357   0.86413   0.00000  Uiso   1.00
C976   C     0.31070   0.80314   0.80267   0.00000  Uiso   1.00
F977   F     0.03984   0.77474   0.77154   0.00000  Uiso   1.00
F978   F     0.29349   0.89193   0.89512   0.00000  Uiso   1.00
F979   F     0.28870   0.77471   0.77195   0.00000  Uiso   1.00
F980   F     0.04463   0.89196   0.89472   0.00000  Uiso   1.00
H981   H     0.21880   0.74211   0.89509   0.00000  Uiso   1.00
H982   H     0.11453   0.92456   0.77158   0.00000  Uiso   1.00
H983   H     0.11508   0.74185   0.77135   0.00000  Uiso   1.00
H984   H     0.21825   0.92482   0.89532   0.00000  Uiso   1.00
N985   N     0.16667   0.95240   0.83333   0.00000  Uiso   1.00
N986   N     0.16667   0.71427   0.83333   0.00000  Uiso   1.00
O987   O     0.10559   0.87154   0.83333   0.00000  Uiso   1.00
O988   O     0.11888   0.95561   0.76159   0.00000  Uiso   1.00
O989   O     0.11896   0.71069   0.76156   0.00000  Uiso   1.00
O990   O     0.21437   0.95597   0.90511   0.00000  Uiso   1.00
O991   O     0.22774   0.79513   0.83334   0.00000  Uiso   1.00
O992   O     0.22774   0.87154   0.83334   0.00000  Uiso   1.00
O993   O     0.10559   0.79513   0.83333   0.00000  Uiso   1.00
O994   O     0.16667   0.87155   0.76178   0.00000  Uiso   1.00
O995   O     0.16666   0.79512   0.90489   0.00000  Uiso   1.00
O996   O     0.16666   0.87155   0.90489   0.00000  Uiso   1.00
O997   O     0.16667   0.79512   0.76178   0.00000  Uiso   1.00
O998   O     0.21445   0.71106   0.90508   0.00000  Uiso   1.00
Zn999  Zn    0.16667   0.88437   0.83333   0.00000  Uiso   1.00
Zn1000 Zn    0.16667   0.78229   0.83333   0.00000  Uiso   1.00
C1001  C     0.42018   0.83329   0.83312   0.00000  Uiso   1.00
C1002  C     0.35597   0.86352   0.86400   0.00000  Uiso   1.00
C1003  C     0.62401   0.83340   0.83344   0.00000  Uiso   1.00
C1004  C     0.37599   0.83326   0.83322   0.00000  Uiso   1.00
C1005  C     0.52315   0.69039   0.86861   0.00000  Uiso   1.00
C1006  C     0.47684   0.97628   0.79806   0.00000  Uiso   1.00
C1007  C     0.47687   0.69020   0.79805   0.00000  Uiso   1.00
C1008  C     0.52313   0.97647   0.86862   0.00000  Uiso   1.00
C1009  C     0.57982   0.83337   0.83355   0.00000  Uiso   1.00
C1010  C     0.49988   0.83332   0.73970   0.00000  Uiso   1.00
C1011  C     0.50012   0.83334   0.92697   0.00000  Uiso   1.00
C1012  C     0.49995   0.83332   0.68849   0.00000  Uiso   1.00
C1013  C     0.50005   0.83335   0.97817   0.00000  Uiso   1.00
C1014  C     0.35360   0.80310   0.80253   0.00000  Uiso   1.00
C1015  C     0.64640   0.86357   0.86413   0.00000  Uiso   1.00
C1016  C     0.64403   0.80314   0.80267   0.00000  Uiso   1.00
F1017  F     0.37318   0.77474   0.77154   0.00000  Uiso   1.00
F1018  F     0.62682   0.89193   0.89512   0.00000  Uiso   1.00
F1019  F     0.62203   0.77471   0.77195   0.00000  Uiso   1.00
F1020  F     0.37797   0.89196   0.89472   0.00000  Uiso   1.00
H1021  H     0.55214   0.74211   0.89509   0.00000  Uiso   1.00
H1022  H     0.44786   0.92456   0.77158   0.00000  Uiso   1.00
H1023  H     0.44841   0.74185   0.77135   0.00000  Uiso   1.00
H1024  H     0.55159   0.92482   0.89532   0.00000  Uiso   1.00
N1025  N     0.50000   0.95240   0.83333   0.00000  Uiso   1.00
N1026  N     0.50000   0.71427   0.83333   0.00000  Uiso   1.00
O1027  O     0.43892   0.87154   0.83333   0.00000  Uiso   1.00
O1028  O     0.45222   0.95561   0.76159   0.00000  Uiso   1.00
O1029  O     0.45230   0.71069   0.76156   0.00000  Uiso   1.00
O1030  O     0.54770   0.95597   0.90511   0.00000  Uiso   1.00
O1031  O     0.56108   0.79513   0.83334   0.00000  Uiso   1.00
O1032  O     0.56108   0.87154   0.83334   0.00000  Uiso   1.00
O1033  O     0.43892   0.79513   0.83333   0.00000  Uiso   1.00
O1034  O     0.50000   0.87155   0.76178   0.00000  Uiso   1.00
O1035  O     0.50000   0.79512   0.90489   0.00000  Uiso   1.00
O1036  O     0.50000   0.87155   0.90489   0.00000  Uiso   1.00
O1037  O     0.50000   0.79512   0.76178   0.00000  Uiso   1.00
O1038  O     0.54778   0.71106   0.90508   0.00000  Uiso   1.00
Zn1039 Zn    0.50000   0.88437   0.83333   0.00000  Uiso   1.00
Zn1040 Zn    0.50000   0.78229   0.83333   0.00000  Uiso   1.00
C1041  C     0.75351   0.83329   0.83312   0.00000  Uiso   1.00
C1042  C     0.68930   0.86352   0.86400   0.00000  Uiso   1.00
C1043  C     0.95735   0.83340   0.83344   0.00000  Uiso   1.00
C1044  C     0.70932   0.83326   0.83322   0.00000  Uiso   1.00
C1045  C     0.85649   0.69039   0.86861   0.00000  Uiso   1.00
C1046  C     0.81018   0.97628   0.79806   0.00000  Uiso   1.00
C1047  C     0.81020   0.69020   0.79805   0.00000  Uiso   1.00
C1048  C     0.85646   0.97647   0.86862   0.00000  Uiso   1.00
C1049  C     0.91316   0.83337   0.83355   0.00000  Uiso   1.00
C1050  C     0.83321   0.83332   0.73970   0.00000  Uiso   1.00
C1051  C     0.83346   0.83334   0.92697   0.00000  Uiso   1.00
C1052  C     0.83329   0.83332   0.68849   0.00000  Uiso   1.00
C1053  C     0.83338   0.83335   0.97817   0.00000  Uiso   1.00
C1054  C     0.68694   0.80310   0.80253   0.00000  Uiso   1.00
C1055  C     0.97973   0.86357   0.86413   0.00000  Uiso   1.00
C1056  C     0.97736   0.80314   0.80267   0.00000  Uiso   1.00
F1057  F     0.70651   0.77474   0.77154   0.00000  Uiso   1.00
F1058  F     0.96016   0.89193   0.89512   0.00000  Uiso   1.00
F1059  F     0.95537   0.77471   0.77195   0.00000  Uiso   1.00
F1060  F     0.71130   0.89196   0.89472   0.00000  Uiso   1.00
H1061  H     0.88547   0.74211   0.89509   0.00000  Uiso   1.00
H1062  H     0.78120   0.92456   0.77158   0.00000  Uiso   1.00
H1063  H     0.78175   0.74185   0.77135   0.00000  Uiso   1.00
H1064  H     0.88492   0.92482   0.89532   0.00000  Uiso   1.00
N1065  N     0.83333   0.95240   0.83333   0.00000  Uiso   1.00
N1066  N     0.83333   0.71427   0.83333   0.00000  Uiso   1.00
O1067  O     0.77226   0.87154   0.83333   0.00000  Uiso   1.00
O1068  O     0.78555   0.95561   0.76159   0.00000  Uiso   1.00
O1069  O     0.78563   0.71069   0.76156   0.00000  Uiso   1.00
O1070  O     0.88104   0.95597   0.90511   0.00000  Uiso   1.00
O1071  O     0.89441   0.79513   0.83334   0.00000  Uiso   1.00
O1072  O     0.89441   0.87154   0.83334   0.00000  Uiso   1.00
O1073  O     0.77226   0.79513   0.83333   0.00000  Uiso   1.00
O1074  O     0.83334   0.87155   0.76178   0.00000  Uiso   1.00
O1075  O     0.83333   0.79512   0.90489   0.00000  Uiso   1.00
O1076  O     0.83333   0.87155   0.90489   0.00000  Uiso   1.00
O1077  O     0.83334   0.79512   0.76178   0.00000  Uiso   1.00
O1078  O     0.88112   0.71106   0.90508   0.00000  Uiso   1.00
Zn1079 Zn    0.83333   0.88437   0.83333   0.00000  Uiso   1.00
Zn1080 Zn    0.83333   0.78229   0.83333   0.00000  Uiso   1.00
loop_
_geom_bond_atom_site_label_1
_geom_bond_atom_site_label_2
_geom_bond_distance
_geom_bond_site_symmetry_2
_ccdc_geom_bond_type
C1     C4      1.415   .     S
C1     O33     1.293   .     A
C1     O27     1.293   .     A
C2     C4      1.398   .     A
C2     F20     1.359   .     S
C2     C95     1.374   1_455 S
C3     C9      1.415   .     S
C3     C15     1.398   .     A
C3     C16     1.398   .     A
C4     C14     1.398   .     A
C5     O38     1.376   .     S
C5     N26     1.378   .     A
C5     C248    1.417   1_545 S
C6     N25     1.378   .     A
C6     O28     1.376   .     S
C6     C127    1.417   .     S
C7     O29     1.375   .     S
C7     N26     1.378   .     A
C7     C246    1.417   1_545 S
C8     O30     1.375   .     S
C8     N25     1.378   .     A
C8     C125    1.417   .     S
C9     O31     1.293   .     A
C9     O32     1.293   .     A
C10    O34     1.289   .     A
C10    C12     1.369   .     S
C10    O37     1.289   .     A
C11    O35     1.289   .     A
C11    C13     1.369   .     S
C11    O36     1.289   .     A
C12    C733    1.167   1_554 S
C13    C372    1.167   .     S
C14    F17     1.358   .     S
C14    C96     1.374   1_455 S
C15    F18     1.358   .     S
C15    C42     1.374   .     S
C16    F19     1.359   .     S
C16    C54     1.374   .     S
H21    O38     0.980   .     S
H22    O28     0.980   .     S
H23    O29     0.979   .     S
H24    O30     0.979   .     S
N25    Zn39    2.039   .     S
N26    Zn40    2.039   .     S
O27    Zn39    1.992   .     S
O31    Zn40    1.992   .     S
O32    Zn39    1.994   .     S
O33    Zn40    1.994   .     S
O34    Zn39    1.951   .     S
O35    Zn40    1.951   .     S
O36    Zn39    1.951   .     S
O37    Zn40    1.951   .     S
C41    C44     1.415   .     S
C41    O73     1.293   .     A
C41    O67     1.293   .     A
C42    C44     1.398   .     A
C42    F60     1.359   .     S
C43    C49     1.415   .     S
C43    C55     1.398   .     A
C43    C56     1.398   .     A
C44    C54     1.398   .     A
C45    O78     1.376   .     S
C45    N66     1.378   .     A
C45    C288    1.417   1_545 S
C46    N65     1.378   .     A
C46    O68     1.376   .     S
C46    C167    1.417   .     S
C47    O69     1.375   .     S
C47    N66     1.378   .     A
C47    C286    1.417   1_545 S
C48    O70     1.375   .     S
C48    N65     1.378   .     A
C48    C165    1.417   .     S
C49    O71     1.293   .     A
C49    O72     1.293   .     A
C50    O74     1.289   .     A
C50    C52     1.369   .     S
C50    O77     1.289   .     A
C51    O75     1.289   .     A
C51    C53     1.369   .     S
C51    O76     1.289   .     A
C52    C773    1.167   1_554 S
C53    C412    1.167   .     S
C54    F57     1.358   .     S
C55    F58     1.358   .     S
C55    C82     1.374   .     S
C56    F59     1.359   .     S
C56    C94     1.374   .     S
H61    O78     0.980   .     S
H62    O68     0.980   .     S
H63    O69     0.979   .     S
H64    O70     0.979   .     S
N65    Zn79    2.039   .     S
N66    Zn80    2.039   .     S
O67    Zn79    1.992   .     S
O71    Zn80    1.992   .     S
O72    Zn79    1.994   .     S
O73    Zn80    1.994   .     S
O74    Zn79    1.951   .     S
O75    Zn80    1.951   .     S
O76    Zn79    1.951   .     S
O77    Zn80    1.951   .     S
C81    C84     1.415   .     S
C81    O113    1.293   .     A
C81    O107    1.293   .     A
C82    C84     1.398   .     A
C82    F100    1.359   .     S
C83    C89     1.415   .     S
C83    C95     1.398   .     A
C83    C96     1.398   .     A
C84    C94     1.398   .     A
C85    O118    1.376   .     S
C85    N106    1.378   .     A
C85    C328    1.417   1_545 S
C86    N105    1.378   .     A
C86    O108    1.376   .     S
C86    C207    1.417   .     S
C87    O109    1.375   .     S
C87    N106    1.378   .     A
C87    C326    1.417   1_545 S
C88    O110    1.375   .     S
C88    N105    1.378   .     A
C88    C205    1.417   .     S
C89    O111    1.293   .     A
C89    O112    1.293   .     A
C90    O114    1.289   .     A
C90    C92     1.369   .     S
C90    O117    1.289   .     A
C91    O115    1.289   .     A
C91    C93     1.369   .     S
C91    O116    1.289   .     A
C92    C813    1.167   1_554 S
C93    C452    1.167   .     S
C94    F97     1.358   .     S
C95    F98     1.358   .     S
C95    C2      1.374   1_655 S
C96    F99     1.359   .     S
C96    C14     1.374   1_655 S
H101   O118    0.980   .     S
H102   O108    0.980   .     S
H103   O109    0.979   .     S
H104   O110    0.979   .     S
N105   Zn119   2.039   .     S
N106   Zn120   2.039   .     S
O107   Zn119   1.992   .     S
O111   Zn120   1.992   .     S
O112   Zn119   1.994   .     S
O113   Zn120   1.994   .     S
O114   Zn119   1.951   .     S
O115   Zn120   1.951   .     S
O116   Zn119   1.951   .     S
O117   Zn120   1.951   .     S
C121   C124    1.415   .     S
C121   O153    1.293   .     A
C121   O147    1.293   .     A
C122   C124    1.398   .     A
C122   F140    1.359   .     S
C122   C215    1.374   1_455 S
C123   C129    1.415   .     S
C123   C135    1.398   .     A
C123   C136    1.398   .     A
C124   C134    1.398   .     A
C125   O158    1.376   .     S
C125   N146    1.378   .     A
C126   N145    1.378   .     A
C126   O148    1.376   .     S
C126   C247    1.417   .     S
C127   O149    1.375   .     S
C127   N146    1.378   .     A
C128   O150    1.375   .     S
C128   N145    1.378   .     A
C128   C245    1.417   .     S
C129   O151    1.293   .     A
C129   O152    1.293   .     A
C130   O154    1.289   .     A
C130   C132    1.369   .     S
C130   O157    1.289   .     A
C131   O155    1.289   .     A
C131   C133    1.369   .     S
C131   O156    1.289   .     A
C132   C853    1.167   1_554 S
C133   C492    1.167   .     S
C134   F137    1.358   .     S
C134   C216    1.374   1_455 S
C135   F138    1.358   .     S
C135   C162    1.374   .     S
C136   F139    1.359   .     S
C136   C174    1.374   .     S
H141   O158    0.980   .     S
H142   O148    0.980   .     S
H143   O149    0.979   .     S
H144   O150    0.979   .     S
N145   Zn159   2.039   .     S
N146   Zn160   2.039   .     S
O147   Zn159   1.992   .     S
O151   Zn160   1.992   .     S
O152   Zn159   1.994   .     S
O153   Zn160   1.994   .     S
O154   Zn159   1.951   .     S
O155   Zn160   1.951   .     S
O156   Zn159   1.951   .     S
O157   Zn160   1.951   .     S
C161   C164    1.415   .     S
C161   O193    1.293   .     A
C161   O187    1.293   .     A
C162   C164    1.398   .     A
C162   F180    1.359   .     S
C163   C169    1.415   .     S
C163   C175    1.398   .     A
C163   C176    1.398   .     A
C164   C174    1.398   .     A
C165   O198    1.376   .     S
C165   N186    1.378   .     A
C166   N185    1.378   .     A
C166   O188    1.376   .     S
C166   C287    1.417   .     S
C167   O189    1.375   .     S
C167   N186    1.378   .     A
C168   O190    1.375   .     S
C168   N185    1.378   .     A
C168   C285    1.417   .     S
C169   O191    1.293   .     A
C169   O192    1.293   .     A
C170   O194    1.289   .     A
C170   C172    1.369   .     S
C170   O197    1.289   .     A
C171   O195    1.289   .     A
C171   C173    1.369   .     S
C171   O196    1.289   .     A
C172   C893    1.167   1_554 S
C173   C532    1.167   .     S
C174   F177    1.358   .     S
C175   F178    1.358   .     S
C175   C202    1.374   .     S
C176   F179    1.359   .     S
C176   C214    1.374   .     S
H181   O198    0.980   .     S
H182   O188    0.980   .     S
H183   O189    0.979   .     S
H184   O190    0.979   .     S
N185   Zn199   2.039   .     S
N186   Zn200   2.039   .     S
O187   Zn199   1.992   .     S
O191   Zn200   1.992   .     S
O192   Zn199   1.994   .     S
O193   Zn200   1.994   .     S
O194   Zn199   1.951   .     S
O195   Zn200   1.951   .     S
O196   Zn199   1.951   .     S
O197   Zn200   1.951   .     S
C201   C204    1.415   .     S
C201   O233    1.293   .     A
C201   O227    1.293   .     A
C202   C204    1.398   .     A
C202   F220    1.359   .     S
C203   C209    1.415   .     S
C203   C215    1.398   .     A
C203   C216    1.398   .     A
C204   C214    1.398   .     A
C205   O238    1.376   .     S
C205   N226    1.378   .     A
C206   N225    1.378   .     A
C206   O228    1.376   .     S
C206   C327    1.417   .     S
C207   O229    1.375   .     S
C207   N226    1.378   .     A
C208   O230    1.375   .     S
C208   N225    1.378   .     A
C208   C325    1.417   .     S
C209   O231    1.293   .     A
C209   O232    1.293   .     A
C210   O234    1.289   .     A
C210   C212    1.369   .     S
C210   O237    1.289   .     A
C211   O235    1.289   .     A
C211   C213    1.369   .     S
C211   O236    1.289   .     A
C212   C933    1.167   1_554 S
C213   C572    1.167   .     S
C214   F217    1.358   .     S
C215   F218    1.358   .     S
C215   C122    1.374   1_655 S
C216   F219    1.359   .     S
C216   C134    1.374   1_655 S
H221   O238    0.980   .     S
H222   O228    0.980   .     S
H223   O229    0.979   .     S
H224   O230    0.979   .     S
N225   Zn239   2.039   .     S
N226   Zn240   2.039   .     S
O227   Zn239   1.992   .     S
O231   Zn240   1.992   .     S
O232   Zn239   1.994   .     S
O233   Zn240   1.994   .     S
O234   Zn239   1.951   .     S
O235   Zn240   1.951   .     S
O236   Zn239   1.951   .     S
O237   Zn240   1.951   .     S
C241   C244    1.415   .     S
C241   O273    1.293   .     A
C241   O267    1.293   .     A
C242   C244    1.398   .     A
C242   F260    1.359   .     S
C242   C335    1.374   1_455 S
C243   C249    1.415   .     S
C243   C255    1.398   .     A
C243   C256    1.398   .     A
C244   C254    1.398   .     A
C245   O278    1.376   .     S
C245   N266    1.378   .     A
C246   N265    1.378   .     A
C246   O268    1.376   .     S
C246   C7      1.417   1_565 S
C247   O269    1.375   .     S
C247   N266    1.378   .     A
C248   O270    1.375   .     S
C248   N265    1.378   .     A
C248   C5      1.417   1_565 S
C249   O271    1.293   .     A
C249   O272    1.293   .     A
C250   O274    1.289   .     A
C250   C252    1.369   .     S
C250   O277    1.289   .     A
C251   O275    1.289   .     A
C251   C253    1.369   .     S
C251   O276    1.289   .     A
C252   C973    1.167   1_554 S
C253   C612    1.167   .     S
C254   F257    1.358   .     S
C254   C336    1.374   1_455 S
C255   F258    1.358   .     S
C255   C282    1.374   .     S
C256   F259    1.359   .     S
C256   C294    1.374   .     S
H261   O278    0.980   .     S
H262   O268    0.980   .     S
H263   O269    0.979   .     S
H264   O270    0.979   .     S
N265   Zn279   2.039   .     S
N266   Zn280   2.039   .     S
O267   Zn279   1.992   .     S
O271   Zn280   1.992   .     S
O272   Zn279   1.994   .     S
O273   Zn280   1.994   .     S
O274   Zn279   1.951   .     S
O275   Zn280   1.951   .     S
O276   Zn279   1.951   .     S
O277   Zn280   1.951   .     S
C281   C284    1.415   .     S
C281   O313    1.293   .     A
C281   O307    1.293   .     A
C282   C284    1.398   .     A
C282   F300    1.359   .     S
C283   C289    1.415   .     S
C283   C295    1.398   .     A
C283   C296    1.398   .     A
C284   C294    1.398   .     A
C285   O318    1.376   .     S
C285   N306    1.378   .     A
C286   N305    1.378   .     A
C286   O308    1.376   .     S
C286   C47     1.417   1_565 S
C287   O309    1.375   .     S
C287   N306    1.378   .     A
C288   O310    1.375   .     S
C288   N305    1.378   .     A
C288   C45     1.417   1_565 S
C289   O311    1.293   .     A
C289   O312    1.293   .     A
C290   O314    1.289   .     A
C290   C292    1.369   .     S
C290   O317    1.289   .     A
C291   O315    1.289   .     A
C291   C293    1.369   .     S
C291   O316    1.289   .     A
C292   C1013   1.167   1_554 S
C293   C652    1.167   .     S
C294   F297    1.358   .     S
C295   F298    1.358   .     S
C295   C322    1.374   .     S
C296   F299    1.359   .     S
C296   C334    1.374   .     S
H301   O318    0.980   .     S
H302   O308    0.980   .     S
H303   O309    0.979   .     S
H304   O310    0.979   .     S
N305   Zn319   2.039   .     S
N306   Zn320   2.039   .     S
O307   Zn319   1.992   .     S
O311   Zn320   1.992   .     S
O312   Zn319   1.994   .     S
O313   Zn320   1.994   .     S
O314   Zn319   1.951   .     S
O315   Zn320   1.951   .     S
O316   Zn319   1.951   .     S
O317   Zn320   1.951   .     S
C321   C324    1.415   .     S
C321   O353    1.293   .     A
C321   O347    1.293   .     A
C322   C324    1.398   .     A
C322   F340    1.359   .     S
C323   C329    1.415   .     S
C323   C335    1.398   .     A
C323   C336    1.398   .     A
C324   C334    1.398   .     A
C325   O358    1.376   .     S
C325   N346    1.378   .     A
C326   N345    1.378   .     A
C326   O348    1.376   .     S
C326   C87     1.417   1_565 S
C327   O349    1.375   .     S
C327   N346    1.378   .     A
C328   O350    1.375   .     S
C328   N345    1.378   .     A
C328   C85     1.417   1_565 S
C329   O351    1.293   .     A
C329   O352    1.293   .     A
C330   O354    1.289   .     A
C330   C332    1.369   .     S
C330   O357    1.289   .     A
C331   O355    1.289   .     A
C331   C333    1.369   .     S
C331   O356    1.289   .     A
C332   C1053   1.167   1_554 S
C333   C692    1.167   .     S
C334   F337    1.358   .     S
C335   F338    1.358   .     S
C335   C242    1.374   1_655 S
C336   F339    1.359   .     S
C336   C254    1.374   1_655 S
H341   O358    0.980   .     S
H342   O348    0.980   .     S
H343   O349    0.979   .     S
H344   O350    0.979   .     S
N345   Zn359   2.039   .     S
N346   Zn360   2.039   .     S
O347   Zn359   1.992   .     S
O351   Zn360   1.992   .     S
O352   Zn359   1.994   .     S
O353   Zn360   1.994   .     S
O354   Zn359   1.951   .     S
O355   Zn360   1.951   .     S
O356   Zn359   1.951   .     S
O357   Zn360   1.951   .     S
C361   C364    1.415   .     S
C361   O393    1.293   .     A
C361   O387    1.293   .     A
C362   C364    1.398   .     A
C362   F380    1.359   .     S
C362   C455    1.374   1_455 S
C363   C369    1.415   .     S
C363   C375    1.398   .     A
C363   C376    1.398   .     A
C364   C374    1.398   .     A
C365   O398    1.376   .     S
C365   N386    1.378   .     A
C365   C608    1.417   1_545 S
C366   N385    1.378   .     A
C366   O388    1.376   .     S
C366   C487    1.417   .     S
C367   O389    1.375   .     S
C367   N386    1.378   .     A
C367   C606    1.417   1_545 S
C368   O390    1.375   .     S
C368   N385    1.378   .     A
C368   C485    1.417   .     S
C369   O391    1.293   .     A
C369   O392    1.293   .     A
C370   O394    1.289   .     A
C370   C372    1.369   .     S
C370   O397    1.289   .     A
C371   O395    1.289   .     A
C371   C373    1.369   .     S
C371   O396    1.289   .     A
C373   C732    1.167   .     S
C374   F377    1.358   .     S
C374   C456    1.374   1_455 S
C375   F378    1.358   .     S
C375   C402    1.374   .     S
C376   F379    1.359   .     S
C376   C414    1.374   .     S
H381   O398    0.980   .     S
H382   O388    0.980   .     S
H383   O389    0.979   .     S
H384   O390    0.979   .     S
N385   Zn399   2.039   .     S
N386   Zn400   2.039   .     S
O387   Zn399   1.992   .     S
O391   Zn400   1.992   .     S
O392   Zn399   1.994   .     S
O393   Zn400   1.994   .     S
O394   Zn399   1.951   .     S
O395   Zn400   1.951   .     S
O396   Zn399   1.951   .     S
O397   Zn400   1.951   .     S
C401   C404    1.415   .     S
C401   O433    1.293   .     A
C401   O427    1.293   .     A
C402   C404    1.398   .     A
C402   F420    1.359   .     S
C403   C409    1.415   .     S
C403   C415    1.398   .     A
C403   C416    1.398   .     A
C404   C414    1.398   .     A
C405   O438    1.376   .     S
C405   N426    1.378   .     A
C405   C648    1.417   1_545 S
C406   N425    1.378   .     A
C406   O428    1.376   .     S
C406   C527    1.417   .     S
C407   O429    1.375   .     S
C407   N426    1.378   .     A
C407   C646    1.417   1_545 S
C408   O430    1.375   .     S
C408   N425    1.378   .     A
C408   C525    1.417   .     S
C409   O431    1.293   .     A
C409   O432    1.293   .     A
C410   O434    1.289   .     A
C410   C412    1.369   .     S
C410   O437    1.289   .     A
C411   O435    1.289   .     A
C411   C413    1.369   .     S
C411   O436    1.289   .     A
C413   C772    1.167   .     S
C414   F417    1.358   .     S
C415   F418    1.358   .     S
C415   C442    1.374   .     S
C416   F419    1.359   .     S
C416   C454    1.374   .     S
H421   O438    0.980   .     S
H422   O428    0.980   .     S
H423   O429    0.979   .     S
H424   O430    0.979   .     S
N425   Zn439   2.039   .     S
N426   Zn440   2.039   .     S
O427   Zn439   1.992   .     S
O431   Zn440   1.992   .     S
O432   Zn439   1.994   .     S
O433   Zn440   1.994   .     S
O434   Zn439   1.951   .     S
O435   Zn440   1.951   .     S
O436   Zn439   1.951   .     S
O437   Zn440   1.951   .     S
C441   C444    1.415   .     S
C441   O473    1.293   .     A
C441   O467    1.293   .     A
C442   C444    1.398   .     A
C442   F460    1.359   .     S
C443   C449    1.415   .     S
C443   C455    1.398   .     A
C443   C456    1.398   .     A
C444   C454    1.398   .     A
C445   O478    1.376   .     S
C445   N466    1.378   .     A
C445   C688    1.417   1_545 S
C446   N465    1.378   .     A
C446   O468    1.376   .     S
C446   C567    1.417   .     S
C447   O469    1.375   .     S
C447   N466    1.378   .     A
C447   C686    1.417   1_545 S
C448   O470    1.375   .     S
C448   N465    1.378   .     A
C448   C565    1.417   .     S
C449   O471    1.293   .     A
C449   O472    1.293   .     A
C450   O474    1.289   .     A
C450   C452    1.369   .     S
C450   O477    1.289   .     A
C451   O475    1.289   .     A
C451   C453    1.369   .     S
C451   O476    1.289   .     A
C453   C812    1.167   .     S
C454   F457    1.358   .     S
C455   F458    1.358   .     S
C455   C362    1.374   1_655 S
C456   F459    1.359   .     S
C456   C374    1.374   1_655 S
H461   O478    0.980   .     S
H462   O468    0.980   .     S
H463   O469    0.979   .     S
H464   O470    0.979   .     S
N465   Zn479   2.039   .     S
N466   Zn480   2.039   .     S
O467   Zn479   1.992   .     S
O471   Zn480   1.992   .     S
O472   Zn479   1.994   .     S
O473   Zn480   1.994   .     S
O474   Zn479   1.951   .     S
O475   Zn480   1.951   .     S
O476   Zn479   1.951   .     S
O477   Zn480   1.951   .     S
C481   C484    1.415   .     S
C481   O513    1.293   .     A
C481   O507    1.293   .     A
C482   C484    1.398   .     A
C482   F500    1.359   .     S
C482   C575    1.374   1_455 S
C483   C489    1.415   .     S
C483   C495    1.398   .     A
C483   C496    1.398   .     A
C484   C494    1.398   .     A
C485   O518    1.376   .     S
C485   N506    1.378   .     A
C486   N505    1.378   .     A
C486   O508    1.376   .     S
C486   C607    1.417   .     S
C487   O509    1.375   .     S
C487   N506    1.378   .     A
C488   O510    1.375   .     S
C488   N505    1.378   .     A
C488   C605    1.417   .     S
C489   O511    1.293   .     A
C489   O512    1.293   .     A
C490   O514    1.289   .     A
C490   C492    1.369   .     S
C490   O517    1.289   .     A
C491   O515    1.289   .     A
C491   C493    1.369   .     S
C491   O516    1.289   .     A
C493   C852    1.167   .     S
C494   F497    1.358   .     S
C494   C576    1.374   1_455 S
C495   F498    1.358   .     S
C495   C522    1.374   .     S
C496   F499    1.359   .     S
C496   C534    1.374   .     S
H501   O518    0.980   .     S
H502   O508    0.980   .     S
H503   O509    0.979   .     S
H504   O510    0.979   .     S
N505   Zn519   2.039   .     S
N506   Zn520   2.039   .     S
O507   Zn519   1.992   .     S
O511   Zn520   1.992   .     S
O512   Zn519   1.994   .     S
O513   Zn520   1.994   .     S
O514   Zn519   1.951   .     S
O515   Zn520   1.951   .     S
O516   Zn519   1.951   .     S
O517   Zn520   1.951   .     S
C521   C524    1.415   .     S
C521   O553    1.293   .     A
C521   O547    1.293   .     A
C522   C524    1.398   .     A
C522   F540    1.359   .     S
C523   C529    1.415   .     S
C523   C535    1.398   .     A
C523   C536    1.398   .     A
C524   C534    1.398   .     A
C525   O558    1.376   .     S
C525   N546    1.378   .     A
C526   N545    1.378   .     A
C526   O548    1.376   .     S
C526   C647    1.417   .     S
C527   O549    1.375   .     S
C527   N546    1.378   .     A
C528   O550    1.375   .     S
C528   N545    1.378   .     A
C528   C645    1.417   .     S
C529   O551    1.293   .     A
C529   O552    1.293   .     A
C530   O554    1.289   .     A
C530   C532    1.369   .     S
C530   O557    1.289   .     A
C531   O555    1.289   .     A
C531   C533    1.369   .     S
C531   O556    1.289   .     A
C533   C892    1.167   .     S
C534   F537    1.358   .     S
C535   F538    1.358   .     S
C535   C562    1.374   .     S
C536   F539    1.359   .     S
C536   C574    1.374   .     S
H541   O558    0.980   .     S
H542   O548    0.980   .     S
H543   O549    0.979   .     S
H544   O550    0.979   .     S
N545   Zn559   2.039   .     S
N546   Zn560   2.039   .     S
O547   Zn559   1.992   .     S
O551   Zn560   1.992   .     S
O552   Zn559   1.994   .     S
O553   Zn560   1.994   .     S
O554   Zn559   1.951   .     S
O555   Zn560   1.951   .     S
O556   Zn559   1.951   .     S
O557   Zn560   1.951   .     S
C561   C564    1.415   .     S
C561   O593    1.293   .     A
C561   O587    1.293   .     A
C562   C564    1.398   .     A
C562   F580    1.359   .     S
C563   C569    1.415   .     S
C563   C575    1.398   .     A
C563   C576    1.398   .     A
C564   C574    1.398   .     A
C565   O598    1.376   .     S
C565   N586    1.378   .     A
C566   N585    1.378   .     A
C566   O588    1.376   .     S
C566   C687    1.417   .     S
C567   O589    1.375   .     S
C567   N586    1.378   .     A
C568   O590    1.375   .     S
C568   N585    1.378   .     A
C568   C685    1.417   .     S
C569   O591    1.293   .     A
C569   O592    1.293   .     A
C570   O594    1.289   .     A
C570   C572    1.369   .     S
C570   O597    1.289   .     A
C571   O595    1.289   .     A
C571   C573    1.369   .     S
C571   O596    1.289   .     A
C573   C932    1.167   .     S
C574   F577    1.358   .     S
C575   F578    1.358   .     S
C575   C482    1.374   1_655 S
C576   F579    1.359   .     S
C576   C494    1.374   1_655 S
H581   O598    0.980   .     S
H582   O588    0.980   .     S
H583   O589    0.979   .     S
H584   O590    0.979   .     S
N585   Zn599   2.039   .     S
N586   Zn600   2.039   .     S
O587   Zn599   1.992   .     S
O591   Zn600   1.992   .     S
O592   Zn599   1.994   .     S
O593   Zn600   1.994   .     S
O594   Zn599   1.951   .     S
O595   Zn600   1.951   .     S
O596   Zn599   1.951   .     S
O597   Zn600   1.951   .     S
C601   C604    1.415   .     S
C601   O633    1.293   .     A
C601   O627    1.293   .     A
C602   C604    1.398   .     A
C602   F620    1.359   .     S
C602   C695    1.374   1_455 S
C603   C609    1.415   .     S
C603   C615    1.398   .     A
C603   C616    1.398   .     A
C604   C614    1.398   .     A
C605   O638    1.376   .     S
C605   N626    1.378   .     A
C606   N625    1.378   .     A
C606   O628    1.376   .     S
C606   C367    1.417   1_565 S
C607   O629    1.375   .     S
C607   N626    1.378   .     A
C608   O630    1.375   .     S
C608   N625    1.378   .     A
C608   C365    1.417   1_565 S
C609   O631    1.293   .     A
C609   O632    1.293   .     A
C610   O634    1.289   .     A
C610   C612    1.369   .     S
C610   O637    1.289   .     A
C611   O635    1.289   .     A
C611   C613    1.369   .     S
C611   O636    1.289   .     A
C613   C972    1.167   .     S
C614   F617    1.358   .     S
C614   C696    1.374   1_455 S
C615   F618    1.358   .     S
C615   C642    1.374   .     S
C616   F619    1.359   .     S
C616   C654    1.374   .     S
H621   O638    0.980   .     S
H622   O628    0.980   .     S
H623   O629    0.979   .     S
H624   O630    0.979   .     S
N625   Zn639   2.039   .     S
N626   Zn640   2.039   .     S
O627   Zn639   1.992   .     S
O631   Zn640   1.992   .     S
O632   Zn639   1.994   .     S
O633   Zn640   1.994   .     S
O634   Zn639   1.951   .     S
O635   Zn640   1.951   .     S
O636   Zn639   1.951   .     S
O637   Zn640   1.951   .     S
C641   C644    1.415   .     S
C641   O673    1.293   .     A
C641   O667    1.293   .     A
C642   C644    1.398   .     A
C642   F660    1.359   .     S
C643   C649    1.415   .     S
C643   C655    1.398   .     A
C643   C656    1.398   .     A
C644   C654    1.398   .     A
C645   O678    1.376   .     S
C645   N666    1.378   .     A
C646   N665    1.378   .     A
C646   O668    1.376   .     S
C646   C407    1.417   1_565 S
C647   O669    1.375   .     S
C647   N666    1.378   .     A
C648   O670    1.375   .     S
C648   N665    1.378   .     A
C648   C405    1.417   1_565 S
C649   O671    1.293   .     A
C649   O672    1.293   .     A
C650   O674    1.289   .     A
C650   C652    1.369   .     S
C650   O677    1.289   .     A
C651   O675    1.289   .     A
C651   C653    1.369   .     S
C651   O676    1.289   .     A
C653   C1012   1.167   .     S
C654   F657    1.358   .     S
C655   F658    1.358   .     S
C655   C682    1.374   .     S
C656   F659    1.359   .     S
C656   C694    1.374   .     S
H661   O678    0.980   .     S
H662   O668    0.980   .     S
H663   O669    0.979   .     S
H664   O670    0.979   .     S
N665   Zn679   2.039   .     S
N666   Zn680   2.039   .     S
O667   Zn679   1.992   .     S
O671   Zn680   1.992   .     S
O672   Zn679   1.994   .     S
O673   Zn680   1.994   .     S
O674   Zn679   1.951   .     S
O675   Zn680   1.951   .     S
O676   Zn679   1.951   .     S
O677   Zn680   1.951   .     S
C681   C684    1.415   .     S
C681   O713    1.293   .     A
C681   O707    1.293   .     A
C682   C684    1.398   .     A
C682   F700    1.359   .     S
C683   C689    1.415   .     S
C683   C695    1.398   .     A
C683   C696    1.398   .     A
C684   C694    1.398   .     A
C685   O718    1.376   .     S
C685   N706    1.378   .     A
C686   N705    1.378   .     A
C686   O708    1.376   .     S
C686   C447    1.417   1_565 S
C687   O709    1.375   .     S
C687   N706    1.378   .     A
C688   O710    1.375   .     S
C688   N705    1.378   .     A
C688   C445    1.417   1_565 S
C689   O711    1.293   .     A
C689   O712    1.293   .     A
C690   O714    1.289   .     A
C690   C692    1.369   .     S
C690   O717    1.289   .     A
C691   O715    1.289   .     A
C691   C693    1.369   .     S
C691   O716    1.289   .     A
C693   C1052   1.167   .     S
C694   F697    1.358   .     S
C695   F698    1.358   .     S
C695   C602    1.374   1_655 S
C696   F699    1.359   .     S
C696   C614    1.374   1_655 S
H701   O718    0.980   .     S
H702   O708    0.980   .     S
H703   O709    0.979   .     S
H704   O710    0.979   .     S
N705   Zn719   2.039   .     S
N706   Zn720   2.039   .     S
O707   Zn719   1.992   .     S
O711   Zn720   1.992   .     S
O712   Zn719   1.994   .     S
O713   Zn720   1.994   .     S
O714   Zn719   1.951   .     S
O715   Zn720   1.951   .     S
O716   Zn719   1.951   .     S
O717   Zn720   1.951   .     S
C721   C724    1.415   .     S
C721   O753    1.293   .     A
C721   O747    1.293   .     A
C722   C724    1.398   .     A
C722   F740    1.359   .     S
C722   C815    1.374   1_455 S
C723   C729    1.415   .     S
C723   C735    1.398   .     A
C723   C736    1.398   .     A
C724   C734    1.398   .     A
C725   O758    1.376   .     S
C725   N746    1.378   .     A
C725   C968    1.417   1_545 S
C726   N745    1.378   .     A
C726   O748    1.376   .     S
C726   C847    1.417   .     S
C727   O749    1.375   .     S
C727   N746    1.378   .     A
C727   C966    1.417   1_545 S
C728   O750    1.375   .     S
C728   N745    1.378   .     A
C728   C845    1.417   .     S
C729   O751    1.293   .     A
C729   O752    1.293   .     A
C730   O754    1.289   .     A
C730   C732    1.369   .     S
C730   O757    1.289   .     A
C731   O755    1.289   .     A
C731   C733    1.369   .     S
C731   O756    1.289   .     A
C733   C12     1.167   1_556 S
C734   F737    1.358   .     S
C734   C816    1.374   1_455 S
C735   F738    1.358   .     S
C735   C762    1.374   .     S
C736   F739    1.359   .     S
C736   C774    1.374   .     S
H741   O758    0.980   .     S
H742   O748    0.980   .     S
H743   O749    0.979   .     S
H744   O750    0.979   .     S
N745   Zn759   2.039   .     S
N746   Zn760   2.039   .     S
O747   Zn759   1.992   .     S
O751   Zn760   1.992   .     S
O752   Zn759   1.994   .     S
O753   Zn760   1.994   .     S
O754   Zn759   1.951   .     S
O755   Zn760   1.951   .     S
O756   Zn759   1.951   .     S
O757   Zn760   1.951   .     S
C761   C764    1.415   .     S
C761   O793    1.293   .     A
C761   O787    1.293   .     A
C762   C764    1.398   .     A
C762   F780    1.359   .     S
C763   C769    1.415   .     S
C763   C775    1.398   .     A
C763   C776    1.398   .     A
C764   C774    1.398   .     A
C765   O798    1.376   .     S
C765   N786    1.378   .     A
C765   C1008   1.417   1_545 S
C766   N785    1.378   .     A
C766   O788    1.376   .     S
C766   C887    1.417   .     S
C767   O789    1.375   .     S
C767   N786    1.378   .     A
C767   C1006   1.417   1_545 S
C768   O790    1.375   .     S
C768   N785    1.378   .     A
C768   C885    1.417   .     S
C769   O791    1.293   .     A
C769   O792    1.293   .     A
C770   O794    1.289   .     A
C770   C772    1.369   .     S
C770   O797    1.289   .     A
C771   O795    1.289   .     A
C771   C773    1.369   .     S
C771   O796    1.289   .     A
C773   C52     1.167   1_556 S
C774   F777    1.358   .     S
C775   F778    1.358   .     S
C775   C802    1.374   .     S
C776   F779    1.359   .     S
C776   C814    1.374   .     S
H781   O798    0.980   .     S
H782   O788    0.980   .     S
H783   O789    0.979   .     S
H784   O790    0.979   .     S
N785   Zn799   2.039   .     S
N786   Zn800   2.039   .     S
O787   Zn799   1.992   .     S
O791   Zn800   1.992   .     S
O792   Zn799   1.994   .     S
O793   Zn800   1.994   .     S
O794   Zn799   1.951   .     S
O795   Zn800   1.951   .     S
O796   Zn799   1.951   .     S
O797   Zn800   1.951   .     S
C801   C804    1.415   .     S
C801   O833    1.293   .     A
C801   O827    1.293   .     A
C802   C804    1.398   .     A
C802   F820    1.359   .     S
C803   C809    1.415   .     S
C803   C815    1.398   .     A
C803   C816    1.398   .     A
C804   C814    1.398   .     A
C805   O838    1.376   .     S
C805   N826    1.378   .     A
C805   C1048   1.417   1_545 S
C806   N825    1.378   .     A
C806   O828    1.376   .     S
C806   C927    1.417   .     S
C807   O829    1.375   .     S
C807   N826    1.378   .     A
C807   C1046   1.417   1_545 S
C808   O830    1.375   .     S
C808   N825    1.378   .     A
C808   C925    1.417   .     S
C809   O831    1.293   .     A
C809   O832    1.293   .     A
C810   O834    1.289   .     A
C810   C812    1.369   .     S
C810   O837    1.289   .     A
C811   O835    1.289   .     A
C811   C813    1.369   .     S
C811   O836    1.289   .     A
C813   C92     1.167   1_556 S
C814   F817    1.358   .     S
C815   F818    1.358   .     S
C815   C722    1.374   1_655 S
C816   F819    1.359   .     S
C816   C734    1.374   1_655 S
H821   O838    0.980   .     S
H822   O828    0.980   .     S
H823   O829    0.979   .     S
H824   O830    0.979   .     S
N825   Zn839   2.039   .     S
N826   Zn840   2.039   .     S
O827   Zn839   1.992   .     S
O831   Zn840   1.992   .     S
O832   Zn839   1.994   .     S
O833   Zn840   1.994   .     S
O834   Zn839   1.951   .     S
O835   Zn840   1.951   .     S
O836   Zn839   1.951   .     S
O837   Zn840   1.951   .     S
C841   C844    1.415   .     S
C841   O873    1.293   .     A
C841   O867    1.293   .     A
C842   C844    1.398   .     A
C842   F860    1.359   .     S
C842   C935    1.374   1_455 S
C843   C849    1.415   .     S
C843   C855    1.398   .     A
C843   C856    1.398   .     A
C844   C854    1.398   .     A
C845   O878    1.376   .     S
C845   N866    1.378   .     A
C846   N865    1.378   .     A
C846   O868    1.376   .     S
C846   C967    1.417   .     S
C847   O869    1.375   .     S
C847   N866    1.378   .     A
C848   O870    1.375   .     S
C848   N865    1.378   .     A
C848   C965    1.417   .     S
C849   O871    1.293   .     A
C849   O872    1.293   .     A
C850   O874    1.289   .     A
C850   C852    1.369   .     S
C850   O877    1.289   .     A
C851   O875    1.289   .     A
C851   C853    1.369   .     S
C851   O876    1.289   .     A
C853   C132    1.167   1_556 S
C854   F857    1.358   .     S
C854   C936    1.374   1_455 S
C855   F858    1.358   .     S
C855   C882    1.374   .     S
C856   F859    1.359   .     S
C856   C894    1.374   .     S
H861   O878    0.980   .     S
H862   O868    0.980   .     S
H863   O869    0.979   .     S
H864   O870    0.979   .     S
N865   Zn879   2.039   .     S
N866   Zn880   2.039   .     S
O867   Zn879   1.992   .     S
O871   Zn880   1.992   .     S
O872   Zn879   1.994   .     S
O873   Zn880   1.994   .     S
O874   Zn879   1.951   .     S
O875   Zn880   1.951   .     S
O876   Zn879   1.951   .     S
O877   Zn880   1.951   .     S
C881   C884    1.415   .     S
C881   O913    1.293   .     A
C881   O907    1.293   .     A
C882   C884    1.398   .     A
C882   F900    1.359   .     S
C883   C889    1.415   .     S
C883   C895    1.398   .     A
C883   C896    1.398   .     A
C884   C894    1.398   .     A
C885   O918    1.376   .     S
C885   N906    1.378   .     A
C886   N905    1.378   .     A
C886   O908    1.376   .     S
C886   C1007   1.417   .     S
C887   O909    1.375   .     S
C887   N906    1.378   .     A
C888   O910    1.375   .     S
C888   N905    1.378   .     A
C888   C1005   1.417   .     S
C889   O911    1.293   .     A
C889   O912    1.293   .     A
C890   O914    1.289   .     A
C890   C892    1.369   .     S
C890   O917    1.289   .     A
C891   O915    1.289   .     A
C891   C893    1.369   .     S
C891   O916    1.289   .     A
C893   C172    1.167   1_556 S
C894   F897    1.358   .     S
C895   F898    1.358   .     S
C895   C922    1.374   .     S
C896   F899    1.359   .     S
C896   C934    1.374   .     S
H901   O918    0.980   .     S
H902   O908    0.980   .     S
H903   O909    0.979   .     S
H904   O910    0.979   .     S
N905   Zn919   2.039   .     S
N906   Zn920   2.039   .     S
O907   Zn919   1.992   .     S
O911   Zn920   1.992   .     S
O912   Zn919   1.994   .     S
O913   Zn920   1.994   .     S
O914   Zn919   1.951   .     S
O915   Zn920   1.951   .     S
O916   Zn919   1.951   .     S
O917   Zn920   1.951   .     S
C921   C924    1.415   .     S
C921   O953    1.293   .     A
C921   O947    1.293   .     A
C922   C924    1.398   .     A
C922   F940    1.359   .     S
C923   C929    1.415   .     S
C923   C935    1.398   .     A
C923   C936    1.398   .     A
C924   C934    1.398   .     A
C925   O958    1.376   .     S
C925   N946    1.378   .     A
C926   N945    1.378   .     A
C926   O948    1.376   .     S
C926   C1047   1.417   .     S
C927   O949    1.375   .     S
C927   N946    1.378   .     A
C928   O950    1.375   .     S
C928   N945    1.378   .     A
C928   C1045   1.417   .     S
C929   O951    1.293   .     A
C929   O952    1.293   .     A
C930   O954    1.289   .     A
C930   C932    1.369   .     S
C930   O957    1.289   .     A
C931   O955    1.289   .     A
C931   C933    1.369   .     S
C931   O956    1.289   .     A
C933   C212    1.167   1_556 S
C934   F937    1.358   .     S
C935   F938    1.358   .     S
C935   C842    1.374   1_655 S
C936   F939    1.359   .     S
C936   C854    1.374   1_655 S
H941   O958    0.980   .     S
H942   O948    0.980   .     S
H943   O949    0.979   .     S
H944   O950    0.979   .     S
N945   Zn959   2.039   .     S
N946   Zn960   2.039   .     S
O947   Zn959   1.992   .     S
O951   Zn960   1.992   .     S
O952   Zn959   1.994   .     S
O953   Zn960   1.994   .     S
O954   Zn959   1.951   .     S
O955   Zn960   1.951   .     S
O956   Zn959   1.951   .     S
O957   Zn960   1.951   .     S
C961   C964    1.415   .     S
C961   O993    1.293   .     A
C961   O987    1.293   .     A
C962   C964    1.398   .     A
C962   F980    1.359   .     S
C962   C1055   1.374   1_455 S
C963   C969    1.415   .     S
C963   C975    1.398   .     A
C963   C976    1.398   .     A
C964   C974    1.398   .     A
C965   O998    1.376   .     S
C965   N986    1.378   .     A
C966   N985    1.378   .     A
C966   O988    1.376   .     S
C966   C727    1.417   1_565 S
C967   O989    1.375   .     S
C967   N986    1.378   .     A
C968   O990    1.375   .     S
C968   N985    1.378   .     A
C968   C725    1.417   1_565 S
C969   O991    1.293   .     A
C969   O992    1.293   .     A
C970   O994    1.289   .     A
C970   C972    1.369   .     S
C970   O997    1.289   .     A
C971   O995    1.289   .     A
C971   C973    1.369   .     S
C971   O996    1.289   .     A
C973   C252    1.167   1_556 S
C974   F977    1.358   .     S
C974   C1056   1.374   1_455 S
C975   F978    1.358   .     S
C975   C1002   1.374   .     S
C976   F979    1.359   .     S
C976   C1014   1.374   .     S
H981   O998    0.980   .     S
H982   O988    0.980   .     S
H983   O989    0.979   .     S
H984   O990    0.979   .     S
N985   Zn999   2.039   .     S
N986   Zn1000  2.039   .     S
O987   Zn999   1.992   .     S
O991   Zn1000  1.992   .     S
O992   Zn999   1.994   .     S
O993   Zn1000  1.994   .     S
O994   Zn999   1.951   .     S
O995   Zn1000  1.951   .     S
O996   Zn999   1.951   .     S
O997   Zn1000  1.951   .     S
C1001  C1004   1.415   .     S
C1001  O1033   1.293   .     A
C1001  O1027   1.293   .     A
C1002  C1004   1.398   .     A
C1002  F1020   1.359   .     S
C1003  C1009   1.415   .     S
C1003  C1015   1.398   .     A
C1003  C1016   1.398   .     A
C1004  C1014   1.398   .     A
C1005  O1038   1.376   .     S
C1005  N1026   1.378   .     A
C1006  N1025   1.378   .     A
C1006  O1028   1.376   .     S
C1006  C767    1.417   1_565 S
C1007  O1029   1.375   .     S
C1007  N1026   1.378   .     A
C1008  O1030   1.375   .     S
C1008  N1025   1.378   .     A
C1008  C765    1.417   1_565 S
C1009  O1031   1.293   .     A
C1009  O1032   1.293   .     A
C1010  O1034   1.289   .     A
C1010  C1012   1.369   .     S
C1010  O1037   1.289   .     A
C1011  O1035   1.289   .     A
C1011  C1013   1.369   .     S
C1011  O1036   1.289   .     A
C1013  C292    1.167   1_556 S
C1014  F1017   1.358   .     S
C1015  F1018   1.358   .     S
C1015  C1042   1.374   .     S
C1016  F1019   1.359   .     S
C1016  C1054   1.374   .     S
H1021  O1038   0.980   .     S
H1022  O1028   0.980   .     S
H1023  O1029   0.979   .     S
H1024  O1030   0.979   .     S
N1025  Zn1039  2.039   .     S
N1026  Zn1040  2.039   .     S
O1027  Zn1039  1.992   .     S
O1031  Zn1040  1.992   .     S
O1032  Zn1039  1.994   .     S
O1033  Zn1040  1.994   .     S
O1034  Zn1039  1.951   .     S
O1035  Zn1040  1.951   .     S
O1036  Zn1039  1.951   .     S
O1037  Zn1040  1.951   .     S
C1041  C1044   1.415   .     S
C1041  O1073   1.293   .     A
C1041  O1067   1.293   .     A
C1042  C1044   1.398   .     A
C1042  F1060   1.359   .     S
C1043  C1049   1.415   .     S
C1043  C1055   1.398   .     A
C1043  C1056   1.398   .     A
C1044  C1054   1.398   .     A
C1045  O1078   1.376   .     S
C1045  N1066   1.378   .     A
C1046  N1065   1.378   .     A
C1046  O1068   1.376   .     S
C1046  C807    1.417   1_565 S
C1047  O1069   1.375   .     S
C1047  N1066   1.378   .     A
C1048  O1070   1.375   .     S
C1048  N1065   1.378   .     A
C1048  C805    1.417   1_565 S
C1049  O1071   1.293   .     A
C1049  O1072   1.293   .     A
C1050  O1074   1.289   .     A
C1050  C1052   1.369   .     S
C1050  O1077   1.289   .     A
C1051  O1075   1.289   .     A
C1051  C1053   1.369   .     S
C1051  O1076   1.289   .     A
C1053  C332    1.167   1_556 S
C1054  F1057   1.358   .     S
C1055  F1058   1.358   .     S
C1055  C962    1.374   1_655 S
C1056  F1059   1.359   .     S
C1056  C974    1.374   1_655 S
H1061  O1078   0.980   .     S
H1062  O1068   0.980   .     S
H1063  O1069   0.979   .     S
H1064  O1070   0.979   .     S
N1065  Zn1079  2.039   .     S
N1066  Zn1080  2.039   .     S
O1067  Zn1079  1.992   .     S
O1071  Zn1080  1.992   .     S
O1072  Zn1079  1.994   .     S
O1073  Zn1080  1.994   .     S
O1074  Zn1079  1.951   .     S
O1075  Zn1080  1.951   .     S
O1076  Zn1079  1.951   .     S
O1077  Zn1080  1.951   .     S
