data_str_m3_o10_o17_pcu_sym.55
_audit_creation_date              2020-01-03
_audit_creation_method            'Materials Studio'
_symmetry_space_group_name_H-M    'P1'
_symmetry_Int_Tables_number       1
_symmetry_cell_setting            triclinic
loop_
_symmetry_equiv_pos_as_xyz
  x,y,z
_cell_length_a                    23.6527
_cell_length_b                    25.8950
_cell_length_c                    29.7987
_cell_angle_alpha                 92.6604
_cell_angle_beta                  85.1544
_cell_angle_gamma                 94.0835
loop_
_atom_site_label
_atom_site_type_symbol
_atom_site_fract_x
_atom_site_fract_y
_atom_site_fract_z
_atom_site_U_iso_or_equiv
_atom_site_adp_type
_atom_site_occupancy
C1     C     0.18174   0.26467   0.25004   0.00000  Uiso   1.00
C2     C     0.17619   0.21623   0.40834   0.00000  Uiso   1.00
C3     C     0.16698   0.16520   0.11578   0.00000  Uiso   1.00
C4     C     0.16618   0.16927   0.38400   0.00000  Uiso   1.00
C5     C     0.19094   0.20846   0.09339   0.00000  Uiso   1.00
C6     C     0.15023   0.12311   0.40527   0.00000  Uiso   1.00
C7     C     0.18667   0.21095   0.04753   0.00000  Uiso   1.00
C8     C     0.14860   0.12213   0.45180   0.00000  Uiso   1.00
C9     C     0.16628   0.16641   0.02321   0.00000  Uiso   1.00
C10    C     0.16503   0.16774   0.47656   0.00000  Uiso   1.00
C11    C     0.14724   0.12058   0.04552   0.00000  Uiso   1.00
C12    C     0.15165   0.06880   0.25254   0.00000  Uiso   1.00
C13    C     0.17880   0.21502   0.45488   0.00000  Uiso   1.00
C14    C     0.20123   0.25735   0.02581   0.00000  Uiso   1.00
C15    C     0.13082   0.07654   0.47396   0.00000  Uiso   1.00
C16    C     0.16420   0.04587   0.12446   0.00000  Uiso   1.00
C17    C     0.13582   0.32994   0.14422   0.00000  Uiso   1.00
C18    C     0.22889   0.28101   0.37141   0.00000  Uiso   1.00
C19    C     0.23069   0.00571   0.36538   0.00000  Uiso   1.00
C20    C     0.31277   0.09601   0.17847   0.00000  Uiso   1.00
C21    C     0.32638   0.04092   0.16339   0.00000  Uiso   1.00
C22    C     0.01871   0.23309   0.32422   0.00000  Uiso   1.00
C23    C     0.19515   0.25990   0.48010   0.00000  Uiso   1.00
C24    C     0.00568   0.19364   0.36108   0.00000  Uiso   1.00
C25    C     0.12907   0.07604   0.02061   0.00000  Uiso   1.00
C26    C     0.18964   0.31911   0.25183   0.00000  Uiso   1.00
C27    C     0.14386   0.01464   0.25592   0.00000  Uiso   1.00
C28    C     0.16699   0.16853   0.33623   0.00000  Uiso   1.00
C29    C     0.16647   0.16612   0.16370   0.00000  Uiso   1.00
C30    C     0.14638   0.12058   0.09240   0.00000  Uiso   1.00
F31    F     0.21856   0.24772   0.11630   0.00000  Uiso   1.00
F32    F     0.13373   0.08003   0.38054   0.00000  Uiso   1.00
F33    F     0.24453   0.00609   0.24872   0.00000  Uiso   1.00
F34    F     0.08898   0.32780   0.26170   0.00000  Uiso   1.00
H35    H     0.21580   0.29207   0.04430   0.00000  Uiso   1.00
H36    H     0.23890   0.26180   0.33797   0.00000  Uiso   1.00
H37    H     0.26189   0.27418   0.39467   0.00000  Uiso   1.00
H38    H     0.22252   0.02629   0.39856   0.00000  Uiso   1.00
H39    H     0.27322   0.01959   0.35016   0.00000  Uiso   1.00
H40    H     0.19809   0.01459   0.34281   0.00000  Uiso   1.00
H41    H     0.32241   0.12230   0.14995   0.00000  Uiso   1.00
H42    H     0.26739   0.09332   0.18750   0.00000  Uiso   1.00
H43    H     0.00318   0.01883   0.19241   0.00000  Uiso   1.00
H44    H     0.28931   0.02039   0.14817   0.00000  Uiso   1.00
H45    H     0.02875   0.04136   0.13715   0.00000  Uiso   1.00
H46    H     0.11777   0.04136   0.45537   0.00000  Uiso   1.00
H47    H     0.00463   0.27106   0.33755   0.00000  Uiso   1.00
H48    H     0.06449   0.24118   0.31622   0.00000  Uiso   1.00
H49    H     0.29313   0.19127   0.37238   0.00000  Uiso   1.00
H50    H     0.01681   0.15437   0.34848   0.00000  Uiso   1.00
H51    H     0.03031   0.20547   0.39041   0.00000  Uiso   1.00
H52    H     0.20508   0.29673   0.46453   0.00000  Uiso   1.00
H53    H     0.11433   0.04049   0.03696   0.00000  Uiso   1.00
H54    H     0.19149   0.06481   0.14966   0.00000  Uiso   1.00
H55    H     0.19123   0.03527   0.09342   0.00000  Uiso   1.00
H56    H     0.11600   0.30513   0.11762   0.00000  Uiso   1.00
H57    H     0.16758   0.30866   0.15963   0.00000  Uiso   1.00
H58    H     0.10282   0.00614   0.17128   0.00000  Uiso   1.00
N59    N     0.31678   0.15265   0.23783   0.00000  Uiso   1.00
N60    N     0.01656   0.18068   0.26217   0.00000  Uiso   1.00
O61    O     0.12975   0.24619   0.25298   0.00000  Uiso   1.00
O62    O     0.17390   0.26320   0.38823   0.00000  Uiso   1.00
O63    O     0.01038   0.11380   0.21510   0.00000  Uiso   1.00
O64    O     0.32276   0.21845   0.28598   0.00000  Uiso   1.00
O65    O     0.20358   0.08714   0.24702   0.00000  Uiso   1.00
O66    O     0.22613   0.23721   0.24519   0.00000  Uiso   1.00
O67    O     0.10720   0.09613   0.25481   0.00000  Uiso   1.00
O68    O     0.11847   0.17117   0.31997   0.00000  Uiso   1.00
O69    O     0.21486   0.16216   0.18003   0.00000  Uiso   1.00
O70    O     0.21485   0.16219   0.31217   0.00000  Uiso   1.00
O71    O     0.11848   0.17115   0.18782   0.00000  Uiso   1.00
O72    O     0.12173   0.07857   0.11545   0.00000  Uiso   1.00
Zn73   Zn    0.10231   0.17266   0.25521   0.00000  Uiso   1.00
Zn74   Zn    0.23102   0.16067   0.24479   0.00000  Uiso   1.00
C75    C     0.51508   0.26467   0.25004   0.00000  Uiso   1.00
C76    C     0.50952   0.21623   0.40834   0.00000  Uiso   1.00
C77    C     0.50032   0.16520   0.11578   0.00000  Uiso   1.00
C78    C     0.49951   0.16927   0.38400   0.00000  Uiso   1.00
C79    C     0.52427   0.20846   0.09339   0.00000  Uiso   1.00
C80    C     0.48356   0.12311   0.40527   0.00000  Uiso   1.00
C81    C     0.52000   0.21095   0.04753   0.00000  Uiso   1.00
C82    C     0.48193   0.12213   0.45180   0.00000  Uiso   1.00
C83    C     0.49962   0.16641   0.02321   0.00000  Uiso   1.00
C84    C     0.49837   0.16774   0.47656   0.00000  Uiso   1.00
C85    C     0.48057   0.12058   0.04552   0.00000  Uiso   1.00
C86    C     0.48498   0.06880   0.25254   0.00000  Uiso   1.00
C87    C     0.51213   0.21502   0.45488   0.00000  Uiso   1.00
C88    C     0.53456   0.25735   0.02581   0.00000  Uiso   1.00
C89    C     0.46416   0.07654   0.47396   0.00000  Uiso   1.00
C90    C     0.49753   0.04587   0.12446   0.00000  Uiso   1.00
C91    C     0.46915   0.32994   0.14422   0.00000  Uiso   1.00
C92    C     0.56222   0.28101   0.37141   0.00000  Uiso   1.00
C93    C     0.56403   0.00571   0.36538   0.00000  Uiso   1.00
C94    C     0.64610   0.09601   0.17847   0.00000  Uiso   1.00
C95    C     0.65972   0.04092   0.16339   0.00000  Uiso   1.00
C96    C     0.35204   0.23309   0.32422   0.00000  Uiso   1.00
C97    C     0.52848   0.25990   0.48010   0.00000  Uiso   1.00
C98    C     0.33901   0.19364   0.36108   0.00000  Uiso   1.00
C99    C     0.46240   0.07604   0.02061   0.00000  Uiso   1.00
C100   C     0.52297   0.31911   0.25183   0.00000  Uiso   1.00
C101   C     0.47719   0.01464   0.25592   0.00000  Uiso   1.00
C102   C     0.50032   0.16853   0.33623   0.00000  Uiso   1.00
C103   C     0.49980   0.16612   0.16370   0.00000  Uiso   1.00
C104   C     0.47972   0.12058   0.09240   0.00000  Uiso   1.00
F105   F     0.55189   0.24772   0.11630   0.00000  Uiso   1.00
F106   F     0.46707   0.08003   0.38054   0.00000  Uiso   1.00
F107   F     0.57787   0.00609   0.24872   0.00000  Uiso   1.00
F108   F     0.42231   0.32780   0.26170   0.00000  Uiso   1.00
H109   H     0.54913   0.29207   0.04430   0.00000  Uiso   1.00
H110   H     0.57224   0.26180   0.33797   0.00000  Uiso   1.00
H111   H     0.59522   0.27418   0.39467   0.00000  Uiso   1.00
H112   H     0.55585   0.02629   0.39856   0.00000  Uiso   1.00
H113   H     0.60655   0.01959   0.35016   0.00000  Uiso   1.00
H114   H     0.53142   0.01459   0.34281   0.00000  Uiso   1.00
H115   H     0.65574   0.12230   0.14995   0.00000  Uiso   1.00
H116   H     0.60073   0.09332   0.18750   0.00000  Uiso   1.00
H117   H     0.33651   0.01883   0.19241   0.00000  Uiso   1.00
H118   H     0.62264   0.02039   0.14817   0.00000  Uiso   1.00
H119   H     0.36208   0.04136   0.13715   0.00000  Uiso   1.00
H120   H     0.45111   0.04136   0.45537   0.00000  Uiso   1.00
H121   H     0.33797   0.27106   0.33755   0.00000  Uiso   1.00
H122   H     0.39782   0.24118   0.31622   0.00000  Uiso   1.00
H123   H     0.62647   0.19127   0.37238   0.00000  Uiso   1.00
H124   H     0.35014   0.15437   0.34848   0.00000  Uiso   1.00
H125   H     0.36365   0.20547   0.39041   0.00000  Uiso   1.00
H126   H     0.53841   0.29673   0.46453   0.00000  Uiso   1.00
H127   H     0.44767   0.04049   0.03696   0.00000  Uiso   1.00
H128   H     0.52482   0.06481   0.14966   0.00000  Uiso   1.00
H129   H     0.52456   0.03527   0.09342   0.00000  Uiso   1.00
H130   H     0.44933   0.30513   0.11762   0.00000  Uiso   1.00
H131   H     0.50092   0.30866   0.15963   0.00000  Uiso   1.00
H132   H     0.43615   0.00614   0.17128   0.00000  Uiso   1.00
N133   N     0.65011   0.15265   0.23783   0.00000  Uiso   1.00
N134   N     0.34989   0.18068   0.26217   0.00000  Uiso   1.00
O135   O     0.46308   0.24619   0.25298   0.00000  Uiso   1.00
O136   O     0.50724   0.26320   0.38823   0.00000  Uiso   1.00
O137   O     0.34371   0.11380   0.21510   0.00000  Uiso   1.00
O138   O     0.65610   0.21845   0.28598   0.00000  Uiso   1.00
O139   O     0.53692   0.08714   0.24702   0.00000  Uiso   1.00
O140   O     0.55946   0.23721   0.24519   0.00000  Uiso   1.00
O141   O     0.44054   0.09613   0.25481   0.00000  Uiso   1.00
O142   O     0.45181   0.17117   0.31997   0.00000  Uiso   1.00
O143   O     0.54819   0.16216   0.18003   0.00000  Uiso   1.00
O144   O     0.54819   0.16219   0.31217   0.00000  Uiso   1.00
O145   O     0.45181   0.17115   0.18782   0.00000  Uiso   1.00
O146   O     0.45506   0.07857   0.11545   0.00000  Uiso   1.00
Zn147  Zn    0.43565   0.17266   0.25521   0.00000  Uiso   1.00
Zn148  Zn    0.56435   0.16067   0.24479   0.00000  Uiso   1.00
C149   C     0.84841   0.26467   0.25004   0.00000  Uiso   1.00
C150   C     0.84286   0.21623   0.40834   0.00000  Uiso   1.00
C151   C     0.83365   0.16520   0.11578   0.00000  Uiso   1.00
C152   C     0.83285   0.16927   0.38400   0.00000  Uiso   1.00
C153   C     0.85760   0.20846   0.09339   0.00000  Uiso   1.00
C154   C     0.81690   0.12311   0.40527   0.00000  Uiso   1.00
C155   C     0.85334   0.21095   0.04753   0.00000  Uiso   1.00
C156   C     0.81526   0.12213   0.45180   0.00000  Uiso   1.00
C157   C     0.83295   0.16641   0.02321   0.00000  Uiso   1.00
C158   C     0.83170   0.16774   0.47656   0.00000  Uiso   1.00
C159   C     0.81391   0.12058   0.04552   0.00000  Uiso   1.00
C160   C     0.81831   0.06880   0.25254   0.00000  Uiso   1.00
C161   C     0.84546   0.21502   0.45488   0.00000  Uiso   1.00
C162   C     0.86789   0.25735   0.02581   0.00000  Uiso   1.00
C163   C     0.79749   0.07654   0.47396   0.00000  Uiso   1.00
C164   C     0.83086   0.04587   0.12446   0.00000  Uiso   1.00
C165   C     0.80248   0.32994   0.14422   0.00000  Uiso   1.00
C166   C     0.89556   0.28101   0.37141   0.00000  Uiso   1.00
C167   C     0.89736   0.00571   0.36538   0.00000  Uiso   1.00
C168   C     0.97944   0.09601   0.17847   0.00000  Uiso   1.00
C169   C     0.99305   0.04092   0.16339   0.00000  Uiso   1.00
C170   C     0.68537   0.23309   0.32422   0.00000  Uiso   1.00
C171   C     0.86181   0.25990   0.48010   0.00000  Uiso   1.00
C172   C     0.67234   0.19364   0.36108   0.00000  Uiso   1.00
C173   C     0.79574   0.07604   0.02061   0.00000  Uiso   1.00
C174   C     0.85630   0.31911   0.25183   0.00000  Uiso   1.00
C175   C     0.81053   0.01464   0.25592   0.00000  Uiso   1.00
C176   C     0.83366   0.16853   0.33623   0.00000  Uiso   1.00
C177   C     0.83314   0.16612   0.16370   0.00000  Uiso   1.00
C178   C     0.81305   0.12058   0.09240   0.00000  Uiso   1.00
F179   F     0.88522   0.24772   0.11630   0.00000  Uiso   1.00
F180   F     0.80040   0.08003   0.38054   0.00000  Uiso   1.00
F181   F     0.91120   0.00609   0.24872   0.00000  Uiso   1.00
F182   F     0.75564   0.32780   0.26170   0.00000  Uiso   1.00
H183   H     0.88247   0.29207   0.04430   0.00000  Uiso   1.00
H184   H     0.90557   0.26180   0.33797   0.00000  Uiso   1.00
H185   H     0.92855   0.27418   0.39467   0.00000  Uiso   1.00
H186   H     0.88919   0.02629   0.39856   0.00000  Uiso   1.00
H187   H     0.93988   0.01959   0.35016   0.00000  Uiso   1.00
H188   H     0.86476   0.01459   0.34281   0.00000  Uiso   1.00
H189   H     0.98907   0.12230   0.14995   0.00000  Uiso   1.00
H190   H     0.93406   0.09332   0.18750   0.00000  Uiso   1.00
H191   H     0.66985   0.01883   0.19241   0.00000  Uiso   1.00
H192   H     0.95597   0.02039   0.14817   0.00000  Uiso   1.00
H193   H     0.69541   0.04136   0.13715   0.00000  Uiso   1.00
H194   H     0.78444   0.04136   0.45537   0.00000  Uiso   1.00
H195   H     0.67130   0.27106   0.33755   0.00000  Uiso   1.00
H196   H     0.73116   0.24118   0.31622   0.00000  Uiso   1.00
H197   H     0.95980   0.19127   0.37238   0.00000  Uiso   1.00
H198   H     0.68348   0.15437   0.34848   0.00000  Uiso   1.00
H199   H     0.69698   0.20547   0.39041   0.00000  Uiso   1.00
H200   H     0.87175   0.29673   0.46453   0.00000  Uiso   1.00
H201   H     0.78100   0.04049   0.03696   0.00000  Uiso   1.00
H202   H     0.85815   0.06481   0.14966   0.00000  Uiso   1.00
H203   H     0.85789   0.03527   0.09342   0.00000  Uiso   1.00
H204   H     0.78267   0.30513   0.11762   0.00000  Uiso   1.00
H205   H     0.83425   0.30866   0.15963   0.00000  Uiso   1.00
H206   H     0.76949   0.00614   0.17128   0.00000  Uiso   1.00
N207   N     0.98344   0.15265   0.23783   0.00000  Uiso   1.00
N208   N     0.68322   0.18068   0.26217   0.00000  Uiso   1.00
O209   O     0.79642   0.24619   0.25298   0.00000  Uiso   1.00
O210   O     0.84057   0.26320   0.38823   0.00000  Uiso   1.00
O211   O     0.67705   0.11380   0.21510   0.00000  Uiso   1.00
O212   O     0.98943   0.21845   0.28598   0.00000  Uiso   1.00
O213   O     0.87025   0.08714   0.24702   0.00000  Uiso   1.00
O214   O     0.89280   0.23721   0.24519   0.00000  Uiso   1.00
O215   O     0.77387   0.09613   0.25481   0.00000  Uiso   1.00
O216   O     0.78514   0.17117   0.31997   0.00000  Uiso   1.00
O217   O     0.88153   0.16216   0.18003   0.00000  Uiso   1.00
O218   O     0.88152   0.16219   0.31217   0.00000  Uiso   1.00
O219   O     0.78515   0.17115   0.18782   0.00000  Uiso   1.00
O220   O     0.78839   0.07857   0.11545   0.00000  Uiso   1.00
Zn221  Zn    0.76898   0.17266   0.25521   0.00000  Uiso   1.00
Zn222  Zn    0.89769   0.16067   0.24479   0.00000  Uiso   1.00
C223   C     0.18174   0.59800   0.25004   0.00000  Uiso   1.00
C224   C     0.17619   0.54956   0.40834   0.00000  Uiso   1.00
C225   C     0.16698   0.49854   0.11578   0.00000  Uiso   1.00
C226   C     0.16618   0.50261   0.38400   0.00000  Uiso   1.00
C227   C     0.19094   0.54179   0.09339   0.00000  Uiso   1.00
C228   C     0.15023   0.45645   0.40527   0.00000  Uiso   1.00
C229   C     0.18667   0.54428   0.04753   0.00000  Uiso   1.00
C230   C     0.14860   0.45546   0.45180   0.00000  Uiso   1.00
C231   C     0.16628   0.49974   0.02321   0.00000  Uiso   1.00
C232   C     0.16503   0.50108   0.47656   0.00000  Uiso   1.00
C233   C     0.14724   0.45391   0.04552   0.00000  Uiso   1.00
C234   C     0.15165   0.40213   0.25254   0.00000  Uiso   1.00
C235   C     0.17880   0.54835   0.45488   0.00000  Uiso   1.00
C236   C     0.20123   0.59069   0.02581   0.00000  Uiso   1.00
C237   C     0.13082   0.40988   0.47396   0.00000  Uiso   1.00
C238   C     0.16420   0.37921   0.12446   0.00000  Uiso   1.00
C239   C     0.13582   0.66328   0.14422   0.00000  Uiso   1.00
C240   C     0.22889   0.61435   0.37141   0.00000  Uiso   1.00
C241   C     0.23069   0.33905   0.36538   0.00000  Uiso   1.00
C242   C     0.31277   0.42934   0.17847   0.00000  Uiso   1.00
C243   C     0.32638   0.37425   0.16339   0.00000  Uiso   1.00
C244   C     0.01871   0.56642   0.32422   0.00000  Uiso   1.00
C245   C     0.19515   0.59324   0.48010   0.00000  Uiso   1.00
C246   C     0.00568   0.52698   0.36108   0.00000  Uiso   1.00
C247   C     0.12907   0.40937   0.02061   0.00000  Uiso   1.00
C248   C     0.18964   0.65244   0.25183   0.00000  Uiso   1.00
C249   C     0.14386   0.34798   0.25592   0.00000  Uiso   1.00
C250   C     0.16699   0.50186   0.33623   0.00000  Uiso   1.00
C251   C     0.16647   0.49946   0.16370   0.00000  Uiso   1.00
C252   C     0.14638   0.45391   0.09240   0.00000  Uiso   1.00
F253   F     0.21856   0.58105   0.11630   0.00000  Uiso   1.00
F254   F     0.13373   0.41337   0.38054   0.00000  Uiso   1.00
F255   F     0.24453   0.33942   0.24872   0.00000  Uiso   1.00
F256   F     0.08898   0.66114   0.26170   0.00000  Uiso   1.00
H257   H     0.21580   0.62541   0.04430   0.00000  Uiso   1.00
H258   H     0.23890   0.59513   0.33797   0.00000  Uiso   1.00
H259   H     0.26189   0.60752   0.39467   0.00000  Uiso   1.00
H260   H     0.22252   0.35963   0.39856   0.00000  Uiso   1.00
H261   H     0.27322   0.35292   0.35016   0.00000  Uiso   1.00
H262   H     0.19809   0.34793   0.34281   0.00000  Uiso   1.00
H263   H     0.32241   0.45563   0.14995   0.00000  Uiso   1.00
H264   H     0.26739   0.42665   0.18750   0.00000  Uiso   1.00
H265   H     0.00318   0.35216   0.19241   0.00000  Uiso   1.00
H266   H     0.28931   0.35372   0.14817   0.00000  Uiso   1.00
H267   H     0.02875   0.37470   0.13715   0.00000  Uiso   1.00
H268   H     0.11777   0.37469   0.45537   0.00000  Uiso   1.00
H269   H     0.00463   0.60439   0.33755   0.00000  Uiso   1.00
H270   H     0.06449   0.57452   0.31622   0.00000  Uiso   1.00
H271   H     0.29313   0.52460   0.37238   0.00000  Uiso   1.00
H272   H     0.01681   0.48771   0.34848   0.00000  Uiso   1.00
H273   H     0.03031   0.53880   0.39041   0.00000  Uiso   1.00
H274   H     0.20508   0.63006   0.46453   0.00000  Uiso   1.00
H275   H     0.11433   0.37382   0.03696   0.00000  Uiso   1.00
H276   H     0.19149   0.39815   0.14966   0.00000  Uiso   1.00
H277   H     0.19123   0.36861   0.09342   0.00000  Uiso   1.00
H278   H     0.11600   0.63847   0.11762   0.00000  Uiso   1.00
H279   H     0.16758   0.64200   0.15963   0.00000  Uiso   1.00
H280   H     0.10282   0.33947   0.17128   0.00000  Uiso   1.00
N281   N     0.31678   0.48598   0.23783   0.00000  Uiso   1.00
N282   N     0.01656   0.51402   0.26217   0.00000  Uiso   1.00
O283   O     0.12975   0.57952   0.25298   0.00000  Uiso   1.00
O284   O     0.17390   0.59654   0.38823   0.00000  Uiso   1.00
O285   O     0.01038   0.44713   0.21510   0.00000  Uiso   1.00
O286   O     0.32276   0.55179   0.28598   0.00000  Uiso   1.00
O287   O     0.20358   0.42048   0.24702   0.00000  Uiso   1.00
O288   O     0.22613   0.57054   0.24519   0.00000  Uiso   1.00
O289   O     0.10720   0.42946   0.25481   0.00000  Uiso   1.00
O290   O     0.11847   0.50450   0.31997   0.00000  Uiso   1.00
O291   O     0.21486   0.49550   0.18003   0.00000  Uiso   1.00
O292   O     0.21485   0.49552   0.31217   0.00000  Uiso   1.00
O293   O     0.11848   0.50448   0.18782   0.00000  Uiso   1.00
O294   O     0.12173   0.41191   0.11545   0.00000  Uiso   1.00
Zn295  Zn    0.10231   0.50600   0.25521   0.00000  Uiso   1.00
Zn296  Zn    0.23102   0.49400   0.24479   0.00000  Uiso   1.00
C297   C     0.51508   0.59800   0.25004   0.00000  Uiso   1.00
C298   C     0.50952   0.54956   0.40834   0.00000  Uiso   1.00
C299   C     0.50032   0.49854   0.11578   0.00000  Uiso   1.00
C300   C     0.49951   0.50261   0.38400   0.00000  Uiso   1.00
C301   C     0.52427   0.54179   0.09339   0.00000  Uiso   1.00
C302   C     0.48356   0.45645   0.40527   0.00000  Uiso   1.00
C303   C     0.52000   0.54428   0.04753   0.00000  Uiso   1.00
C304   C     0.48193   0.45546   0.45180   0.00000  Uiso   1.00
C305   C     0.49962   0.49974   0.02321   0.00000  Uiso   1.00
C306   C     0.49837   0.50108   0.47656   0.00000  Uiso   1.00
C307   C     0.48057   0.45391   0.04552   0.00000  Uiso   1.00
C308   C     0.48498   0.40213   0.25254   0.00000  Uiso   1.00
C309   C     0.51213   0.54835   0.45488   0.00000  Uiso   1.00
C310   C     0.53456   0.59069   0.02581   0.00000  Uiso   1.00
C311   C     0.46416   0.40988   0.47396   0.00000  Uiso   1.00
C312   C     0.49753   0.37921   0.12446   0.00000  Uiso   1.00
C313   C     0.46915   0.66328   0.14422   0.00000  Uiso   1.00
C314   C     0.56222   0.61435   0.37141   0.00000  Uiso   1.00
C315   C     0.56403   0.33905   0.36538   0.00000  Uiso   1.00
C316   C     0.64610   0.42934   0.17847   0.00000  Uiso   1.00
C317   C     0.65972   0.37425   0.16339   0.00000  Uiso   1.00
C318   C     0.35204   0.56642   0.32422   0.00000  Uiso   1.00
C319   C     0.52848   0.59324   0.48010   0.00000  Uiso   1.00
C320   C     0.33901   0.52698   0.36108   0.00000  Uiso   1.00
C321   C     0.46240   0.40937   0.02061   0.00000  Uiso   1.00
C322   C     0.52297   0.65244   0.25183   0.00000  Uiso   1.00
C323   C     0.47719   0.34798   0.25592   0.00000  Uiso   1.00
C324   C     0.50032   0.50186   0.33623   0.00000  Uiso   1.00
C325   C     0.49980   0.49946   0.16370   0.00000  Uiso   1.00
C326   C     0.47972   0.45391   0.09240   0.00000  Uiso   1.00
F327   F     0.55189   0.58105   0.11630   0.00000  Uiso   1.00
F328   F     0.46707   0.41337   0.38054   0.00000  Uiso   1.00
F329   F     0.57787   0.33942   0.24872   0.00000  Uiso   1.00
F330   F     0.42231   0.66114   0.26170   0.00000  Uiso   1.00
H331   H     0.54913   0.62541   0.04430   0.00000  Uiso   1.00
H332   H     0.57224   0.59513   0.33797   0.00000  Uiso   1.00
H333   H     0.59522   0.60752   0.39467   0.00000  Uiso   1.00
H334   H     0.55585   0.35963   0.39856   0.00000  Uiso   1.00
H335   H     0.60655   0.35292   0.35016   0.00000  Uiso   1.00
H336   H     0.53142   0.34793   0.34281   0.00000  Uiso   1.00
H337   H     0.65574   0.45563   0.14995   0.00000  Uiso   1.00
H338   H     0.60073   0.42665   0.18750   0.00000  Uiso   1.00
H339   H     0.33651   0.35216   0.19241   0.00000  Uiso   1.00
H340   H     0.62264   0.35372   0.14817   0.00000  Uiso   1.00
H341   H     0.36208   0.37470   0.13715   0.00000  Uiso   1.00
H342   H     0.45111   0.37469   0.45537   0.00000  Uiso   1.00
H343   H     0.33797   0.60439   0.33755   0.00000  Uiso   1.00
H344   H     0.39782   0.57452   0.31622   0.00000  Uiso   1.00
H345   H     0.62647   0.52460   0.37238   0.00000  Uiso   1.00
H346   H     0.35014   0.48771   0.34848   0.00000  Uiso   1.00
H347   H     0.36365   0.53880   0.39041   0.00000  Uiso   1.00
H348   H     0.53841   0.63006   0.46453   0.00000  Uiso   1.00
H349   H     0.44767   0.37382   0.03696   0.00000  Uiso   1.00
H350   H     0.52482   0.39815   0.14966   0.00000  Uiso   1.00
H351   H     0.52456   0.36861   0.09342   0.00000  Uiso   1.00
H352   H     0.44933   0.63847   0.11762   0.00000  Uiso   1.00
H353   H     0.50092   0.64200   0.15963   0.00000  Uiso   1.00
H354   H     0.43615   0.33947   0.17128   0.00000  Uiso   1.00
N355   N     0.65011   0.48598   0.23783   0.00000  Uiso   1.00
N356   N     0.34989   0.51402   0.26217   0.00000  Uiso   1.00
O357   O     0.46308   0.57952   0.25298   0.00000  Uiso   1.00
O358   O     0.50724   0.59654   0.38823   0.00000  Uiso   1.00
O359   O     0.34371   0.44713   0.21510   0.00000  Uiso   1.00
O360   O     0.65610   0.55179   0.28598   0.00000  Uiso   1.00
O361   O     0.53692   0.42048   0.24702   0.00000  Uiso   1.00
O362   O     0.55946   0.57054   0.24519   0.00000  Uiso   1.00
O363   O     0.44054   0.42946   0.25481   0.00000  Uiso   1.00
O364   O     0.45181   0.50450   0.31997   0.00000  Uiso   1.00
O365   O     0.54819   0.49550   0.18003   0.00000  Uiso   1.00
O366   O     0.54819   0.49552   0.31217   0.00000  Uiso   1.00
O367   O     0.45181   0.50448   0.18782   0.00000  Uiso   1.00
O368   O     0.45506   0.41191   0.11545   0.00000  Uiso   1.00
Zn369  Zn    0.43565   0.50600   0.25521   0.00000  Uiso   1.00
Zn370  Zn    0.56435   0.49400   0.24479   0.00000  Uiso   1.00
C371   C     0.84841   0.59800   0.25004   0.00000  Uiso   1.00
C372   C     0.84286   0.54956   0.40834   0.00000  Uiso   1.00
C373   C     0.83365   0.49854   0.11578   0.00000  Uiso   1.00
C374   C     0.83285   0.50261   0.38400   0.00000  Uiso   1.00
C375   C     0.85760   0.54179   0.09339   0.00000  Uiso   1.00
C376   C     0.81690   0.45645   0.40527   0.00000  Uiso   1.00
C377   C     0.85334   0.54428   0.04753   0.00000  Uiso   1.00
C378   C     0.81526   0.45546   0.45180   0.00000  Uiso   1.00
C379   C     0.83295   0.49974   0.02321   0.00000  Uiso   1.00
C380   C     0.83170   0.50108   0.47656   0.00000  Uiso   1.00
C381   C     0.81391   0.45391   0.04552   0.00000  Uiso   1.00
C382   C     0.81831   0.40213   0.25254   0.00000  Uiso   1.00
C383   C     0.84546   0.54835   0.45488   0.00000  Uiso   1.00
C384   C     0.86789   0.59069   0.02581   0.00000  Uiso   1.00
C385   C     0.79749   0.40988   0.47396   0.00000  Uiso   1.00
C386   C     0.83086   0.37921   0.12446   0.00000  Uiso   1.00
C387   C     0.80248   0.66328   0.14422   0.00000  Uiso   1.00
C388   C     0.89556   0.61435   0.37141   0.00000  Uiso   1.00
C389   C     0.89736   0.33905   0.36538   0.00000  Uiso   1.00
C390   C     0.97944   0.42934   0.17847   0.00000  Uiso   1.00
C391   C     0.99305   0.37425   0.16339   0.00000  Uiso   1.00
C392   C     0.68537   0.56642   0.32422   0.00000  Uiso   1.00
C393   C     0.86181   0.59324   0.48010   0.00000  Uiso   1.00
C394   C     0.67234   0.52698   0.36108   0.00000  Uiso   1.00
C395   C     0.79574   0.40937   0.02061   0.00000  Uiso   1.00
C396   C     0.85630   0.65244   0.25183   0.00000  Uiso   1.00
C397   C     0.81053   0.34798   0.25592   0.00000  Uiso   1.00
C398   C     0.83366   0.50186   0.33623   0.00000  Uiso   1.00
C399   C     0.83314   0.49946   0.16370   0.00000  Uiso   1.00
C400   C     0.81305   0.45391   0.09240   0.00000  Uiso   1.00
F401   F     0.88522   0.58105   0.11630   0.00000  Uiso   1.00
F402   F     0.80040   0.41337   0.38054   0.00000  Uiso   1.00
F403   F     0.91120   0.33942   0.24872   0.00000  Uiso   1.00
F404   F     0.75564   0.66114   0.26170   0.00000  Uiso   1.00
H405   H     0.88247   0.62541   0.04430   0.00000  Uiso   1.00
H406   H     0.90557   0.59513   0.33797   0.00000  Uiso   1.00
H407   H     0.92855   0.60752   0.39467   0.00000  Uiso   1.00
H408   H     0.88919   0.35963   0.39856   0.00000  Uiso   1.00
H409   H     0.93988   0.35292   0.35016   0.00000  Uiso   1.00
H410   H     0.86476   0.34793   0.34281   0.00000  Uiso   1.00
H411   H     0.98907   0.45563   0.14995   0.00000  Uiso   1.00
H412   H     0.93406   0.42665   0.18750   0.00000  Uiso   1.00
H413   H     0.66985   0.35216   0.19241   0.00000  Uiso   1.00
H414   H     0.95597   0.35372   0.14817   0.00000  Uiso   1.00
H415   H     0.69541   0.37470   0.13715   0.00000  Uiso   1.00
H416   H     0.78444   0.37469   0.45537   0.00000  Uiso   1.00
H417   H     0.67130   0.60439   0.33755   0.00000  Uiso   1.00
H418   H     0.73116   0.57452   0.31622   0.00000  Uiso   1.00
H419   H     0.95980   0.52460   0.37238   0.00000  Uiso   1.00
H420   H     0.68348   0.48771   0.34848   0.00000  Uiso   1.00
H421   H     0.69698   0.53880   0.39041   0.00000  Uiso   1.00
H422   H     0.87175   0.63006   0.46453   0.00000  Uiso   1.00
H423   H     0.78100   0.37382   0.03696   0.00000  Uiso   1.00
H424   H     0.85815   0.39815   0.14966   0.00000  Uiso   1.00
H425   H     0.85789   0.36861   0.09342   0.00000  Uiso   1.00
H426   H     0.78267   0.63847   0.11762   0.00000  Uiso   1.00
H427   H     0.83425   0.64200   0.15963   0.00000  Uiso   1.00
H428   H     0.76949   0.33947   0.17128   0.00000  Uiso   1.00
N429   N     0.98344   0.48598   0.23783   0.00000  Uiso   1.00
N430   N     0.68322   0.51402   0.26217   0.00000  Uiso   1.00
O431   O     0.79642   0.57952   0.25298   0.00000  Uiso   1.00
O432   O     0.84057   0.59654   0.38823   0.00000  Uiso   1.00
O433   O     0.67705   0.44713   0.21510   0.00000  Uiso   1.00
O434   O     0.98943   0.55179   0.28598   0.00000  Uiso   1.00
O435   O     0.87025   0.42048   0.24702   0.00000  Uiso   1.00
O436   O     0.89280   0.57054   0.24519   0.00000  Uiso   1.00
O437   O     0.77387   0.42946   0.25481   0.00000  Uiso   1.00
O438   O     0.78514   0.50450   0.31997   0.00000  Uiso   1.00
O439   O     0.88153   0.49550   0.18003   0.00000  Uiso   1.00
O440   O     0.88152   0.49552   0.31217   0.00000  Uiso   1.00
O441   O     0.78515   0.50448   0.18782   0.00000  Uiso   1.00
O442   O     0.78839   0.41191   0.11545   0.00000  Uiso   1.00
Zn443  Zn    0.76898   0.50600   0.25521   0.00000  Uiso   1.00
Zn444  Zn    0.89769   0.49400   0.24479   0.00000  Uiso   1.00
C445   C     0.18174   0.93134   0.25004   0.00000  Uiso   1.00
C446   C     0.17619   0.88290   0.40834   0.00000  Uiso   1.00
C447   C     0.16698   0.83187   0.11578   0.00000  Uiso   1.00
C448   C     0.16618   0.83594   0.38400   0.00000  Uiso   1.00
C449   C     0.19094   0.87513   0.09339   0.00000  Uiso   1.00
C450   C     0.15023   0.78978   0.40527   0.00000  Uiso   1.00
C451   C     0.18667   0.87762   0.04753   0.00000  Uiso   1.00
C452   C     0.14860   0.78880   0.45180   0.00000  Uiso   1.00
C453   C     0.16628   0.83307   0.02321   0.00000  Uiso   1.00
C454   C     0.16503   0.83441   0.47656   0.00000  Uiso   1.00
C455   C     0.14724   0.78724   0.04552   0.00000  Uiso   1.00
C456   C     0.15165   0.73547   0.25254   0.00000  Uiso   1.00
C457   C     0.17880   0.88169   0.45488   0.00000  Uiso   1.00
C458   C     0.20123   0.92402   0.02581   0.00000  Uiso   1.00
C459   C     0.13082   0.74321   0.47396   0.00000  Uiso   1.00
C460   C     0.16420   0.71254   0.12446   0.00000  Uiso   1.00
C461   C     0.13582   0.99661   0.14422   0.00000  Uiso   1.00
C462   C     0.22889   0.94768   0.37141   0.00000  Uiso   1.00
C463   C     0.23069   0.67238   0.36538   0.00000  Uiso   1.00
C464   C     0.31277   0.76267   0.17847   0.00000  Uiso   1.00
C465   C     0.32638   0.70759   0.16339   0.00000  Uiso   1.00
C466   C     0.01871   0.89975   0.32422   0.00000  Uiso   1.00
C467   C     0.19515   0.92657   0.48010   0.00000  Uiso   1.00
C468   C     0.00568   0.86031   0.36108   0.00000  Uiso   1.00
C469   C     0.12907   0.74271   0.02061   0.00000  Uiso   1.00
C470   C     0.18964   0.98577   0.25183   0.00000  Uiso   1.00
C471   C     0.14386   0.68131   0.25592   0.00000  Uiso   1.00
C472   C     0.16699   0.83519   0.33623   0.00000  Uiso   1.00
C473   C     0.16647   0.83279   0.16370   0.00000  Uiso   1.00
C474   C     0.14638   0.78724   0.09240   0.00000  Uiso   1.00
F475   F     0.21856   0.91439   0.11630   0.00000  Uiso   1.00
F476   F     0.13373   0.74670   0.38054   0.00000  Uiso   1.00
F477   F     0.24453   0.67276   0.24872   0.00000  Uiso   1.00
F478   F     0.08898   0.99447   0.26170   0.00000  Uiso   1.00
H479   H     0.21580   0.95874   0.04430   0.00000  Uiso   1.00
H480   H     0.23890   0.92846   0.33797   0.00000  Uiso   1.00
H481   H     0.26189   0.94085   0.39467   0.00000  Uiso   1.00
H482   H     0.22252   0.69296   0.39856   0.00000  Uiso   1.00
H483   H     0.27322   0.68625   0.35016   0.00000  Uiso   1.00
H484   H     0.19809   0.68126   0.34281   0.00000  Uiso   1.00
H485   H     0.32241   0.78896   0.14995   0.00000  Uiso   1.00
H486   H     0.26739   0.75999   0.18750   0.00000  Uiso   1.00
H487   H     0.00318   0.68550   0.19241   0.00000  Uiso   1.00
H488   H     0.28931   0.68705   0.14817   0.00000  Uiso   1.00
H489   H     0.02875   0.70803   0.13715   0.00000  Uiso   1.00
H490   H     0.11777   0.70802   0.45537   0.00000  Uiso   1.00
H491   H     0.00463   0.93772   0.33755   0.00000  Uiso   1.00
H492   H     0.06449   0.90785   0.31622   0.00000  Uiso   1.00
H493   H     0.29313   0.85793   0.37238   0.00000  Uiso   1.00
H494   H     0.01681   0.82104   0.34848   0.00000  Uiso   1.00
H495   H     0.03031   0.87214   0.39041   0.00000  Uiso   1.00
H496   H     0.20508   0.96340   0.46453   0.00000  Uiso   1.00
H497   H     0.11433   0.70716   0.03696   0.00000  Uiso   1.00
H498   H     0.19149   0.73148   0.14966   0.00000  Uiso   1.00
H499   H     0.19123   0.70194   0.09342   0.00000  Uiso   1.00
H500   H     0.11600   0.97180   0.11762   0.00000  Uiso   1.00
H501   H     0.16758   0.97533   0.15963   0.00000  Uiso   1.00
H502   H     0.10282   0.67280   0.17128   0.00000  Uiso   1.00
N503   N     0.31678   0.81932   0.23783   0.00000  Uiso   1.00
N504   N     0.01656   0.84735   0.26217   0.00000  Uiso   1.00
O505   O     0.12975   0.91286   0.25298   0.00000  Uiso   1.00
O506   O     0.17390   0.92987   0.38823   0.00000  Uiso   1.00
O507   O     0.01038   0.78047   0.21510   0.00000  Uiso   1.00
O508   O     0.32276   0.88512   0.28598   0.00000  Uiso   1.00
O509   O     0.20358   0.75381   0.24702   0.00000  Uiso   1.00
O510   O     0.22613   0.90387   0.24519   0.00000  Uiso   1.00
O511   O     0.10720   0.76279   0.25481   0.00000  Uiso   1.00
O512   O     0.11847   0.83784   0.31997   0.00000  Uiso   1.00
O513   O     0.21486   0.82883   0.18003   0.00000  Uiso   1.00
O514   O     0.21485   0.82885   0.31217   0.00000  Uiso   1.00
O515   O     0.11848   0.83781   0.18782   0.00000  Uiso   1.00
O516   O     0.12173   0.74524   0.11545   0.00000  Uiso   1.00
Zn517  Zn    0.10231   0.83933   0.25521   0.00000  Uiso   1.00
Zn518  Zn    0.23102   0.82734   0.24479   0.00000  Uiso   1.00
C519   C     0.51508   0.93134   0.25004   0.00000  Uiso   1.00
C520   C     0.50952   0.88290   0.40834   0.00000  Uiso   1.00
C521   C     0.50032   0.83187   0.11578   0.00000  Uiso   1.00
C522   C     0.49951   0.83594   0.38400   0.00000  Uiso   1.00
C523   C     0.52427   0.87513   0.09339   0.00000  Uiso   1.00
C524   C     0.48356   0.78978   0.40527   0.00000  Uiso   1.00
C525   C     0.52000   0.87762   0.04753   0.00000  Uiso   1.00
C526   C     0.48193   0.78880   0.45180   0.00000  Uiso   1.00
C527   C     0.49962   0.83307   0.02321   0.00000  Uiso   1.00
C528   C     0.49837   0.83441   0.47656   0.00000  Uiso   1.00
C529   C     0.48057   0.78724   0.04552   0.00000  Uiso   1.00
C530   C     0.48498   0.73547   0.25254   0.00000  Uiso   1.00
C531   C     0.51213   0.88169   0.45488   0.00000  Uiso   1.00
C532   C     0.53456   0.92402   0.02581   0.00000  Uiso   1.00
C533   C     0.46416   0.74321   0.47396   0.00000  Uiso   1.00
C534   C     0.49753   0.71254   0.12446   0.00000  Uiso   1.00
C535   C     0.46915   0.99661   0.14422   0.00000  Uiso   1.00
C536   C     0.56222   0.94768   0.37141   0.00000  Uiso   1.00
C537   C     0.56403   0.67238   0.36538   0.00000  Uiso   1.00
C538   C     0.64610   0.76267   0.17847   0.00000  Uiso   1.00
C539   C     0.65972   0.70759   0.16339   0.00000  Uiso   1.00
C540   C     0.35204   0.89975   0.32422   0.00000  Uiso   1.00
C541   C     0.52848   0.92657   0.48010   0.00000  Uiso   1.00
C542   C     0.33901   0.86031   0.36108   0.00000  Uiso   1.00
C543   C     0.46240   0.74271   0.02061   0.00000  Uiso   1.00
C544   C     0.52297   0.98577   0.25183   0.00000  Uiso   1.00
C545   C     0.47719   0.68131   0.25592   0.00000  Uiso   1.00
C546   C     0.50032   0.83519   0.33623   0.00000  Uiso   1.00
C547   C     0.49980   0.83279   0.16370   0.00000  Uiso   1.00
C548   C     0.47972   0.78724   0.09240   0.00000  Uiso   1.00
F549   F     0.55189   0.91439   0.11630   0.00000  Uiso   1.00
F550   F     0.46707   0.74670   0.38054   0.00000  Uiso   1.00
F551   F     0.57787   0.67276   0.24872   0.00000  Uiso   1.00
F552   F     0.42231   0.99447   0.26170   0.00000  Uiso   1.00
H553   H     0.54913   0.95874   0.04430   0.00000  Uiso   1.00
H554   H     0.57224   0.92846   0.33797   0.00000  Uiso   1.00
H555   H     0.59522   0.94085   0.39467   0.00000  Uiso   1.00
H556   H     0.55585   0.69296   0.39856   0.00000  Uiso   1.00
H557   H     0.60655   0.68625   0.35016   0.00000  Uiso   1.00
H558   H     0.53142   0.68126   0.34281   0.00000  Uiso   1.00
H559   H     0.65574   0.78896   0.14995   0.00000  Uiso   1.00
H560   H     0.60073   0.75999   0.18750   0.00000  Uiso   1.00
H561   H     0.33651   0.68550   0.19241   0.00000  Uiso   1.00
H562   H     0.62264   0.68705   0.14817   0.00000  Uiso   1.00
H563   H     0.36208   0.70803   0.13715   0.00000  Uiso   1.00
H564   H     0.45111   0.70802   0.45537   0.00000  Uiso   1.00
H565   H     0.33797   0.93772   0.33755   0.00000  Uiso   1.00
H566   H     0.39782   0.90785   0.31622   0.00000  Uiso   1.00
H567   H     0.62647   0.85793   0.37238   0.00000  Uiso   1.00
H568   H     0.35014   0.82104   0.34848   0.00000  Uiso   1.00
H569   H     0.36365   0.87214   0.39041   0.00000  Uiso   1.00
H570   H     0.53841   0.96340   0.46453   0.00000  Uiso   1.00
H571   H     0.44767   0.70716   0.03696   0.00000  Uiso   1.00
H572   H     0.52482   0.73148   0.14966   0.00000  Uiso   1.00
H573   H     0.52456   0.70194   0.09342   0.00000  Uiso   1.00
H574   H     0.44933   0.97180   0.11762   0.00000  Uiso   1.00
H575   H     0.50092   0.97533   0.15963   0.00000  Uiso   1.00
H576   H     0.43615   0.67280   0.17128   0.00000  Uiso   1.00
N577   N     0.65011   0.81932   0.23783   0.00000  Uiso   1.00
N578   N     0.34989   0.84735   0.26217   0.00000  Uiso   1.00
O579   O     0.46308   0.91286   0.25298   0.00000  Uiso   1.00
O580   O     0.50724   0.92987   0.38823   0.00000  Uiso   1.00
O581   O     0.34371   0.78047   0.21510   0.00000  Uiso   1.00
O582   O     0.65610   0.88512   0.28598   0.00000  Uiso   1.00
O583   O     0.53692   0.75381   0.24702   0.00000  Uiso   1.00
O584   O     0.55946   0.90387   0.24519   0.00000  Uiso   1.00
O585   O     0.44054   0.76279   0.25481   0.00000  Uiso   1.00
O586   O     0.45181   0.83784   0.31997   0.00000  Uiso   1.00
O587   O     0.54819   0.82883   0.18003   0.00000  Uiso   1.00
O588   O     0.54819   0.82885   0.31217   0.00000  Uiso   1.00
O589   O     0.45181   0.83781   0.18782   0.00000  Uiso   1.00
O590   O     0.45506   0.74524   0.11545   0.00000  Uiso   1.00
Zn591  Zn    0.43565   0.83933   0.25521   0.00000  Uiso   1.00
Zn592  Zn    0.56435   0.82734   0.24479   0.00000  Uiso   1.00
C593   C     0.84841   0.93134   0.25004   0.00000  Uiso   1.00
C594   C     0.84286   0.88290   0.40834   0.00000  Uiso   1.00
C595   C     0.83365   0.83187   0.11578   0.00000  Uiso   1.00
C596   C     0.83285   0.83594   0.38400   0.00000  Uiso   1.00
C597   C     0.85760   0.87513   0.09339   0.00000  Uiso   1.00
C598   C     0.81690   0.78978   0.40527   0.00000  Uiso   1.00
C599   C     0.85334   0.87762   0.04753   0.00000  Uiso   1.00
C600   C     0.81526   0.78880   0.45180   0.00000  Uiso   1.00
C601   C     0.83295   0.83307   0.02321   0.00000  Uiso   1.00
C602   C     0.83170   0.83441   0.47656   0.00000  Uiso   1.00
C603   C     0.81391   0.78724   0.04552   0.00000  Uiso   1.00
C604   C     0.81831   0.73547   0.25254   0.00000  Uiso   1.00
C605   C     0.84546   0.88169   0.45488   0.00000  Uiso   1.00
C606   C     0.86789   0.92402   0.02581   0.00000  Uiso   1.00
C607   C     0.79749   0.74321   0.47396   0.00000  Uiso   1.00
C608   C     0.83086   0.71254   0.12446   0.00000  Uiso   1.00
C609   C     0.80248   0.99661   0.14422   0.00000  Uiso   1.00
C610   C     0.89556   0.94768   0.37141   0.00000  Uiso   1.00
C611   C     0.89736   0.67238   0.36538   0.00000  Uiso   1.00
C612   C     0.97944   0.76267   0.17847   0.00000  Uiso   1.00
C613   C     0.99305   0.70759   0.16339   0.00000  Uiso   1.00
C614   C     0.68537   0.89975   0.32422   0.00000  Uiso   1.00
C615   C     0.86181   0.92657   0.48010   0.00000  Uiso   1.00
C616   C     0.67234   0.86031   0.36108   0.00000  Uiso   1.00
C617   C     0.79574   0.74271   0.02061   0.00000  Uiso   1.00
C618   C     0.85630   0.98577   0.25183   0.00000  Uiso   1.00
C619   C     0.81053   0.68131   0.25592   0.00000  Uiso   1.00
C620   C     0.83366   0.83519   0.33623   0.00000  Uiso   1.00
C621   C     0.83314   0.83279   0.16370   0.00000  Uiso   1.00
C622   C     0.81305   0.78724   0.09240   0.00000  Uiso   1.00
F623   F     0.88522   0.91439   0.11630   0.00000  Uiso   1.00
F624   F     0.80040   0.74670   0.38054   0.00000  Uiso   1.00
F625   F     0.91120   0.67276   0.24872   0.00000  Uiso   1.00
F626   F     0.75564   0.99447   0.26170   0.00000  Uiso   1.00
H627   H     0.88247   0.95874   0.04430   0.00000  Uiso   1.00
H628   H     0.90557   0.92846   0.33797   0.00000  Uiso   1.00
H629   H     0.92855   0.94085   0.39467   0.00000  Uiso   1.00
H630   H     0.88919   0.69296   0.39856   0.00000  Uiso   1.00
H631   H     0.93988   0.68625   0.35016   0.00000  Uiso   1.00
H632   H     0.86476   0.68126   0.34281   0.00000  Uiso   1.00
H633   H     0.98907   0.78896   0.14995   0.00000  Uiso   1.00
H634   H     0.93406   0.75999   0.18750   0.00000  Uiso   1.00
H635   H     0.66985   0.68550   0.19241   0.00000  Uiso   1.00
H636   H     0.95597   0.68705   0.14817   0.00000  Uiso   1.00
H637   H     0.69541   0.70803   0.13715   0.00000  Uiso   1.00
H638   H     0.78444   0.70802   0.45537   0.00000  Uiso   1.00
H639   H     0.67130   0.93772   0.33755   0.00000  Uiso   1.00
H640   H     0.73116   0.90785   0.31622   0.00000  Uiso   1.00
H641   H     0.95980   0.85793   0.37238   0.00000  Uiso   1.00
H642   H     0.68348   0.82104   0.34848   0.00000  Uiso   1.00
H643   H     0.69698   0.87214   0.39041   0.00000  Uiso   1.00
H644   H     0.87175   0.96340   0.46453   0.00000  Uiso   1.00
H645   H     0.78100   0.70716   0.03696   0.00000  Uiso   1.00
H646   H     0.85815   0.73148   0.14966   0.00000  Uiso   1.00
H647   H     0.85789   0.70194   0.09342   0.00000  Uiso   1.00
H648   H     0.78267   0.97180   0.11762   0.00000  Uiso   1.00
H649   H     0.83425   0.97533   0.15963   0.00000  Uiso   1.00
H650   H     0.76949   0.67280   0.17128   0.00000  Uiso   1.00
N651   N     0.98344   0.81932   0.23783   0.00000  Uiso   1.00
N652   N     0.68322   0.84735   0.26217   0.00000  Uiso   1.00
O653   O     0.79642   0.91286   0.25298   0.00000  Uiso   1.00
O654   O     0.84057   0.92987   0.38823   0.00000  Uiso   1.00
O655   O     0.67705   0.78047   0.21510   0.00000  Uiso   1.00
O656   O     0.98943   0.88512   0.28598   0.00000  Uiso   1.00
O657   O     0.87025   0.75381   0.24702   0.00000  Uiso   1.00
O658   O     0.89280   0.90387   0.24519   0.00000  Uiso   1.00
O659   O     0.77387   0.76279   0.25481   0.00000  Uiso   1.00
O660   O     0.78514   0.83784   0.31997   0.00000  Uiso   1.00
O661   O     0.88153   0.82883   0.18003   0.00000  Uiso   1.00
O662   O     0.88152   0.82885   0.31217   0.00000  Uiso   1.00
O663   O     0.78515   0.83781   0.18782   0.00000  Uiso   1.00
O664   O     0.78839   0.74524   0.11545   0.00000  Uiso   1.00
Zn665  Zn    0.76898   0.83933   0.25521   0.00000  Uiso   1.00
Zn666  Zn    0.89769   0.82734   0.24479   0.00000  Uiso   1.00
C667   C     0.18174   0.26467   0.75004   0.00000  Uiso   1.00
C668   C     0.17619   0.21623   0.90834   0.00000  Uiso   1.00
C669   C     0.16698   0.16520   0.61578   0.00000  Uiso   1.00
C670   C     0.16618   0.16927   0.88400   0.00000  Uiso   1.00
C671   C     0.19094   0.20846   0.59339   0.00000  Uiso   1.00
C672   C     0.15023   0.12311   0.90527   0.00000  Uiso   1.00
C673   C     0.18667   0.21095   0.54753   0.00000  Uiso   1.00
C674   C     0.14860   0.12213   0.95180   0.00000  Uiso   1.00
C675   C     0.16628   0.16641   0.52321   0.00000  Uiso   1.00
C676   C     0.16503   0.16774   0.97656   0.00000  Uiso   1.00
C677   C     0.14724   0.12058   0.54552   0.00000  Uiso   1.00
C678   C     0.15165   0.06880   0.75254   0.00000  Uiso   1.00
C679   C     0.17880   0.21502   0.95488   0.00000  Uiso   1.00
C680   C     0.20123   0.25735   0.52581   0.00000  Uiso   1.00
C681   C     0.13082   0.07654   0.97396   0.00000  Uiso   1.00
C682   C     0.16420   0.04587   0.62446   0.00000  Uiso   1.00
C683   C     0.13582   0.32994   0.64422   0.00000  Uiso   1.00
C684   C     0.22889   0.28101   0.87141   0.00000  Uiso   1.00
C685   C     0.23069   0.00571   0.86538   0.00000  Uiso   1.00
C686   C     0.31277   0.09601   0.67847   0.00000  Uiso   1.00
C687   C     0.32638   0.04092   0.66339   0.00000  Uiso   1.00
C688   C     0.01871   0.23309   0.82422   0.00000  Uiso   1.00
C689   C     0.19515   0.25990   0.98010   0.00000  Uiso   1.00
C690   C     0.00568   0.19364   0.86108   0.00000  Uiso   1.00
C691   C     0.12907   0.07604   0.52061   0.00000  Uiso   1.00
C692   C     0.18964   0.31911   0.75183   0.00000  Uiso   1.00
C693   C     0.14386   0.01464   0.75592   0.00000  Uiso   1.00
C694   C     0.16699   0.16853   0.83623   0.00000  Uiso   1.00
C695   C     0.16647   0.16612   0.66370   0.00000  Uiso   1.00
C696   C     0.14638   0.12058   0.59240   0.00000  Uiso   1.00
F697   F     0.21856   0.24772   0.61630   0.00000  Uiso   1.00
F698   F     0.13373   0.08003   0.88054   0.00000  Uiso   1.00
F699   F     0.24453   0.00609   0.74872   0.00000  Uiso   1.00
F700   F     0.08898   0.32780   0.76170   0.00000  Uiso   1.00
H701   H     0.21580   0.29207   0.54430   0.00000  Uiso   1.00
H702   H     0.23890   0.26180   0.83797   0.00000  Uiso   1.00
H703   H     0.26189   0.27418   0.89467   0.00000  Uiso   1.00
H704   H     0.22252   0.02629   0.89856   0.00000  Uiso   1.00
H705   H     0.27322   0.01959   0.85016   0.00000  Uiso   1.00
H706   H     0.19809   0.01459   0.84281   0.00000  Uiso   1.00
H707   H     0.32241   0.12230   0.64995   0.00000  Uiso   1.00
H708   H     0.26739   0.09332   0.68750   0.00000  Uiso   1.00
H709   H     0.00318   0.01883   0.69241   0.00000  Uiso   1.00
H710   H     0.28931   0.02039   0.64817   0.00000  Uiso   1.00
H711   H     0.02875   0.04136   0.63715   0.00000  Uiso   1.00
H712   H     0.11777   0.04136   0.95537   0.00000  Uiso   1.00
H713   H     0.00463   0.27106   0.83755   0.00000  Uiso   1.00
H714   H     0.06449   0.24118   0.81622   0.00000  Uiso   1.00
H715   H     0.29313   0.19127   0.87238   0.00000  Uiso   1.00
H716   H     0.01681   0.15437   0.84848   0.00000  Uiso   1.00
H717   H     0.03031   0.20547   0.89041   0.00000  Uiso   1.00
H718   H     0.20508   0.29673   0.96453   0.00000  Uiso   1.00
H719   H     0.11433   0.04049   0.53696   0.00000  Uiso   1.00
H720   H     0.19149   0.06481   0.64966   0.00000  Uiso   1.00
H721   H     0.19123   0.03527   0.59342   0.00000  Uiso   1.00
H722   H     0.11600   0.30513   0.61762   0.00000  Uiso   1.00
H723   H     0.16758   0.30866   0.65963   0.00000  Uiso   1.00
H724   H     0.10282   0.00614   0.67128   0.00000  Uiso   1.00
N725   N     0.31678   0.15265   0.73783   0.00000  Uiso   1.00
N726   N     0.01656   0.18068   0.76217   0.00000  Uiso   1.00
O727   O     0.12975   0.24619   0.75298   0.00000  Uiso   1.00
O728   O     0.17390   0.26320   0.88823   0.00000  Uiso   1.00
O729   O     0.01038   0.11380   0.71510   0.00000  Uiso   1.00
O730   O     0.32276   0.21845   0.78598   0.00000  Uiso   1.00
O731   O     0.20358   0.08714   0.74702   0.00000  Uiso   1.00
O732   O     0.22613   0.23721   0.74519   0.00000  Uiso   1.00
O733   O     0.10720   0.09613   0.75481   0.00000  Uiso   1.00
O734   O     0.11847   0.17117   0.81997   0.00000  Uiso   1.00
O735   O     0.21486   0.16216   0.68003   0.00000  Uiso   1.00
O736   O     0.21485   0.16219   0.81217   0.00000  Uiso   1.00
O737   O     0.11848   0.17115   0.68782   0.00000  Uiso   1.00
O738   O     0.12173   0.07857   0.61545   0.00000  Uiso   1.00
Zn739  Zn    0.10231   0.17266   0.75521   0.00000  Uiso   1.00
Zn740  Zn    0.23102   0.16067   0.74479   0.00000  Uiso   1.00
C741   C     0.51508   0.26467   0.75004   0.00000  Uiso   1.00
C742   C     0.50952   0.21623   0.90834   0.00000  Uiso   1.00
C743   C     0.50032   0.16520   0.61578   0.00000  Uiso   1.00
C744   C     0.49951   0.16927   0.88400   0.00000  Uiso   1.00
C745   C     0.52427   0.20846   0.59339   0.00000  Uiso   1.00
C746   C     0.48356   0.12311   0.90527   0.00000  Uiso   1.00
C747   C     0.52000   0.21095   0.54753   0.00000  Uiso   1.00
C748   C     0.48193   0.12213   0.95180   0.00000  Uiso   1.00
C749   C     0.49962   0.16641   0.52321   0.00000  Uiso   1.00
C750   C     0.49837   0.16774   0.97656   0.00000  Uiso   1.00
C751   C     0.48057   0.12058   0.54552   0.00000  Uiso   1.00
C752   C     0.48498   0.06880   0.75254   0.00000  Uiso   1.00
C753   C     0.51213   0.21502   0.95488   0.00000  Uiso   1.00
C754   C     0.53456   0.25735   0.52581   0.00000  Uiso   1.00
C755   C     0.46416   0.07654   0.97396   0.00000  Uiso   1.00
C756   C     0.49753   0.04587   0.62446   0.00000  Uiso   1.00
C757   C     0.46915   0.32994   0.64422   0.00000  Uiso   1.00
C758   C     0.56222   0.28101   0.87141   0.00000  Uiso   1.00
C759   C     0.56403   0.00571   0.86538   0.00000  Uiso   1.00
C760   C     0.64610   0.09601   0.67847   0.00000  Uiso   1.00
C761   C     0.65972   0.04092   0.66339   0.00000  Uiso   1.00
C762   C     0.35204   0.23309   0.82422   0.00000  Uiso   1.00
C763   C     0.52848   0.25990   0.98010   0.00000  Uiso   1.00
C764   C     0.33901   0.19364   0.86108   0.00000  Uiso   1.00
C765   C     0.46240   0.07604   0.52061   0.00000  Uiso   1.00
C766   C     0.52297   0.31911   0.75183   0.00000  Uiso   1.00
C767   C     0.47719   0.01464   0.75592   0.00000  Uiso   1.00
C768   C     0.50032   0.16853   0.83623   0.00000  Uiso   1.00
C769   C     0.49980   0.16612   0.66370   0.00000  Uiso   1.00
C770   C     0.47972   0.12058   0.59240   0.00000  Uiso   1.00
F771   F     0.55189   0.24772   0.61630   0.00000  Uiso   1.00
F772   F     0.46707   0.08003   0.88054   0.00000  Uiso   1.00
F773   F     0.57787   0.00609   0.74872   0.00000  Uiso   1.00
F774   F     0.42231   0.32780   0.76170   0.00000  Uiso   1.00
H775   H     0.54913   0.29207   0.54430   0.00000  Uiso   1.00
H776   H     0.57224   0.26180   0.83797   0.00000  Uiso   1.00
H777   H     0.59522   0.27418   0.89467   0.00000  Uiso   1.00
H778   H     0.55585   0.02629   0.89856   0.00000  Uiso   1.00
H779   H     0.60655   0.01959   0.85016   0.00000  Uiso   1.00
H780   H     0.53142   0.01459   0.84281   0.00000  Uiso   1.00
H781   H     0.65574   0.12230   0.64995   0.00000  Uiso   1.00
H782   H     0.60073   0.09332   0.68750   0.00000  Uiso   1.00
H783   H     0.33651   0.01883   0.69241   0.00000  Uiso   1.00
H784   H     0.62264   0.02039   0.64817   0.00000  Uiso   1.00
H785   H     0.36208   0.04136   0.63715   0.00000  Uiso   1.00
H786   H     0.45111   0.04136   0.95537   0.00000  Uiso   1.00
H787   H     0.33797   0.27106   0.83755   0.00000  Uiso   1.00
H788   H     0.39782   0.24118   0.81622   0.00000  Uiso   1.00
H789   H     0.62647   0.19127   0.87238   0.00000  Uiso   1.00
H790   H     0.35014   0.15437   0.84848   0.00000  Uiso   1.00
H791   H     0.36365   0.20547   0.89041   0.00000  Uiso   1.00
H792   H     0.53841   0.29673   0.96453   0.00000  Uiso   1.00
H793   H     0.44767   0.04049   0.53696   0.00000  Uiso   1.00
H794   H     0.52482   0.06481   0.64966   0.00000  Uiso   1.00
H795   H     0.52456   0.03527   0.59342   0.00000  Uiso   1.00
H796   H     0.44933   0.30513   0.61762   0.00000  Uiso   1.00
H797   H     0.50092   0.30866   0.65963   0.00000  Uiso   1.00
H798   H     0.43615   0.00614   0.67128   0.00000  Uiso   1.00
N799   N     0.65011   0.15265   0.73783   0.00000  Uiso   1.00
N800   N     0.34989   0.18068   0.76217   0.00000  Uiso   1.00
O801   O     0.46308   0.24619   0.75298   0.00000  Uiso   1.00
O802   O     0.50724   0.26320   0.88823   0.00000  Uiso   1.00
O803   O     0.34371   0.11380   0.71510   0.00000  Uiso   1.00
O804   O     0.65610   0.21845   0.78598   0.00000  Uiso   1.00
O805   O     0.53692   0.08714   0.74702   0.00000  Uiso   1.00
O806   O     0.55946   0.23721   0.74519   0.00000  Uiso   1.00
O807   O     0.44054   0.09613   0.75481   0.00000  Uiso   1.00
O808   O     0.45181   0.17117   0.81997   0.00000  Uiso   1.00
O809   O     0.54819   0.16216   0.68003   0.00000  Uiso   1.00
O810   O     0.54819   0.16219   0.81217   0.00000  Uiso   1.00
O811   O     0.45181   0.17115   0.68782   0.00000  Uiso   1.00
O812   O     0.45506   0.07857   0.61545   0.00000  Uiso   1.00
Zn813  Zn    0.43565   0.17266   0.75521   0.00000  Uiso   1.00
Zn814  Zn    0.56435   0.16067   0.74479   0.00000  Uiso   1.00
C815   C     0.84841   0.26467   0.75004   0.00000  Uiso   1.00
C816   C     0.84286   0.21623   0.90834   0.00000  Uiso   1.00
C817   C     0.83365   0.16520   0.61578   0.00000  Uiso   1.00
C818   C     0.83285   0.16927   0.88400   0.00000  Uiso   1.00
C819   C     0.85760   0.20846   0.59339   0.00000  Uiso   1.00
C820   C     0.81690   0.12311   0.90527   0.00000  Uiso   1.00
C821   C     0.85334   0.21095   0.54753   0.00000  Uiso   1.00
C822   C     0.81526   0.12213   0.95180   0.00000  Uiso   1.00
C823   C     0.83295   0.16641   0.52321   0.00000  Uiso   1.00
C824   C     0.83170   0.16774   0.97656   0.00000  Uiso   1.00
C825   C     0.81391   0.12058   0.54552   0.00000  Uiso   1.00
C826   C     0.81831   0.06880   0.75254   0.00000  Uiso   1.00
C827   C     0.84546   0.21502   0.95488   0.00000  Uiso   1.00
C828   C     0.86789   0.25735   0.52581   0.00000  Uiso   1.00
C829   C     0.79749   0.07654   0.97396   0.00000  Uiso   1.00
C830   C     0.83086   0.04587   0.62446   0.00000  Uiso   1.00
C831   C     0.80248   0.32994   0.64422   0.00000  Uiso   1.00
C832   C     0.89556   0.28101   0.87141   0.00000  Uiso   1.00
C833   C     0.89736   0.00571   0.86538   0.00000  Uiso   1.00
C834   C     0.97944   0.09601   0.67847   0.00000  Uiso   1.00
C835   C     0.99305   0.04092   0.66339   0.00000  Uiso   1.00
C836   C     0.68537   0.23309   0.82422   0.00000  Uiso   1.00
C837   C     0.86181   0.25990   0.98010   0.00000  Uiso   1.00
C838   C     0.67234   0.19364   0.86108   0.00000  Uiso   1.00
C839   C     0.79574   0.07604   0.52061   0.00000  Uiso   1.00
C840   C     0.85630   0.31911   0.75183   0.00000  Uiso   1.00
C841   C     0.81053   0.01464   0.75592   0.00000  Uiso   1.00
C842   C     0.83366   0.16853   0.83623   0.00000  Uiso   1.00
C843   C     0.83314   0.16612   0.66370   0.00000  Uiso   1.00
C844   C     0.81305   0.12058   0.59240   0.00000  Uiso   1.00
F845   F     0.88522   0.24772   0.61630   0.00000  Uiso   1.00
F846   F     0.80040   0.08003   0.88054   0.00000  Uiso   1.00
F847   F     0.91120   0.00609   0.74872   0.00000  Uiso   1.00
F848   F     0.75564   0.32780   0.76170   0.00000  Uiso   1.00
H849   H     0.88247   0.29207   0.54430   0.00000  Uiso   1.00
H850   H     0.90557   0.26180   0.83797   0.00000  Uiso   1.00
H851   H     0.92855   0.27418   0.89467   0.00000  Uiso   1.00
H852   H     0.88919   0.02629   0.89856   0.00000  Uiso   1.00
H853   H     0.93988   0.01959   0.85016   0.00000  Uiso   1.00
H854   H     0.86476   0.01459   0.84281   0.00000  Uiso   1.00
H855   H     0.98907   0.12230   0.64995   0.00000  Uiso   1.00
H856   H     0.93406   0.09332   0.68750   0.00000  Uiso   1.00
H857   H     0.66985   0.01883   0.69241   0.00000  Uiso   1.00
H858   H     0.95597   0.02039   0.64817   0.00000  Uiso   1.00
H859   H     0.69541   0.04136   0.63715   0.00000  Uiso   1.00
H860   H     0.78444   0.04136   0.95537   0.00000  Uiso   1.00
H861   H     0.67130   0.27106   0.83755   0.00000  Uiso   1.00
H862   H     0.73116   0.24118   0.81622   0.00000  Uiso   1.00
H863   H     0.95980   0.19127   0.87238   0.00000  Uiso   1.00
H864   H     0.68348   0.15437   0.84848   0.00000  Uiso   1.00
H865   H     0.69698   0.20547   0.89041   0.00000  Uiso   1.00
H866   H     0.87175   0.29673   0.96453   0.00000  Uiso   1.00
H867   H     0.78100   0.04049   0.53696   0.00000  Uiso   1.00
H868   H     0.85815   0.06481   0.64966   0.00000  Uiso   1.00
H869   H     0.85789   0.03527   0.59342   0.00000  Uiso   1.00
H870   H     0.78267   0.30513   0.61762   0.00000  Uiso   1.00
H871   H     0.83425   0.30866   0.65963   0.00000  Uiso   1.00
H872   H     0.76949   0.00614   0.67128   0.00000  Uiso   1.00
N873   N     0.98344   0.15265   0.73783   0.00000  Uiso   1.00
N874   N     0.68322   0.18068   0.76217   0.00000  Uiso   1.00
O875   O     0.79642   0.24619   0.75298   0.00000  Uiso   1.00
O876   O     0.84057   0.26320   0.88823   0.00000  Uiso   1.00
O877   O     0.67705   0.11380   0.71510   0.00000  Uiso   1.00
O878   O     0.98943   0.21845   0.78598   0.00000  Uiso   1.00
O879   O     0.87025   0.08714   0.74702   0.00000  Uiso   1.00
O880   O     0.89280   0.23721   0.74519   0.00000  Uiso   1.00
O881   O     0.77387   0.09613   0.75481   0.00000  Uiso   1.00
O882   O     0.78514   0.17117   0.81997   0.00000  Uiso   1.00
O883   O     0.88153   0.16216   0.68003   0.00000  Uiso   1.00
O884   O     0.88152   0.16219   0.81217   0.00000  Uiso   1.00
O885   O     0.78515   0.17115   0.68782   0.00000  Uiso   1.00
O886   O     0.78839   0.07857   0.61545   0.00000  Uiso   1.00
Zn887  Zn    0.76898   0.17266   0.75521   0.00000  Uiso   1.00
Zn888  Zn    0.89769   0.16067   0.74479   0.00000  Uiso   1.00
C889   C     0.18174   0.59800   0.75004   0.00000  Uiso   1.00
C890   C     0.17619   0.54956   0.90834   0.00000  Uiso   1.00
C891   C     0.16698   0.49854   0.61578   0.00000  Uiso   1.00
C892   C     0.16618   0.50261   0.88400   0.00000  Uiso   1.00
C893   C     0.19094   0.54179   0.59339   0.00000  Uiso   1.00
C894   C     0.15023   0.45645   0.90527   0.00000  Uiso   1.00
C895   C     0.18667   0.54428   0.54753   0.00000  Uiso   1.00
C896   C     0.14860   0.45546   0.95180   0.00000  Uiso   1.00
C897   C     0.16628   0.49974   0.52321   0.00000  Uiso   1.00
C898   C     0.16503   0.50108   0.97656   0.00000  Uiso   1.00
C899   C     0.14724   0.45391   0.54552   0.00000  Uiso   1.00
C900   C     0.15165   0.40213   0.75254   0.00000  Uiso   1.00
C901   C     0.17880   0.54835   0.95488   0.00000  Uiso   1.00
C902   C     0.20123   0.59069   0.52581   0.00000  Uiso   1.00
C903   C     0.13082   0.40988   0.97396   0.00000  Uiso   1.00
C904   C     0.16420   0.37921   0.62446   0.00000  Uiso   1.00
C905   C     0.13582   0.66328   0.64422   0.00000  Uiso   1.00
C906   C     0.22889   0.61435   0.87141   0.00000  Uiso   1.00
C907   C     0.23069   0.33905   0.86538   0.00000  Uiso   1.00
C908   C     0.31277   0.42934   0.67847   0.00000  Uiso   1.00
C909   C     0.32638   0.37425   0.66339   0.00000  Uiso   1.00
C910   C     0.01871   0.56642   0.82422   0.00000  Uiso   1.00
C911   C     0.19515   0.59324   0.98010   0.00000  Uiso   1.00
C912   C     0.00568   0.52698   0.86108   0.00000  Uiso   1.00
C913   C     0.12907   0.40937   0.52061   0.00000  Uiso   1.00
C914   C     0.18964   0.65244   0.75183   0.00000  Uiso   1.00
C915   C     0.14386   0.34798   0.75592   0.00000  Uiso   1.00
C916   C     0.16699   0.50186   0.83623   0.00000  Uiso   1.00
C917   C     0.16647   0.49946   0.66370   0.00000  Uiso   1.00
C918   C     0.14638   0.45391   0.59240   0.00000  Uiso   1.00
F919   F     0.21856   0.58105   0.61630   0.00000  Uiso   1.00
F920   F     0.13373   0.41337   0.88054   0.00000  Uiso   1.00
F921   F     0.24453   0.33942   0.74872   0.00000  Uiso   1.00
F922   F     0.08898   0.66114   0.76170   0.00000  Uiso   1.00
H923   H     0.21580   0.62541   0.54430   0.00000  Uiso   1.00
H924   H     0.23890   0.59513   0.83797   0.00000  Uiso   1.00
H925   H     0.26189   0.60752   0.89467   0.00000  Uiso   1.00
H926   H     0.22252   0.35963   0.89856   0.00000  Uiso   1.00
H927   H     0.27322   0.35292   0.85016   0.00000  Uiso   1.00
H928   H     0.19809   0.34793   0.84281   0.00000  Uiso   1.00
H929   H     0.32241   0.45563   0.64995   0.00000  Uiso   1.00
H930   H     0.26739   0.42665   0.68750   0.00000  Uiso   1.00
H931   H     0.00318   0.35216   0.69241   0.00000  Uiso   1.00
H932   H     0.28931   0.35372   0.64817   0.00000  Uiso   1.00
H933   H     0.02875   0.37470   0.63715   0.00000  Uiso   1.00
H934   H     0.11777   0.37469   0.95537   0.00000  Uiso   1.00
H935   H     0.00463   0.60439   0.83755   0.00000  Uiso   1.00
H936   H     0.06449   0.57452   0.81622   0.00000  Uiso   1.00
H937   H     0.29313   0.52460   0.87238   0.00000  Uiso   1.00
H938   H     0.01681   0.48771   0.84848   0.00000  Uiso   1.00
H939   H     0.03031   0.53880   0.89041   0.00000  Uiso   1.00
H940   H     0.20508   0.63006   0.96453   0.00000  Uiso   1.00
H941   H     0.11433   0.37382   0.53696   0.00000  Uiso   1.00
H942   H     0.19149   0.39815   0.64966   0.00000  Uiso   1.00
H943   H     0.19123   0.36861   0.59342   0.00000  Uiso   1.00
H944   H     0.11600   0.63847   0.61762   0.00000  Uiso   1.00
H945   H     0.16758   0.64200   0.65963   0.00000  Uiso   1.00
H946   H     0.10282   0.33947   0.67128   0.00000  Uiso   1.00
N947   N     0.31678   0.48598   0.73783   0.00000  Uiso   1.00
N948   N     0.01656   0.51402   0.76217   0.00000  Uiso   1.00
O949   O     0.12975   0.57952   0.75298   0.00000  Uiso   1.00
O950   O     0.17390   0.59654   0.88823   0.00000  Uiso   1.00
O951   O     0.01038   0.44713   0.71510   0.00000  Uiso   1.00
O952   O     0.32276   0.55179   0.78598   0.00000  Uiso   1.00
O953   O     0.20358   0.42048   0.74702   0.00000  Uiso   1.00
O954   O     0.22613   0.57054   0.74519   0.00000  Uiso   1.00
O955   O     0.10720   0.42946   0.75481   0.00000  Uiso   1.00
O956   O     0.11847   0.50450   0.81997   0.00000  Uiso   1.00
O957   O     0.21486   0.49550   0.68003   0.00000  Uiso   1.00
O958   O     0.21485   0.49552   0.81217   0.00000  Uiso   1.00
O959   O     0.11848   0.50448   0.68782   0.00000  Uiso   1.00
O960   O     0.12173   0.41191   0.61545   0.00000  Uiso   1.00
Zn961  Zn    0.10231   0.50600   0.75521   0.00000  Uiso   1.00
Zn962  Zn    0.23102   0.49400   0.74479   0.00000  Uiso   1.00
C963   C     0.51508   0.59800   0.75004   0.00000  Uiso   1.00
C964   C     0.50952   0.54956   0.90834   0.00000  Uiso   1.00
C965   C     0.50032   0.49854   0.61578   0.00000  Uiso   1.00
C966   C     0.49951   0.50261   0.88400   0.00000  Uiso   1.00
C967   C     0.52427   0.54179   0.59339   0.00000  Uiso   1.00
C968   C     0.48356   0.45645   0.90527   0.00000  Uiso   1.00
C969   C     0.52000   0.54428   0.54753   0.00000  Uiso   1.00
C970   C     0.48193   0.45546   0.95180   0.00000  Uiso   1.00
C971   C     0.49962   0.49974   0.52321   0.00000  Uiso   1.00
C972   C     0.49837   0.50108   0.97656   0.00000  Uiso   1.00
C973   C     0.48057   0.45391   0.54552   0.00000  Uiso   1.00
C974   C     0.48498   0.40213   0.75254   0.00000  Uiso   1.00
C975   C     0.51213   0.54835   0.95488   0.00000  Uiso   1.00
C976   C     0.53456   0.59069   0.52581   0.00000  Uiso   1.00
C977   C     0.46416   0.40988   0.97396   0.00000  Uiso   1.00
C978   C     0.49753   0.37921   0.62446   0.00000  Uiso   1.00
C979   C     0.46915   0.66328   0.64422   0.00000  Uiso   1.00
C980   C     0.56222   0.61435   0.87141   0.00000  Uiso   1.00
C981   C     0.56403   0.33905   0.86538   0.00000  Uiso   1.00
C982   C     0.64610   0.42934   0.67847   0.00000  Uiso   1.00
C983   C     0.65972   0.37425   0.66339   0.00000  Uiso   1.00
C984   C     0.35204   0.56642   0.82422   0.00000  Uiso   1.00
C985   C     0.52848   0.59324   0.98010   0.00000  Uiso   1.00
C986   C     0.33901   0.52698   0.86108   0.00000  Uiso   1.00
C987   C     0.46240   0.40937   0.52061   0.00000  Uiso   1.00
C988   C     0.52297   0.65244   0.75183   0.00000  Uiso   1.00
C989   C     0.47719   0.34798   0.75592   0.00000  Uiso   1.00
C990   C     0.50032   0.50186   0.83623   0.00000  Uiso   1.00
C991   C     0.49980   0.49946   0.66370   0.00000  Uiso   1.00
C992   C     0.47972   0.45391   0.59240   0.00000  Uiso   1.00
F993   F     0.55189   0.58105   0.61630   0.00000  Uiso   1.00
F994   F     0.46707   0.41337   0.88054   0.00000  Uiso   1.00
F995   F     0.57787   0.33942   0.74872   0.00000  Uiso   1.00
F996   F     0.42231   0.66114   0.76170   0.00000  Uiso   1.00
H997   H     0.54913   0.62541   0.54430   0.00000  Uiso   1.00
H998   H     0.57224   0.59513   0.83797   0.00000  Uiso   1.00
H999   H     0.59522   0.60752   0.89467   0.00000  Uiso   1.00
H1000  H     0.55585   0.35963   0.89856   0.00000  Uiso   1.00
H1001  H     0.60655   0.35292   0.85016   0.00000  Uiso   1.00
H1002  H     0.53142   0.34793   0.84281   0.00000  Uiso   1.00
H1003  H     0.65574   0.45563   0.64995   0.00000  Uiso   1.00
H1004  H     0.60073   0.42665   0.68750   0.00000  Uiso   1.00
H1005  H     0.33651   0.35216   0.69241   0.00000  Uiso   1.00
H1006  H     0.62264   0.35372   0.64817   0.00000  Uiso   1.00
H1007  H     0.36208   0.37470   0.63715   0.00000  Uiso   1.00
H1008  H     0.45111   0.37469   0.95537   0.00000  Uiso   1.00
H1009  H     0.33797   0.60439   0.83755   0.00000  Uiso   1.00
H1010  H     0.39782   0.57452   0.81622   0.00000  Uiso   1.00
H1011  H     0.62647   0.52460   0.87238   0.00000  Uiso   1.00
H1012  H     0.35014   0.48771   0.84848   0.00000  Uiso   1.00
H1013  H     0.36365   0.53880   0.89041   0.00000  Uiso   1.00
H1014  H     0.53841   0.63006   0.96453   0.00000  Uiso   1.00
H1015  H     0.44767   0.37382   0.53696   0.00000  Uiso   1.00
H1016  H     0.52482   0.39815   0.64966   0.00000  Uiso   1.00
H1017  H     0.52456   0.36861   0.59342   0.00000  Uiso   1.00
H1018  H     0.44933   0.63847   0.61762   0.00000  Uiso   1.00
H1019  H     0.50092   0.64200   0.65963   0.00000  Uiso   1.00
H1020  H     0.43615   0.33947   0.67128   0.00000  Uiso   1.00
N1021  N     0.65011   0.48598   0.73783   0.00000  Uiso   1.00
N1022  N     0.34989   0.51402   0.76217   0.00000  Uiso   1.00
O1023  O     0.46308   0.57952   0.75298   0.00000  Uiso   1.00
O1024  O     0.50724   0.59654   0.88823   0.00000  Uiso   1.00
O1025  O     0.34371   0.44713   0.71510   0.00000  Uiso   1.00
O1026  O     0.65610   0.55179   0.78598   0.00000  Uiso   1.00
O1027  O     0.53692   0.42048   0.74702   0.00000  Uiso   1.00
O1028  O     0.55946   0.57054   0.74519   0.00000  Uiso   1.00
O1029  O     0.44054   0.42946   0.75481   0.00000  Uiso   1.00
O1030  O     0.45181   0.50450   0.81997   0.00000  Uiso   1.00
O1031  O     0.54819   0.49550   0.68003   0.00000  Uiso   1.00
O1032  O     0.54819   0.49552   0.81217   0.00000  Uiso   1.00
O1033  O     0.45181   0.50448   0.68782   0.00000  Uiso   1.00
O1034  O     0.45506   0.41191   0.61545   0.00000  Uiso   1.00
Zn1035 Zn    0.43565   0.50600   0.75521   0.00000  Uiso   1.00
Zn1036 Zn    0.56435   0.49400   0.74479   0.00000  Uiso   1.00
C1037  C     0.84841   0.59800   0.75004   0.00000  Uiso   1.00
C1038  C     0.84286   0.54956   0.90834   0.00000  Uiso   1.00
C1039  C     0.83365   0.49854   0.61578   0.00000  Uiso   1.00
C1040  C     0.83285   0.50261   0.88400   0.00000  Uiso   1.00
C1041  C     0.85760   0.54179   0.59339   0.00000  Uiso   1.00
C1042  C     0.81690   0.45645   0.90527   0.00000  Uiso   1.00
C1043  C     0.85334   0.54428   0.54753   0.00000  Uiso   1.00
C1044  C     0.81526   0.45546   0.95180   0.00000  Uiso   1.00
C1045  C     0.83295   0.49974   0.52321   0.00000  Uiso   1.00
C1046  C     0.83170   0.50108   0.97656   0.00000  Uiso   1.00
C1047  C     0.81391   0.45391   0.54552   0.00000  Uiso   1.00
C1048  C     0.81831   0.40213   0.75254   0.00000  Uiso   1.00
C1049  C     0.84546   0.54835   0.95488   0.00000  Uiso   1.00
C1050  C     0.86789   0.59069   0.52581   0.00000  Uiso   1.00
C1051  C     0.79749   0.40988   0.97396   0.00000  Uiso   1.00
C1052  C     0.83086   0.37921   0.62446   0.00000  Uiso   1.00
C1053  C     0.80248   0.66328   0.64422   0.00000  Uiso   1.00
C1054  C     0.89556   0.61435   0.87141   0.00000  Uiso   1.00
C1055  C     0.89736   0.33905   0.86538   0.00000  Uiso   1.00
C1056  C     0.97944   0.42934   0.67847   0.00000  Uiso   1.00
C1057  C     0.99305   0.37425   0.66339   0.00000  Uiso   1.00
C1058  C     0.68537   0.56642   0.82422   0.00000  Uiso   1.00
C1059  C     0.86181   0.59324   0.98010   0.00000  Uiso   1.00
C1060  C     0.67234   0.52698   0.86108   0.00000  Uiso   1.00
C1061  C     0.79574   0.40937   0.52061   0.00000  Uiso   1.00
C1062  C     0.85630   0.65244   0.75183   0.00000  Uiso   1.00
C1063  C     0.81053   0.34798   0.75592   0.00000  Uiso   1.00
C1064  C     0.83366   0.50186   0.83623   0.00000  Uiso   1.00
C1065  C     0.83314   0.49946   0.66370   0.00000  Uiso   1.00
C1066  C     0.81305   0.45391   0.59240   0.00000  Uiso   1.00
F1067  F     0.88522   0.58105   0.61630   0.00000  Uiso   1.00
F1068  F     0.80040   0.41337   0.88054   0.00000  Uiso   1.00
F1069  F     0.91120   0.33942   0.74872   0.00000  Uiso   1.00
F1070  F     0.75564   0.66114   0.76170   0.00000  Uiso   1.00
H1071  H     0.88247   0.62541   0.54430   0.00000  Uiso   1.00
H1072  H     0.90557   0.59513   0.83797   0.00000  Uiso   1.00
H1073  H     0.92855   0.60752   0.89467   0.00000  Uiso   1.00
H1074  H     0.88919   0.35963   0.89856   0.00000  Uiso   1.00
H1075  H     0.93988   0.35292   0.85016   0.00000  Uiso   1.00
H1076  H     0.86476   0.34793   0.84281   0.00000  Uiso   1.00
H1077  H     0.98907   0.45563   0.64995   0.00000  Uiso   1.00
H1078  H     0.93406   0.42665   0.68750   0.00000  Uiso   1.00
H1079  H     0.66985   0.35216   0.69241   0.00000  Uiso   1.00
H1080  H     0.95597   0.35372   0.64817   0.00000  Uiso   1.00
H1081  H     0.69541   0.37470   0.63715   0.00000  Uiso   1.00
H1082  H     0.78444   0.37469   0.95537   0.00000  Uiso   1.00
H1083  H     0.67130   0.60439   0.83755   0.00000  Uiso   1.00
H1084  H     0.73116   0.57452   0.81622   0.00000  Uiso   1.00
H1085  H     0.95980   0.52460   0.87238   0.00000  Uiso   1.00
H1086  H     0.68348   0.48771   0.84848   0.00000  Uiso   1.00
H1087  H     0.69698   0.53880   0.89041   0.00000  Uiso   1.00
H1088  H     0.87175   0.63006   0.96453   0.00000  Uiso   1.00
H1089  H     0.78100   0.37382   0.53696   0.00000  Uiso   1.00
H1090  H     0.85815   0.39815   0.64966   0.00000  Uiso   1.00
H1091  H     0.85789   0.36861   0.59342   0.00000  Uiso   1.00
H1092  H     0.78267   0.63847   0.61762   0.00000  Uiso   1.00
H1093  H     0.83425   0.64200   0.65963   0.00000  Uiso   1.00
H1094  H     0.76949   0.33947   0.67128   0.00000  Uiso   1.00
N1095  N     0.98344   0.48598   0.73783   0.00000  Uiso   1.00
N1096  N     0.68322   0.51402   0.76217   0.00000  Uiso   1.00
O1097  O     0.79642   0.57952   0.75298   0.00000  Uiso   1.00
O1098  O     0.84057   0.59654   0.88823   0.00000  Uiso   1.00
O1099  O     0.67705   0.44713   0.71510   0.00000  Uiso   1.00
O1100  O     0.98943   0.55179   0.78598   0.00000  Uiso   1.00
O1101  O     0.87025   0.42048   0.74702   0.00000  Uiso   1.00
O1102  O     0.89280   0.57054   0.74519   0.00000  Uiso   1.00
O1103  O     0.77387   0.42946   0.75481   0.00000  Uiso   1.00
O1104  O     0.78514   0.50450   0.81997   0.00000  Uiso   1.00
O1105  O     0.88153   0.49550   0.68003   0.00000  Uiso   1.00
O1106  O     0.88152   0.49552   0.81217   0.00000  Uiso   1.00
O1107  O     0.78515   0.50448   0.68782   0.00000  Uiso   1.00
O1108  O     0.78839   0.41191   0.61545   0.00000  Uiso   1.00
Zn1109 Zn    0.76898   0.50600   0.75521   0.00000  Uiso   1.00
Zn1110 Zn    0.89769   0.49400   0.74479   0.00000  Uiso   1.00
C1111  C     0.18174   0.93134   0.75004   0.00000  Uiso   1.00
C1112  C     0.17619   0.88290   0.90834   0.00000  Uiso   1.00
C1113  C     0.16698   0.83187   0.61578   0.00000  Uiso   1.00
C1114  C     0.16618   0.83594   0.88400   0.00000  Uiso   1.00
C1115  C     0.19094   0.87513   0.59339   0.00000  Uiso   1.00
C1116  C     0.15023   0.78978   0.90527   0.00000  Uiso   1.00
C1117  C     0.18667   0.87762   0.54753   0.00000  Uiso   1.00
C1118  C     0.14860   0.78880   0.95180   0.00000  Uiso   1.00
C1119  C     0.16628   0.83307   0.52321   0.00000  Uiso   1.00
C1120  C     0.16503   0.83441   0.97656   0.00000  Uiso   1.00
C1121  C     0.14724   0.78724   0.54552   0.00000  Uiso   1.00
C1122  C     0.15165   0.73547   0.75254   0.00000  Uiso   1.00
C1123  C     0.17880   0.88169   0.95488   0.00000  Uiso   1.00
C1124  C     0.20123   0.92402   0.52581   0.00000  Uiso   1.00
C1125  C     0.13082   0.74321   0.97396   0.00000  Uiso   1.00
C1126  C     0.16420   0.71254   0.62446   0.00000  Uiso   1.00
C1127  C     0.13582   0.99661   0.64422   0.00000  Uiso   1.00
C1128  C     0.22889   0.94768   0.87141   0.00000  Uiso   1.00
C1129  C     0.23069   0.67238   0.86538   0.00000  Uiso   1.00
C1130  C     0.31277   0.76267   0.67847   0.00000  Uiso   1.00
C1131  C     0.32638   0.70759   0.66339   0.00000  Uiso   1.00
C1132  C     0.01871   0.89975   0.82422   0.00000  Uiso   1.00
C1133  C     0.19515   0.92657   0.98010   0.00000  Uiso   1.00
C1134  C     0.00568   0.86031   0.86108   0.00000  Uiso   1.00
C1135  C     0.12907   0.74271   0.52061   0.00000  Uiso   1.00
C1136  C     0.18964   0.98577   0.75183   0.00000  Uiso   1.00
C1137  C     0.14386   0.68131   0.75592   0.00000  Uiso   1.00
C1138  C     0.16699   0.83519   0.83623   0.00000  Uiso   1.00
C1139  C     0.16647   0.83279   0.66370   0.00000  Uiso   1.00
C1140  C     0.14638   0.78724   0.59240   0.00000  Uiso   1.00
F1141  F     0.21856   0.91439   0.61630   0.00000  Uiso   1.00
F1142  F     0.13373   0.74670   0.88054   0.00000  Uiso   1.00
F1143  F     0.24453   0.67276   0.74872   0.00000  Uiso   1.00
F1144  F     0.08898   0.99447   0.76170   0.00000  Uiso   1.00
H1145  H     0.21580   0.95874   0.54430   0.00000  Uiso   1.00
H1146  H     0.23890   0.92846   0.83797   0.00000  Uiso   1.00
H1147  H     0.26189   0.94085   0.89467   0.00000  Uiso   1.00
H1148  H     0.22252   0.69296   0.89856   0.00000  Uiso   1.00
H1149  H     0.27322   0.68625   0.85016   0.00000  Uiso   1.00
H1150  H     0.19809   0.68126   0.84281   0.00000  Uiso   1.00
H1151  H     0.32241   0.78896   0.64995   0.00000  Uiso   1.00
H1152  H     0.26739   0.75999   0.68750   0.00000  Uiso   1.00
H1153  H     0.00318   0.68550   0.69241   0.00000  Uiso   1.00
H1154  H     0.28931   0.68705   0.64817   0.00000  Uiso   1.00
H1155  H     0.02875   0.70803   0.63715   0.00000  Uiso   1.00
H1156  H     0.11777   0.70802   0.95537   0.00000  Uiso   1.00
H1157  H     0.00463   0.93772   0.83755   0.00000  Uiso   1.00
H1158  H     0.06449   0.90785   0.81622   0.00000  Uiso   1.00
H1159  H     0.29313   0.85793   0.87238   0.00000  Uiso   1.00
H1160  H     0.01681   0.82104   0.84848   0.00000  Uiso   1.00
H1161  H     0.03031   0.87214   0.89041   0.00000  Uiso   1.00
H1162  H     0.20508   0.96340   0.96453   0.00000  Uiso   1.00
H1163  H     0.11433   0.70716   0.53696   0.00000  Uiso   1.00
H1164  H     0.19149   0.73148   0.64966   0.00000  Uiso   1.00
H1165  H     0.19123   0.70194   0.59342   0.00000  Uiso   1.00
H1166  H     0.11600   0.97180   0.61762   0.00000  Uiso   1.00
H1167  H     0.16758   0.97533   0.65963   0.00000  Uiso   1.00
H1168  H     0.10282   0.67280   0.67128   0.00000  Uiso   1.00
N1169  N     0.31678   0.81932   0.73783   0.00000  Uiso   1.00
N1170  N     0.01656   0.84735   0.76217   0.00000  Uiso   1.00
O1171  O     0.12975   0.91286   0.75298   0.00000  Uiso   1.00
O1172  O     0.17390   0.92987   0.88823   0.00000  Uiso   1.00
O1173  O     0.01038   0.78047   0.71510   0.00000  Uiso   1.00
O1174  O     0.32276   0.88512   0.78598   0.00000  Uiso   1.00
O1175  O     0.20358   0.75381   0.74702   0.00000  Uiso   1.00
O1176  O     0.22613   0.90387   0.74519   0.00000  Uiso   1.00
O1177  O     0.10720   0.76279   0.75481   0.00000  Uiso   1.00
O1178  O     0.11847   0.83784   0.81997   0.00000  Uiso   1.00
O1179  O     0.21486   0.82883   0.68003   0.00000  Uiso   1.00
O1180  O     0.21485   0.82885   0.81217   0.00000  Uiso   1.00
O1181  O     0.11848   0.83781   0.68782   0.00000  Uiso   1.00
O1182  O     0.12173   0.74524   0.61545   0.00000  Uiso   1.00
Zn1183 Zn    0.10231   0.83933   0.75521   0.00000  Uiso   1.00
Zn1184 Zn    0.23102   0.82734   0.74479   0.00000  Uiso   1.00
C1185  C     0.51508   0.93134   0.75004   0.00000  Uiso   1.00
C1186  C     0.50952   0.88290   0.90834   0.00000  Uiso   1.00
C1187  C     0.50032   0.83187   0.61578   0.00000  Uiso   1.00
C1188  C     0.49951   0.83594   0.88400   0.00000  Uiso   1.00
C1189  C     0.52427   0.87513   0.59339   0.00000  Uiso   1.00
C1190  C     0.48356   0.78978   0.90527   0.00000  Uiso   1.00
C1191  C     0.52000   0.87762   0.54753   0.00000  Uiso   1.00
C1192  C     0.48193   0.78880   0.95180   0.00000  Uiso   1.00
C1193  C     0.49962   0.83307   0.52321   0.00000  Uiso   1.00
C1194  C     0.49837   0.83441   0.97656   0.00000  Uiso   1.00
C1195  C     0.48057   0.78724   0.54552   0.00000  Uiso   1.00
C1196  C     0.48498   0.73547   0.75254   0.00000  Uiso   1.00
C1197  C     0.51213   0.88169   0.95488   0.00000  Uiso   1.00
C1198  C     0.53456   0.92402   0.52581   0.00000  Uiso   1.00
C1199  C     0.46416   0.74321   0.97396   0.00000  Uiso   1.00
C1200  C     0.49753   0.71254   0.62446   0.00000  Uiso   1.00
C1201  C     0.46915   0.99661   0.64422   0.00000  Uiso   1.00
C1202  C     0.56222   0.94768   0.87141   0.00000  Uiso   1.00
C1203  C     0.56403   0.67238   0.86538   0.00000  Uiso   1.00
C1204  C     0.64610   0.76267   0.67847   0.00000  Uiso   1.00
C1205  C     0.65972   0.70759   0.66339   0.00000  Uiso   1.00
C1206  C     0.35204   0.89975   0.82422   0.00000  Uiso   1.00
C1207  C     0.52848   0.92657   0.98010   0.00000  Uiso   1.00
C1208  C     0.33901   0.86031   0.86108   0.00000  Uiso   1.00
C1209  C     0.46240   0.74271   0.52061   0.00000  Uiso   1.00
C1210  C     0.52297   0.98577   0.75183   0.00000  Uiso   1.00
C1211  C     0.47719   0.68131   0.75592   0.00000  Uiso   1.00
C1212  C     0.50032   0.83519   0.83623   0.00000  Uiso   1.00
C1213  C     0.49980   0.83279   0.66370   0.00000  Uiso   1.00
C1214  C     0.47972   0.78724   0.59240   0.00000  Uiso   1.00
F1215  F     0.55189   0.91439   0.61630   0.00000  Uiso   1.00
F1216  F     0.46707   0.74670   0.88054   0.00000  Uiso   1.00
F1217  F     0.57787   0.67276   0.74872   0.00000  Uiso   1.00
F1218  F     0.42231   0.99447   0.76170   0.00000  Uiso   1.00
H1219  H     0.54913   0.95874   0.54430   0.00000  Uiso   1.00
H1220  H     0.57224   0.92846   0.83797   0.00000  Uiso   1.00
H1221  H     0.59522   0.94085   0.89467   0.00000  Uiso   1.00
H1222  H     0.55585   0.69296   0.89856   0.00000  Uiso   1.00
H1223  H     0.60655   0.68625   0.85016   0.00000  Uiso   1.00
H1224  H     0.53142   0.68126   0.84281   0.00000  Uiso   1.00
H1225  H     0.65574   0.78896   0.64995   0.00000  Uiso   1.00
H1226  H     0.60073   0.75999   0.68750   0.00000  Uiso   1.00
H1227  H     0.33651   0.68550   0.69241   0.00000  Uiso   1.00
H1228  H     0.62264   0.68705   0.64817   0.00000  Uiso   1.00
H1229  H     0.36208   0.70803   0.63715   0.00000  Uiso   1.00
H1230  H     0.45111   0.70802   0.95537   0.00000  Uiso   1.00
H1231  H     0.33797   0.93772   0.83755   0.00000  Uiso   1.00
H1232  H     0.39782   0.90785   0.81622   0.00000  Uiso   1.00
H1233  H     0.62647   0.85793   0.87238   0.00000  Uiso   1.00
H1234  H     0.35014   0.82104   0.84848   0.00000  Uiso   1.00
H1235  H     0.36365   0.87214   0.89041   0.00000  Uiso   1.00
H1236  H     0.53841   0.96340   0.96453   0.00000  Uiso   1.00
H1237  H     0.44767   0.70716   0.53696   0.00000  Uiso   1.00
H1238  H     0.52482   0.73148   0.64966   0.00000  Uiso   1.00
H1239  H     0.52456   0.70194   0.59342   0.00000  Uiso   1.00
H1240  H     0.44933   0.97180   0.61762   0.00000  Uiso   1.00
H1241  H     0.50092   0.97533   0.65963   0.00000  Uiso   1.00
H1242  H     0.43615   0.67280   0.67128   0.00000  Uiso   1.00
N1243  N     0.65011   0.81932   0.73783   0.00000  Uiso   1.00
N1244  N     0.34989   0.84735   0.76217   0.00000  Uiso   1.00
O1245  O     0.46308   0.91286   0.75298   0.00000  Uiso   1.00
O1246  O     0.50724   0.92987   0.88823   0.00000  Uiso   1.00
O1247  O     0.34371   0.78047   0.71510   0.00000  Uiso   1.00
O1248  O     0.65610   0.88512   0.78598   0.00000  Uiso   1.00
O1249  O     0.53692   0.75381   0.74702   0.00000  Uiso   1.00
O1250  O     0.55946   0.90387   0.74519   0.00000  Uiso   1.00
O1251  O     0.44054   0.76279   0.75481   0.00000  Uiso   1.00
O1252  O     0.45181   0.83784   0.81997   0.00000  Uiso   1.00
O1253  O     0.54819   0.82883   0.68003   0.00000  Uiso   1.00
O1254  O     0.54819   0.82885   0.81217   0.00000  Uiso   1.00
O1255  O     0.45181   0.83781   0.68782   0.00000  Uiso   1.00
O1256  O     0.45506   0.74524   0.61545   0.00000  Uiso   1.00
Zn1257 Zn    0.43565   0.83933   0.75521   0.00000  Uiso   1.00
Zn1258 Zn    0.56435   0.82734   0.74479   0.00000  Uiso   1.00
C1259  C     0.84841   0.93134   0.75004   0.00000  Uiso   1.00
C1260  C     0.84286   0.88290   0.90834   0.00000  Uiso   1.00
C1261  C     0.83365   0.83187   0.61578   0.00000  Uiso   1.00
C1262  C     0.83285   0.83594   0.88400   0.00000  Uiso   1.00
C1263  C     0.85760   0.87513   0.59339   0.00000  Uiso   1.00
C1264  C     0.81690   0.78978   0.90527   0.00000  Uiso   1.00
C1265  C     0.85334   0.87762   0.54753   0.00000  Uiso   1.00
C1266  C     0.81526   0.78880   0.95180   0.00000  Uiso   1.00
C1267  C     0.83295   0.83307   0.52321   0.00000  Uiso   1.00
C1268  C     0.83170   0.83441   0.97656   0.00000  Uiso   1.00
C1269  C     0.81391   0.78724   0.54552   0.00000  Uiso   1.00
C1270  C     0.81831   0.73547   0.75254   0.00000  Uiso   1.00
C1271  C     0.84546   0.88169   0.95488   0.00000  Uiso   1.00
C1272  C     0.86789   0.92402   0.52581   0.00000  Uiso   1.00
C1273  C     0.79749   0.74321   0.97396   0.00000  Uiso   1.00
C1274  C     0.83086   0.71254   0.62446   0.00000  Uiso   1.00
C1275  C     0.80248   0.99661   0.64422   0.00000  Uiso   1.00
C1276  C     0.89556   0.94768   0.87141   0.00000  Uiso   1.00
C1277  C     0.89736   0.67238   0.86538   0.00000  Uiso   1.00
C1278  C     0.97944   0.76267   0.67847   0.00000  Uiso   1.00
C1279  C     0.99305   0.70759   0.66339   0.00000  Uiso   1.00
C1280  C     0.68537   0.89975   0.82422   0.00000  Uiso   1.00
C1281  C     0.86181   0.92657   0.98010   0.00000  Uiso   1.00
C1282  C     0.67234   0.86031   0.86108   0.00000  Uiso   1.00
C1283  C     0.79574   0.74271   0.52061   0.00000  Uiso   1.00
C1284  C     0.85630   0.98577   0.75183   0.00000  Uiso   1.00
C1285  C     0.81053   0.68131   0.75592   0.00000  Uiso   1.00
C1286  C     0.83366   0.83519   0.83623   0.00000  Uiso   1.00
C1287  C     0.83314   0.83279   0.66370   0.00000  Uiso   1.00
C1288  C     0.81305   0.78724   0.59240   0.00000  Uiso   1.00
F1289  F     0.88522   0.91439   0.61630   0.00000  Uiso   1.00
F1290  F     0.80040   0.74670   0.88054   0.00000  Uiso   1.00
F1291  F     0.91120   0.67276   0.74872   0.00000  Uiso   1.00
F1292  F     0.75564   0.99447   0.76170   0.00000  Uiso   1.00
H1293  H     0.88247   0.95874   0.54430   0.00000  Uiso   1.00
H1294  H     0.90557   0.92846   0.83797   0.00000  Uiso   1.00
H1295  H     0.92855   0.94085   0.89467   0.00000  Uiso   1.00
H1296  H     0.88919   0.69296   0.89856   0.00000  Uiso   1.00
H1297  H     0.93988   0.68625   0.85016   0.00000  Uiso   1.00
H1298  H     0.86476   0.68126   0.84281   0.00000  Uiso   1.00
H1299  H     0.98907   0.78896   0.64995   0.00000  Uiso   1.00
H1300  H     0.93406   0.75999   0.68750   0.00000  Uiso   1.00
H1301  H     0.66985   0.68550   0.69241   0.00000  Uiso   1.00
H1302  H     0.95597   0.68705   0.64817   0.00000  Uiso   1.00
H1303  H     0.69541   0.70803   0.63715   0.00000  Uiso   1.00
H1304  H     0.78444   0.70802   0.95537   0.00000  Uiso   1.00
H1305  H     0.67130   0.93772   0.83755   0.00000  Uiso   1.00
H1306  H     0.73116   0.90785   0.81622   0.00000  Uiso   1.00
H1307  H     0.95980   0.85793   0.87238   0.00000  Uiso   1.00
H1308  H     0.68348   0.82104   0.84848   0.00000  Uiso   1.00
H1309  H     0.69698   0.87214   0.89041   0.00000  Uiso   1.00
H1310  H     0.87175   0.96340   0.96453   0.00000  Uiso   1.00
H1311  H     0.78100   0.70716   0.53696   0.00000  Uiso   1.00
H1312  H     0.85815   0.73148   0.64966   0.00000  Uiso   1.00
H1313  H     0.85789   0.70194   0.59342   0.00000  Uiso   1.00
H1314  H     0.78267   0.97180   0.61762   0.00000  Uiso   1.00
H1315  H     0.83425   0.97533   0.65963   0.00000  Uiso   1.00
H1316  H     0.76949   0.67280   0.67128   0.00000  Uiso   1.00
N1317  N     0.98344   0.81932   0.73783   0.00000  Uiso   1.00
N1318  N     0.68322   0.84735   0.76217   0.00000  Uiso   1.00
O1319  O     0.79642   0.91286   0.75298   0.00000  Uiso   1.00
O1320  O     0.84057   0.92987   0.88823   0.00000  Uiso   1.00
O1321  O     0.67705   0.78047   0.71510   0.00000  Uiso   1.00
O1322  O     0.98943   0.88512   0.78598   0.00000  Uiso   1.00
O1323  O     0.87025   0.75381   0.74702   0.00000  Uiso   1.00
O1324  O     0.89280   0.90387   0.74519   0.00000  Uiso   1.00
O1325  O     0.77387   0.76279   0.75481   0.00000  Uiso   1.00
O1326  O     0.78514   0.83784   0.81997   0.00000  Uiso   1.00
O1327  O     0.88153   0.82883   0.68003   0.00000  Uiso   1.00
O1328  O     0.88152   0.82885   0.81217   0.00000  Uiso   1.00
O1329  O     0.78515   0.83781   0.68782   0.00000  Uiso   1.00
O1330  O     0.78839   0.74524   0.61545   0.00000  Uiso   1.00
Zn1331 Zn    0.76898   0.83933   0.75521   0.00000  Uiso   1.00
Zn1332 Zn    0.89769   0.82734   0.74479   0.00000  Uiso   1.00
loop_
_geom_bond_atom_site_label_1
_geom_bond_atom_site_label_2
_geom_bond_distance
_geom_bond_site_symmetry_2
_ccdc_geom_bond_type
C1     C26     1.408   .     S
C1     O61     1.285   .     A
C1     O66     1.304   .     A
C2     C4      1.402   .     A
C2     C13     1.395   .     A
C2     O62     1.387   .     S
C3     C30     1.400   .     A
C3     C29     1.426   .     S
C3     C5      1.391   .     A
C4     C6      1.392   .     A
C4     C28     1.421   .     S
C5     C7      1.384   .     A
C5     F31     1.357   .     S
C6     F32     1.360   .     S
C6     C8      1.385   .     A
C7     C9      1.411   .     A
C7     C14     1.399   .     A
C8     C10     1.412   .     A
C8     C15     1.400   .     A
C9     C11     1.414   .     A
C9     C676    1.395   1_554 S
C10    C13     1.415   .     A
C10    C675    1.395   .     S
C11    C25     1.403   .     A
C11    C30     1.395   .     A
C12    O67     1.304   .     A
C12    C27     1.409   .     S
C12    O65     1.285   .     A
C13    C23     1.403   .     A
C14    H35     1.083   .     S
C14    C689    1.387   1_554 S
C15    H46     1.084   .     S
C15    C691    1.388   .     S
C16    O72     1.409   .     S
C16    H55     1.114   .     S
C16    H54     1.106   .     S
C16    C461    1.518   1_545 S
C17    H56     1.111   .     S
C17    H57     1.104   .     S
C17    C238    1.518   .     S
C17    H280    1.106   .     S
C18    H37     1.115   .     S
C18    O62     1.408   .     S
C18    H36     1.108   .     S
C18    C241    1.519   .     S
C19    H38     1.110   .     S
C19    H39     1.110   .     S
C19    H40     1.108   .     S
C19    C462    1.519   1_545 S
C20    H41     1.112   .     S
C20    H42     1.082   .     S
C20    C21     1.524   .     S
C20    O137    1.407   .     S
C21    H44     1.112   .     S
C21    H117    1.110   .     S
C21    H119    1.101   .     S
C22    H48     1.096   .     S
C22    C24     1.532   .     S
C22    H47     1.106   .     S
C22    O212    1.406   1_455 S
C23    H52     1.082   .     S
C23    C680    1.387   .     S
C24    H51     1.110   .     S
C24    H50     1.109   .     S
C24    H197    1.107   1_455 S
C25    H53     1.083   .     S
C25    C681    1.388   1_554 S
C26    C249    1.353   .     S
C26    F255    1.363   .     S
C27    C470    1.353   1_545 S
C27    F478    1.364   1_545 S
C28    O68     1.290   .     A
C28    O70     1.304   .     A
C29    O71     1.303   .     A
C29    O69     1.293   .     A
C30    O72     1.381   .     S
F33    C470    1.363   1_545 S
F34    C249    1.364   .     S
H43    C169    1.110   1_455 S
H45    C169    1.101   1_455 S
H49    C98     1.107   .     S
H58    C461    1.106   1_545 S
N59    Zn74    2.046   .     S
N59    N134    1.278   .     S
N59    O137    1.353   .     S
N60    Zn73    2.046   .     S
N60    N207    1.278   1_455 S
N60    O212    1.349   1_455 S
O61    Zn73    1.970   .     S
O63    N207    1.353   1_455 S
O63    C168    1.407   1_455 S
O64    C96     1.406   .     S
O64    N134    1.349   .     S
O65    Zn74    1.970   .     S
O66    Zn74    1.993   .     S
O67    Zn73    1.993   .     S
O68    Zn73    2.001   .     S
O69    Zn74    2.001   .     S
O70    Zn74    2.011   .     S
O71    Zn73    2.011   .     S
C75    C100    1.408   .     S
C75    O135    1.285   .     A
C75    O140    1.304   .     A
C76    C78     1.402   .     A
C76    C87     1.395   .     A
C76    O136    1.387   .     S
C77    C104    1.400   .     A
C77    C103    1.426   .     S
C77    C79     1.391   .     A
C78    C80     1.392   .     A
C78    C102    1.421   .     S
C79    C81     1.384   .     A
C79    F105    1.357   .     S
C80    F106    1.360   .     S
C80    C82     1.385   .     A
C81    C83     1.411   .     A
C81    C88     1.399   .     A
C82    C84     1.412   .     A
C82    C89     1.400   .     A
C83    C85     1.414   .     A
C83    C750    1.395   1_554 S
C84    C87     1.415   .     A
C84    C749    1.395   .     S
C85    C99     1.403   .     A
C85    C104    1.395   .     A
C86    O141    1.304   .     A
C86    C101    1.409   .     S
C86    O139    1.285   .     A
C87    C97     1.403   .     A
C88    H109    1.083   .     S
C88    C763    1.387   1_554 S
C89    H120    1.084   .     S
C89    C765    1.388   .     S
C90    O146    1.409   .     S
C90    H129    1.114   .     S
C90    H128    1.106   .     S
C90    C535    1.518   1_545 S
C91    H130    1.111   .     S
C91    H131    1.104   .     S
C91    C312    1.518   .     S
C91    H354    1.106   .     S
C92    H111    1.115   .     S
C92    O136    1.408   .     S
C92    H110    1.108   .     S
C92    C315    1.519   .     S
C93    H112    1.110   .     S
C93    H113    1.110   .     S
C93    H114    1.108   .     S
C93    C536    1.519   1_545 S
C94    H115    1.112   .     S
C94    H116    1.082   .     S
C94    C95     1.524   .     S
C94    O211    1.407   .     S
C95    H118    1.112   .     S
C95    H191    1.110   .     S
C95    H193    1.101   .     S
C96    H122    1.096   .     S
C96    C98     1.532   .     S
C96    H121    1.106   .     S
C97    H126    1.082   .     S
C97    C754    1.387   .     S
C98    H125    1.110   .     S
C98    H124    1.109   .     S
C99    H127    1.083   .     S
C99    C755    1.388   1_554 S
C100   C323    1.353   .     S
C100   F329    1.363   .     S
C101   C544    1.353   1_545 S
C101   F552    1.364   1_545 S
C102   O142    1.290   .     A
C102   O144    1.304   .     A
C103   O145    1.303   .     A
C103   O143    1.293   .     A
C104   O146    1.381   .     S
F107   C544    1.363   1_545 S
F108   C323    1.364   .     S
H123   C172    1.107   .     S
H132   C535    1.106   1_545 S
N133   Zn148   2.046   .     S
N133   N208    1.278   .     S
N133   O211    1.353   .     S
N134   Zn147   2.046   .     S
O135   Zn147   1.970   .     S
O138   C170    1.406   .     S
O138   N208    1.349   .     S
O139   Zn148   1.970   .     S
O140   Zn148   1.993   .     S
O141   Zn147   1.993   .     S
O142   Zn147   2.001   .     S
O143   Zn148   2.001   .     S
O144   Zn148   2.011   .     S
O145   Zn147   2.011   .     S
C149   C174    1.408   .     S
C149   O209    1.285   .     A
C149   O214    1.304   .     A
C150   C152    1.402   .     A
C150   C161    1.395   .     A
C150   O210    1.387   .     S
C151   C178    1.400   .     A
C151   C177    1.426   .     S
C151   C153    1.391   .     A
C152   C154    1.392   .     A
C152   C176    1.421   .     S
C153   C155    1.384   .     A
C153   F179    1.357   .     S
C154   F180    1.360   .     S
C154   C156    1.385   .     A
C155   C157    1.411   .     A
C155   C162    1.399   .     A
C156   C158    1.412   .     A
C156   C163    1.400   .     A
C157   C159    1.414   .     A
C157   C824    1.395   1_554 S
C158   C161    1.415   .     A
C158   C823    1.395   .     S
C159   C173    1.403   .     A
C159   C178    1.395   .     A
C160   O215    1.304   .     A
C160   C175    1.409   .     S
C160   O213    1.285   .     A
C161   C171    1.403   .     A
C162   H183    1.083   .     S
C162   C837    1.387   1_554 S
C163   H194    1.084   .     S
C163   C839    1.388   .     S
C164   O220    1.409   .     S
C164   H203    1.114   .     S
C164   H202    1.106   .     S
C164   C609    1.518   1_545 S
C165   H204    1.111   .     S
C165   H205    1.104   .     S
C165   C386    1.518   .     S
C165   H428    1.106   .     S
C166   H185    1.115   .     S
C166   O210    1.408   .     S
C166   H184    1.108   .     S
C166   C389    1.519   .     S
C167   H186    1.110   .     S
C167   H187    1.110   .     S
C167   H188    1.108   .     S
C167   C610    1.519   1_545 S
C168   H189    1.112   .     S
C168   H190    1.082   .     S
C168   C169    1.524   .     S
C168   O63     1.407   1_655 S
C169   H192    1.112   .     S
C169   H43     1.110   1_655 S
C169   H45     1.101   1_655 S
C170   H196    1.096   .     S
C170   C172    1.532   .     S
C170   H195    1.106   .     S
C171   H200    1.082   .     S
C171   C828    1.387   .     S
C172   H199    1.110   .     S
C172   H198    1.109   .     S
C173   H201    1.083   .     S
C173   C829    1.388   1_554 S
C174   C397    1.353   .     S
C174   F403    1.363   .     S
C175   C618    1.353   1_545 S
C175   F626    1.364   1_545 S
C176   O216    1.290   .     A
C176   O218    1.304   .     A
C177   O219    1.303   .     A
C177   O217    1.293   .     A
C178   O220    1.381   .     S
F181   C618    1.363   1_545 S
F182   C397    1.364   .     S
H197   C24     1.107   1_655 S
H206   C609    1.106   1_545 S
N207   Zn222   2.046   .     S
N207   N60     1.278   1_655 S
N207   O63     1.353   1_655 S
N208   Zn221   2.046   .     S
O209   Zn221   1.970   .     S
O212   C22     1.406   1_655 S
O212   N60     1.349   1_655 S
O213   Zn222   1.970   .     S
O214   Zn222   1.993   .     S
O215   Zn221   1.993   .     S
O216   Zn221   2.001   .     S
O217   Zn222   2.001   .     S
O218   Zn222   2.011   .     S
O219   Zn221   2.011   .     S
C223   C248    1.408   .     S
C223   O283    1.285   .     A
C223   O288    1.304   .     A
C224   C226    1.402   .     A
C224   C235    1.395   .     A
C224   O284    1.387   .     S
C225   C252    1.400   .     A
C225   C251    1.426   .     S
C225   C227    1.391   .     A
C226   C228    1.392   .     A
C226   C250    1.421   .     S
C227   C229    1.384   .     A
C227   F253    1.357   .     S
C228   F254    1.360   .     S
C228   C230    1.385   .     A
C229   C231    1.411   .     A
C229   C236    1.399   .     A
C230   C232    1.412   .     A
C230   C237    1.400   .     A
C231   C233    1.414   .     A
C231   C898    1.395   1_554 S
C232   C235    1.415   .     A
C232   C897    1.395   .     S
C233   C247    1.403   .     A
C233   C252    1.395   .     A
C234   O289    1.304   .     A
C234   C249    1.409   .     S
C234   O287    1.285   .     A
C235   C245    1.403   .     A
C236   H257    1.083   .     S
C236   C911    1.387   1_554 S
C237   H268    1.084   .     S
C237   C913    1.388   .     S
C238   O294    1.409   .     S
C238   H277    1.114   .     S
C238   H276    1.106   .     S
C239   H278    1.111   .     S
C239   H279    1.104   .     S
C239   C460    1.518   .     S
C239   H502    1.106   .     S
C240   H259    1.115   .     S
C240   O284    1.408   .     S
C240   H258    1.108   .     S
C240   C463    1.519   .     S
C241   H260    1.110   .     S
C241   H261    1.110   .     S
C241   H262    1.108   .     S
C242   H263    1.112   .     S
C242   H264    1.082   .     S
C242   C243    1.524   .     S
C242   O359    1.407   .     S
C243   H266    1.112   .     S
C243   H339    1.110   .     S
C243   H341    1.101   .     S
C244   H270    1.096   .     S
C244   C246    1.532   .     S
C244   H269    1.106   .     S
C244   O434    1.406   1_455 S
C245   H274    1.082   .     S
C245   C902    1.387   .     S
C246   H273    1.110   .     S
C246   H272    1.109   .     S
C246   H419    1.107   1_455 S
C247   H275    1.083   .     S
C247   C903    1.388   1_554 S
C248   C471    1.353   .     S
C248   F477    1.363   .     S
C250   O290    1.290   .     A
C250   O292    1.304   .     A
C251   O293    1.303   .     A
C251   O291    1.293   .     A
C252   O294    1.381   .     S
F256   C471    1.364   .     S
H265   C391    1.110   1_455 S
H267   C391    1.101   1_455 S
H271   C320    1.107   .     S
N281   Zn296   2.046   .     S
N281   N356    1.278   .     S
N281   O359    1.353   .     S
N282   Zn295   2.046   .     S
N282   N429    1.278   1_455 S
N282   O434    1.349   1_455 S
O283   Zn295   1.970   .     S
O285   N429    1.353   1_455 S
O285   C390    1.407   1_455 S
O286   C318    1.406   .     S
O286   N356    1.349   .     S
O287   Zn296   1.970   .     S
O288   Zn296   1.993   .     S
O289   Zn295   1.993   .     S
O290   Zn295   2.001   .     S
O291   Zn296   2.001   .     S
O292   Zn296   2.011   .     S
O293   Zn295   2.011   .     S
C297   C322    1.408   .     S
C297   O357    1.285   .     A
C297   O362    1.304   .     A
C298   C300    1.402   .     A
C298   C309    1.395   .     A
C298   O358    1.387   .     S
C299   C326    1.400   .     A
C299   C325    1.426   .     S
C299   C301    1.391   .     A
C300   C302    1.392   .     A
C300   C324    1.421   .     S
C301   C303    1.384   .     A
C301   F327    1.357   .     S
C302   F328    1.360   .     S
C302   C304    1.385   .     A
C303   C305    1.411   .     A
C303   C310    1.399   .     A
C304   C306    1.412   .     A
C304   C311    1.400   .     A
C305   C307    1.414   .     A
C305   C972    1.395   1_554 S
C306   C309    1.415   .     A
C306   C971    1.395   .     S
C307   C321    1.403   .     A
C307   C326    1.395   .     A
C308   O363    1.304   .     A
C308   C323    1.409   .     S
C308   O361    1.285   .     A
C309   C319    1.403   .     A
C310   H331    1.083   .     S
C310   C985    1.387   1_554 S
C311   H342    1.084   .     S
C311   C987    1.388   .     S
C312   O368    1.409   .     S
C312   H351    1.114   .     S
C312   H350    1.106   .     S
C313   H352    1.111   .     S
C313   H353    1.104   .     S
C313   C534    1.518   .     S
C313   H576    1.106   .     S
C314   H333    1.115   .     S
C314   O358    1.408   .     S
C314   H332    1.108   .     S
C314   C537    1.519   .     S
C315   H334    1.110   .     S
C315   H335    1.110   .     S
C315   H336    1.108   .     S
C316   H337    1.112   .     S
C316   H338    1.082   .     S
C316   C317    1.524   .     S
C316   O433    1.407   .     S
C317   H340    1.112   .     S
C317   H413    1.110   .     S
C317   H415    1.101   .     S
C318   H344    1.096   .     S
C318   C320    1.532   .     S
C318   H343    1.106   .     S
C319   H348    1.082   .     S
C319   C976    1.387   .     S
C320   H347    1.110   .     S
C320   H346    1.109   .     S
C321   H349    1.083   .     S
C321   C977    1.388   1_554 S
C322   C545    1.353   .     S
C322   F551    1.363   .     S
C324   O364    1.290   .     A
C324   O366    1.304   .     A
C325   O367    1.303   .     A
C325   O365    1.293   .     A
C326   O368    1.381   .     S
F330   C545    1.364   .     S
H345   C394    1.107   .     S
N355   Zn370   2.046   .     S
N355   N430    1.278   .     S
N355   O433    1.353   .     S
N356   Zn369   2.046   .     S
O357   Zn369   1.970   .     S
O360   C392    1.406   .     S
O360   N430    1.349   .     S
O361   Zn370   1.970   .     S
O362   Zn370   1.993   .     S
O363   Zn369   1.993   .     S
O364   Zn369   2.001   .     S
O365   Zn370   2.001   .     S
O366   Zn370   2.011   .     S
O367   Zn369   2.011   .     S
C371   C396    1.408   .     S
C371   O431    1.285   .     A
C371   O436    1.304   .     A
C372   C374    1.402   .     A
C372   C383    1.395   .     A
C372   O432    1.387   .     S
C373   C400    1.400   .     A
C373   C399    1.426   .     S
C373   C375    1.391   .     A
C374   C376    1.392   .     A
C374   C398    1.421   .     S
C375   C377    1.384   .     A
C375   F401    1.357   .     S
C376   F402    1.360   .     S
C376   C378    1.385   .     A
C377   C379    1.411   .     A
C377   C384    1.399   .     A
C378   C380    1.412   .     A
C378   C385    1.400   .     A
C379   C381    1.414   .     A
C379   C1046   1.395   1_554 S
C380   C383    1.415   .     A
C380   C1045   1.395   .     S
C381   C395    1.403   .     A
C381   C400    1.395   .     A
C382   O437    1.304   .     A
C382   C397    1.409   .     S
C382   O435    1.285   .     A
C383   C393    1.403   .     A
C384   H405    1.083   .     S
C384   C1059   1.387   1_554 S
C385   H416    1.084   .     S
C385   C1061   1.388   .     S
C386   O442    1.409   .     S
C386   H425    1.114   .     S
C386   H424    1.106   .     S
C387   H426    1.111   .     S
C387   H427    1.104   .     S
C387   C608    1.518   .     S
C387   H650    1.106   .     S
C388   H407    1.115   .     S
C388   O432    1.408   .     S
C388   H406    1.108   .     S
C388   C611    1.519   .     S
C389   H408    1.110   .     S
C389   H409    1.110   .     S
C389   H410    1.108   .     S
C390   H411    1.112   .     S
C390   H412    1.082   .     S
C390   C391    1.524   .     S
C390   O285    1.407   1_655 S
C391   H414    1.112   .     S
C391   H265    1.110   1_655 S
C391   H267    1.101   1_655 S
C392   H418    1.096   .     S
C392   C394    1.532   .     S
C392   H417    1.106   .     S
C393   H422    1.082   .     S
C393   C1050   1.387   .     S
C394   H421    1.110   .     S
C394   H420    1.109   .     S
C395   H423    1.083   .     S
C395   C1051   1.388   1_554 S
C396   C619    1.353   .     S
C396   F625    1.363   .     S
C398   O438    1.290   .     A
C398   O440    1.304   .     A
C399   O441    1.303   .     A
C399   O439    1.293   .     A
C400   O442    1.381   .     S
F404   C619    1.364   .     S
H419   C246    1.107   1_655 S
N429   Zn444   2.046   .     S
N429   N282    1.278   1_655 S
N429   O285    1.353   1_655 S
N430   Zn443   2.046   .     S
O431   Zn443   1.970   .     S
O434   C244    1.406   1_655 S
O434   N282    1.349   1_655 S
O435   Zn444   1.970   .     S
O436   Zn444   1.993   .     S
O437   Zn443   1.993   .     S
O438   Zn443   2.001   .     S
O439   Zn444   2.001   .     S
O440   Zn444   2.011   .     S
O441   Zn443   2.011   .     S
C445   C470    1.408   .     S
C445   O505    1.285   .     A
C445   O510    1.304   .     A
C446   C448    1.402   .     A
C446   C457    1.395   .     A
C446   O506    1.387   .     S
C447   C474    1.400   .     A
C447   C473    1.426   .     S
C447   C449    1.391   .     A
C448   C450    1.392   .     A
C448   C472    1.421   .     S
C449   C451    1.384   .     A
C449   F475    1.357   .     S
C450   F476    1.360   .     S
C450   C452    1.385   .     A
C451   C453    1.411   .     A
C451   C458    1.399   .     A
C452   C454    1.412   .     A
C452   C459    1.400   .     A
C453   C455    1.414   .     A
C453   C1120   1.395   1_554 S
C454   C457    1.415   .     A
C454   C1119   1.395   .     S
C455   C469    1.403   .     A
C455   C474    1.395   .     A
C456   O511    1.304   .     A
C456   C471    1.409   .     S
C456   O509    1.285   .     A
C457   C467    1.403   .     A
C458   H479    1.083   .     S
C458   C1133   1.387   1_554 S
C459   H490    1.084   .     S
C459   C1135   1.388   .     S
C460   O516    1.409   .     S
C460   H499    1.114   .     S
C460   H498    1.106   .     S
C461   H500    1.111   .     S
C461   H501    1.104   .     S
C461   C16     1.518   1_565 S
C461   H58     1.106   1_565 S
C462   H481    1.115   .     S
C462   O506    1.408   .     S
C462   H480    1.108   .     S
C462   C19     1.519   1_565 S
C463   H482    1.110   .     S
C463   H483    1.110   .     S
C463   H484    1.108   .     S
C464   H485    1.112   .     S
C464   H486    1.082   .     S
C464   C465    1.524   .     S
C464   O581    1.407   .     S
C465   H488    1.112   .     S
C465   H561    1.110   .     S
C465   H563    1.101   .     S
C466   H492    1.096   .     S
C466   C468    1.532   .     S
C466   H491    1.106   .     S
C466   O656    1.406   1_455 S
C467   H496    1.082   .     S
C467   C1124   1.387   .     S
C468   H495    1.110   .     S
C468   H494    1.109   .     S
C468   H641    1.107   1_455 S
C469   H497    1.083   .     S
C469   C1125   1.388   1_554 S
C470   C27     1.353   1_565 S
C470   F33     1.363   1_565 S
C472   O512    1.290   .     A
C472   O514    1.304   .     A
C473   O515    1.303   .     A
C473   O513    1.293   .     A
C474   O516    1.381   .     S
F478   C27     1.364   1_565 S
H487   C613    1.110   1_455 S
H489   C613    1.101   1_455 S
H493   C542    1.107   .     S
N503   Zn518   2.046   .     S
N503   N578    1.278   .     S
N503   O581    1.353   .     S
N504   Zn517   2.046   .     S
N504   N651    1.278   1_455 S
N504   O656    1.349   1_455 S
O505   Zn517   1.970   .     S
O507   N651    1.353   1_455 S
O507   C612    1.407   1_455 S
O508   C540    1.406   .     S
O508   N578    1.349   .     S
O509   Zn518   1.970   .     S
O510   Zn518   1.993   .     S
O511   Zn517   1.993   .     S
O512   Zn517   2.001   .     S
O513   Zn518   2.001   .     S
O514   Zn518   2.011   .     S
O515   Zn517   2.011   .     S
C519   C544    1.408   .     S
C519   O579    1.285   .     A
C519   O584    1.304   .     A
C520   C522    1.402   .     A
C520   C531    1.395   .     A
C520   O580    1.387   .     S
C521   C548    1.400   .     A
C521   C547    1.426   .     S
C521   C523    1.391   .     A
C522   C524    1.392   .     A
C522   C546    1.421   .     S
C523   C525    1.384   .     A
C523   F549    1.357   .     S
C524   F550    1.360   .     S
C524   C526    1.385   .     A
C525   C527    1.411   .     A
C525   C532    1.399   .     A
C526   C528    1.412   .     A
C526   C533    1.400   .     A
C527   C529    1.414   .     A
C527   C1194   1.395   1_554 S
C528   C531    1.415   .     A
C528   C1193   1.395   .     S
C529   C543    1.403   .     A
C529   C548    1.395   .     A
C530   O585    1.304   .     A
C530   C545    1.409   .     S
C530   O583    1.285   .     A
C531   C541    1.403   .     A
C532   H553    1.083   .     S
C532   C1207   1.387   1_554 S
C533   H564    1.084   .     S
C533   C1209   1.388   .     S
C534   O590    1.409   .     S
C534   H573    1.114   .     S
C534   H572    1.106   .     S
C535   H574    1.111   .     S
C535   H575    1.104   .     S
C535   C90     1.518   1_565 S
C535   H132    1.106   1_565 S
C536   H555    1.115   .     S
C536   O580    1.408   .     S
C536   H554    1.108   .     S
C536   C93     1.519   1_565 S
C537   H556    1.110   .     S
C537   H557    1.110   .     S
C537   H558    1.108   .     S
C538   H559    1.112   .     S
C538   H560    1.082   .     S
C538   C539    1.524   .     S
C538   O655    1.407   .     S
C539   H562    1.112   .     S
C539   H635    1.110   .     S
C539   H637    1.101   .     S
C540   H566    1.096   .     S
C540   C542    1.532   .     S
C540   H565    1.106   .     S
C541   H570    1.082   .     S
C541   C1198   1.387   .     S
C542   H569    1.110   .     S
C542   H568    1.109   .     S
C543   H571    1.083   .     S
C543   C1199   1.388   1_554 S
C544   C101    1.353   1_565 S
C544   F107    1.363   1_565 S
C546   O586    1.290   .     A
C546   O588    1.304   .     A
C547   O589    1.303   .     A
C547   O587    1.293   .     A
C548   O590    1.381   .     S
F552   C101    1.364   1_565 S
H567   C616    1.107   .     S
N577   Zn592   2.046   .     S
N577   N652    1.278   .     S
N577   O655    1.353   .     S
N578   Zn591   2.046   .     S
O579   Zn591   1.970   .     S
O582   C614    1.406   .     S
O582   N652    1.349   .     S
O583   Zn592   1.970   .     S
O584   Zn592   1.993   .     S
O585   Zn591   1.993   .     S
O586   Zn591   2.001   .     S
O587   Zn592   2.001   .     S
O588   Zn592   2.011   .     S
O589   Zn591   2.011   .     S
C593   C618    1.408   .     S
C593   O653    1.285   .     A
C593   O658    1.304   .     A
C594   C596    1.402   .     A
C594   C605    1.395   .     A
C594   O654    1.387   .     S
C595   C622    1.400   .     A
C595   C621    1.426   .     S
C595   C597    1.391   .     A
C596   C598    1.392   .     A
C596   C620    1.421   .     S
C597   C599    1.384   .     A
C597   F623    1.357   .     S
C598   F624    1.360   .     S
C598   C600    1.385   .     A
C599   C601    1.411   .     A
C599   C606    1.399   .     A
C600   C602    1.412   .     A
C600   C607    1.400   .     A
C601   C603    1.414   .     A
C601   C1268   1.395   1_554 S
C602   C605    1.415   .     A
C602   C1267   1.395   .     S
C603   C617    1.403   .     A
C603   C622    1.395   .     A
C604   O659    1.304   .     A
C604   C619    1.409   .     S
C604   O657    1.285   .     A
C605   C615    1.403   .     A
C606   H627    1.083   .     S
C606   C1281   1.387   1_554 S
C607   H638    1.084   .     S
C607   C1283   1.388   .     S
C608   O664    1.409   .     S
C608   H647    1.114   .     S
C608   H646    1.106   .     S
C609   H648    1.111   .     S
C609   H649    1.104   .     S
C609   C164    1.518   1_565 S
C609   H206    1.106   1_565 S
C610   H629    1.115   .     S
C610   O654    1.408   .     S
C610   H628    1.108   .     S
C610   C167    1.519   1_565 S
C611   H630    1.110   .     S
C611   H631    1.110   .     S
C611   H632    1.108   .     S
C612   H633    1.112   .     S
C612   H634    1.082   .     S
C612   C613    1.524   .     S
C612   O507    1.407   1_655 S
C613   H636    1.112   .     S
C613   H487    1.110   1_655 S
C613   H489    1.101   1_655 S
C614   H640    1.096   .     S
C614   C616    1.532   .     S
C614   H639    1.106   .     S
C615   H644    1.082   .     S
C615   C1272   1.387   .     S
C616   H643    1.110   .     S
C616   H642    1.109   .     S
C617   H645    1.083   .     S
C617   C1273   1.388   1_554 S
C618   C175    1.353   1_565 S
C618   F181    1.363   1_565 S
C620   O660    1.290   .     A
C620   O662    1.304   .     A
C621   O663    1.303   .     A
C621   O661    1.293   .     A
C622   O664    1.381   .     S
F626   C175    1.364   1_565 S
H641   C468    1.107   1_655 S
N651   Zn666   2.046   .     S
N651   N504    1.278   1_655 S
N651   O507    1.353   1_655 S
N652   Zn665   2.046   .     S
O653   Zn665   1.970   .     S
O656   C466    1.406   1_655 S
O656   N504    1.349   1_655 S
O657   Zn666   1.970   .     S
O658   Zn666   1.993   .     S
O659   Zn665   1.993   .     S
O660   Zn665   2.001   .     S
O661   Zn666   2.001   .     S
O662   Zn666   2.011   .     S
O663   Zn665   2.011   .     S
C667   C692    1.408   .     S
C667   O727    1.285   .     A
C667   O732    1.304   .     A
C668   C670    1.402   .     A
C668   C679    1.395   .     A
C668   O728    1.387   .     S
C669   C696    1.400   .     A
C669   C695    1.426   .     S
C669   C671    1.391   .     A
C670   C672    1.392   .     A
C670   C694    1.421   .     S
C671   C673    1.384   .     A
C671   F697    1.357   .     S
C672   F698    1.360   .     S
C672   C674    1.385   .     A
C673   C675    1.411   .     A
C673   C680    1.399   .     A
C674   C676    1.412   .     A
C674   C681    1.400   .     A
C675   C677    1.414   .     A
C676   C679    1.415   .     A
C676   C9      1.395   1_556 S
C677   C691    1.403   .     A
C677   C696    1.395   .     A
C678   O733    1.304   .     A
C678   C693    1.409   .     S
C678   O731    1.285   .     A
C679   C689    1.403   .     A
C680   H701    1.083   .     S
C681   H712    1.084   .     S
C681   C25     1.388   1_556 S
C682   O738    1.409   .     S
C682   H721    1.114   .     S
C682   H720    1.106   .     S
C682   C1127   1.518   1_545 S
C683   H722    1.111   .     S
C683   H723    1.104   .     S
C683   C904    1.518   .     S
C683   H946    1.106   .     S
C684   H703    1.115   .     S
C684   O728    1.408   .     S
C684   H702    1.108   .     S
C684   C907    1.519   .     S
C685   H704    1.110   .     S
C685   H705    1.110   .     S
C685   H706    1.108   .     S
C685   C1128   1.519   1_545 S
C686   H707    1.112   .     S
C686   H708    1.082   .     S
C686   C687    1.524   .     S
C686   O803    1.407   .     S
C687   H710    1.112   .     S
C687   H783    1.110   .     S
C687   H785    1.101   .     S
C688   H714    1.096   .     S
C688   C690    1.532   .     S
C688   H713    1.106   .     S
C688   O878    1.406   1_455 S
C689   H718    1.082   .     S
C689   C14     1.387   1_556 S
C690   H717    1.110   .     S
C690   H716    1.109   .     S
C690   H863    1.107   1_455 S
C691   H719    1.083   .     S
C692   C915    1.353   .     S
C692   F921    1.363   .     S
C693   C1136   1.353   1_545 S
C693   F1144   1.364   1_545 S
C694   O734    1.290   .     A
C694   O736    1.304   .     A
C695   O737    1.303   .     A
C695   O735    1.293   .     A
C696   O738    1.381   .     S
F699   C1136   1.363   1_545 S
F700   C915    1.364   .     S
H709   C835    1.110   1_455 S
H711   C835    1.101   1_455 S
H715   C764    1.107   .     S
H724   C1127   1.106   1_545 S
N725   Zn740   2.046   .     S
N725   N800    1.278   .     S
N725   O803    1.353   .     S
N726   Zn739   2.046   .     S
N726   N873    1.278   1_455 S
N726   O878    1.349   1_455 S
O727   Zn739   1.970   .     S
O729   N873    1.353   1_455 S
O729   C834    1.407   1_455 S
O730   C762    1.406   .     S
O730   N800    1.349   .     S
O731   Zn740   1.970   .     S
O732   Zn740   1.993   .     S
O733   Zn739   1.993   .     S
O734   Zn739   2.001   .     S
O735   Zn740   2.001   .     S
O736   Zn740   2.011   .     S
O737   Zn739   2.011   .     S
C741   C766    1.408   .     S
C741   O801    1.285   .     A
C741   O806    1.304   .     A
C742   C744    1.402   .     A
C742   C753    1.395   .     A
C742   O802    1.387   .     S
C743   C770    1.400   .     A
C743   C769    1.426   .     S
C743   C745    1.391   .     A
C744   C746    1.392   .     A
C744   C768    1.421   .     S
C745   C747    1.384   .     A
C745   F771    1.357   .     S
C746   F772    1.360   .     S
C746   C748    1.385   .     A
C747   C749    1.411   .     A
C747   C754    1.399   .     A
C748   C750    1.412   .     A
C748   C755    1.400   .     A
C749   C751    1.414   .     A
C750   C753    1.415   .     A
C750   C83     1.395   1_556 S
C751   C765    1.403   .     A
C751   C770    1.395   .     A
C752   O807    1.304   .     A
C752   C767    1.409   .     S
C752   O805    1.285   .     A
C753   C763    1.403   .     A
C754   H775    1.083   .     S
C755   H786    1.084   .     S
C755   C99     1.388   1_556 S
C756   O812    1.409   .     S
C756   H795    1.114   .     S
C756   H794    1.106   .     S
C756   C1201   1.518   1_545 S
C757   H796    1.111   .     S
C757   H797    1.104   .     S
C757   C978    1.518   .     S
C757   H1020   1.106   .     S
C758   H777    1.115   .     S
C758   O802    1.408   .     S
C758   H776    1.108   .     S
C758   C981    1.519   .     S
C759   H778    1.110   .     S
C759   H779    1.110   .     S
C759   H780    1.108   .     S
C759   C1202   1.519   1_545 S
C760   H781    1.112   .     S
C760   H782    1.082   .     S
C760   C761    1.524   .     S
C760   O877    1.407   .     S
C761   H784    1.112   .     S
C761   H857    1.110   .     S
C761   H859    1.101   .     S
C762   H788    1.096   .     S
C762   C764    1.532   .     S
C762   H787    1.106   .     S
C763   H792    1.082   .     S
C763   C88     1.387   1_556 S
C764   H791    1.110   .     S
C764   H790    1.109   .     S
C765   H793    1.083   .     S
C766   C989    1.353   .     S
C766   F995    1.363   .     S
C767   C1210   1.353   1_545 S
C767   F1218   1.364   1_545 S
C768   O808    1.290   .     A
C768   O810    1.304   .     A
C769   O811    1.303   .     A
C769   O809    1.293   .     A
C770   O812    1.381   .     S
F773   C1210   1.363   1_545 S
F774   C989    1.364   .     S
H789   C838    1.107   .     S
H798   C1201   1.106   1_545 S
N799   Zn814   2.046   .     S
N799   N874    1.278   .     S
N799   O877    1.353   .     S
N800   Zn813   2.046   .     S
O801   Zn813   1.970   .     S
O804   C836    1.406   .     S
O804   N874    1.349   .     S
O805   Zn814   1.970   .     S
O806   Zn814   1.993   .     S
O807   Zn813   1.993   .     S
O808   Zn813   2.001   .     S
O809   Zn814   2.001   .     S
O810   Zn814   2.011   .     S
O811   Zn813   2.011   .     S
C815   C840    1.408   .     S
C815   O875    1.285   .     A
C815   O880    1.304   .     A
C816   C818    1.402   .     A
C816   C827    1.395   .     A
C816   O876    1.387   .     S
C817   C844    1.400   .     A
C817   C843    1.426   .     S
C817   C819    1.391   .     A
C818   C820    1.392   .     A
C818   C842    1.421   .     S
C819   C821    1.384   .     A
C819   F845    1.357   .     S
C820   F846    1.360   .     S
C820   C822    1.385   .     A
C821   C823    1.411   .     A
C821   C828    1.399   .     A
C822   C824    1.412   .     A
C822   C829    1.400   .     A
C823   C825    1.414   .     A
C824   C827    1.415   .     A
C824   C157    1.395   1_556 S
C825   C839    1.403   .     A
C825   C844    1.395   .     A
C826   O881    1.304   .     A
C826   C841    1.409   .     S
C826   O879    1.285   .     A
C827   C837    1.403   .     A
C828   H849    1.083   .     S
C829   H860    1.084   .     S
C829   C173    1.388   1_556 S
C830   O886    1.409   .     S
C830   H869    1.114   .     S
C830   H868    1.106   .     S
C830   C1275   1.518   1_545 S
C831   H870    1.111   .     S
C831   H871    1.104   .     S
C831   C1052   1.518   .     S
C831   H1094   1.106   .     S
C832   H851    1.115   .     S
C832   O876    1.408   .     S
C832   H850    1.108   .     S
C832   C1055   1.519   .     S
C833   H852    1.110   .     S
C833   H853    1.110   .     S
C833   H854    1.108   .     S
C833   C1276   1.519   1_545 S
C834   H855    1.112   .     S
C834   H856    1.082   .     S
C834   C835    1.524   .     S
C834   O729    1.407   1_655 S
C835   H858    1.112   .     S
C835   H709    1.110   1_655 S
C835   H711    1.101   1_655 S
C836   H862    1.096   .     S
C836   C838    1.532   .     S
C836   H861    1.106   .     S
C837   H866    1.082   .     S
C837   C162    1.387   1_556 S
C838   H865    1.110   .     S
C838   H864    1.109   .     S
C839   H867    1.083   .     S
C840   C1063   1.353   .     S
C840   F1069   1.363   .     S
C841   C1284   1.353   1_545 S
C841   F1292   1.364   1_545 S
C842   O882    1.290   .     A
C842   O884    1.304   .     A
C843   O885    1.303   .     A
C843   O883    1.293   .     A
C844   O886    1.381   .     S
F847   C1284   1.363   1_545 S
F848   C1063   1.364   .     S
H863   C690    1.107   1_655 S
H872   C1275   1.106   1_545 S
N873   Zn888   2.046   .     S
N873   N726    1.278   1_655 S
N873   O729    1.353   1_655 S
N874   Zn887   2.046   .     S
O875   Zn887   1.970   .     S
O878   C688    1.406   1_655 S
O878   N726    1.349   1_655 S
O879   Zn888   1.970   .     S
O880   Zn888   1.993   .     S
O881   Zn887   1.993   .     S
O882   Zn887   2.001   .     S
O883   Zn888   2.001   .     S
O884   Zn888   2.011   .     S
O885   Zn887   2.011   .     S
C889   C914    1.408   .     S
C889   O949    1.285   .     A
C889   O954    1.304   .     A
C890   C892    1.402   .     A
C890   C901    1.395   .     A
C890   O950    1.387   .     S
C891   C918    1.400   .     A
C891   C917    1.426   .     S
C891   C893    1.391   .     A
C892   C894    1.392   .     A
C892   C916    1.421   .     S
C893   C895    1.384   .     A
C893   F919    1.357   .     S
C894   F920    1.360   .     S
C894   C896    1.385   .     A
C895   C897    1.411   .     A
C895   C902    1.399   .     A
C896   C898    1.412   .     A
C896   C903    1.400   .     A
C897   C899    1.414   .     A
C898   C901    1.415   .     A
C898   C231    1.395   1_556 S
C899   C913    1.403   .     A
C899   C918    1.395   .     A
C900   O955    1.304   .     A
C900   C915    1.409   .     S
C900   O953    1.285   .     A
C901   C911    1.403   .     A
C902   H923    1.083   .     S
C903   H934    1.084   .     S
C903   C247    1.388   1_556 S
C904   O960    1.409   .     S
C904   H943    1.114   .     S
C904   H942    1.106   .     S
C905   H944    1.111   .     S
C905   H945    1.104   .     S
C905   C1126   1.518   .     S
C905   H1168   1.106   .     S
C906   H925    1.115   .     S
C906   O950    1.408   .     S
C906   H924    1.108   .     S
C906   C1129   1.519   .     S
C907   H926    1.110   .     S
C907   H927    1.110   .     S
C907   H928    1.108   .     S
C908   H929    1.112   .     S
C908   H930    1.082   .     S
C908   C909    1.524   .     S
C908   O1025   1.407   .     S
C909   H932    1.112   .     S
C909   H1005   1.110   .     S
C909   H1007   1.101   .     S
C910   H936    1.096   .     S
C910   C912    1.532   .     S
C910   H935    1.106   .     S
C910   O1100   1.406   1_455 S
C911   H940    1.082   .     S
C911   C236    1.387   1_556 S
C912   H939    1.110   .     S
C912   H938    1.109   .     S
C912   H1085   1.107   1_455 S
C913   H941    1.083   .     S
C914   C1137   1.353   .     S
C914   F1143   1.363   .     S
C916   O956    1.290   .     A
C916   O958    1.304   .     A
C917   O959    1.303   .     A
C917   O957    1.293   .     A
C918   O960    1.381   .     S
F922   C1137   1.364   .     S
H931   C1057   1.110   1_455 S
H933   C1057   1.101   1_455 S
H937   C986    1.107   .     S
N947   Zn962   2.046   .     S
N947   N1022   1.278   .     S
N947   O1025   1.353   .     S
N948   Zn961   2.046   .     S
N948   N1095   1.278   1_455 S
N948   O1100   1.349   1_455 S
O949   Zn961   1.970   .     S
O951   N1095   1.353   1_455 S
O951   C1056   1.407   1_455 S
O952   C984    1.406   .     S
O952   N1022   1.349   .     S
O953   Zn962   1.970   .     S
O954   Zn962   1.993   .     S
O955   Zn961   1.993   .     S
O956   Zn961   2.001   .     S
O957   Zn962   2.001   .     S
O958   Zn962   2.011   .     S
O959   Zn961   2.011   .     S
C963   C988    1.408   .     S
C963   O1023   1.285   .     A
C963   O1028   1.304   .     A
C964   C966    1.402   .     A
C964   C975    1.395   .     A
C964   O1024   1.387   .     S
C965   C992    1.400   .     A
C965   C991    1.426   .     S
C965   C967    1.391   .     A
C966   C968    1.392   .     A
C966   C990    1.421   .     S
C967   C969    1.384   .     A
C967   F993    1.357   .     S
C968   F994    1.360   .     S
C968   C970    1.385   .     A
C969   C971    1.411   .     A
C969   C976    1.399   .     A
C970   C972    1.412   .     A
C970   C977    1.400   .     A
C971   C973    1.414   .     A
C972   C975    1.415   .     A
C972   C305    1.395   1_556 S
C973   C987    1.403   .     A
C973   C992    1.395   .     A
C974   O1029   1.304   .     A
C974   C989    1.409   .     S
C974   O1027   1.285   .     A
C975   C985    1.403   .     A
C976   H997    1.083   .     S
C977   H1008   1.084   .     S
C977   C321    1.388   1_556 S
C978   O1034   1.409   .     S
C978   H1017   1.114   .     S
C978   H1016   1.106   .     S
C979   H1018   1.111   .     S
C979   H1019   1.104   .     S
C979   C1200   1.518   .     S
C979   H1242   1.106   .     S
C980   H999    1.115   .     S
C980   O1024   1.408   .     S
C980   H998    1.108   .     S
C980   C1203   1.519   .     S
C981   H1000   1.110   .     S
C981   H1001   1.110   .     S
C981   H1002   1.108   .     S
C982   H1003   1.112   .     S
C982   H1004   1.082   .     S
C982   C983    1.524   .     S
C982   O1099   1.407   .     S
C983   H1006   1.112   .     S
C983   H1079   1.110   .     S
C983   H1081   1.101   .     S
C984   H1010   1.096   .     S
C984   C986    1.532   .     S
C984   H1009   1.106   .     S
C985   H1014   1.082   .     S
C985   C310    1.387   1_556 S
C986   H1013   1.110   .     S
C986   H1012   1.109   .     S
C987   H1015   1.083   .     S
C988   C1211   1.353   .     S
C988   F1217   1.363   .     S
C990   O1030   1.290   .     A
C990   O1032   1.304   .     A
C991   O1033   1.303   .     A
C991   O1031   1.293   .     A
C992   O1034   1.381   .     S
F996   C1211   1.364   .     S
H1011  C1060   1.107   .     S
N1021  Zn1036  2.046   .     S
N1021  N1096   1.278   .     S
N1021  O1099   1.353   .     S
N1022  Zn1035  2.046   .     S
O1023  Zn1035  1.970   .     S
O1026  C1058   1.406   .     S
O1026  N1096   1.349   .     S
O1027  Zn1036  1.970   .     S
O1028  Zn1036  1.993   .     S
O1029  Zn1035  1.993   .     S
O1030  Zn1035  2.001   .     S
O1031  Zn1036  2.001   .     S
O1032  Zn1036  2.011   .     S
O1033  Zn1035  2.011   .     S
C1037  C1062   1.408   .     S
C1037  O1097   1.285   .     A
C1037  O1102   1.304   .     A
C1038  C1040   1.402   .     A
C1038  C1049   1.395   .     A
C1038  O1098   1.387   .     S
C1039  C1066   1.400   .     A
C1039  C1065   1.426   .     S
C1039  C1041   1.391   .     A
C1040  C1042   1.392   .     A
C1040  C1064   1.421   .     S
C1041  C1043   1.384   .     A
C1041  F1067   1.357   .     S
C1042  F1068   1.360   .     S
C1042  C1044   1.385   .     A
C1043  C1045   1.411   .     A
C1043  C1050   1.399   .     A
C1044  C1046   1.412   .     A
C1044  C1051   1.400   .     A
C1045  C1047   1.414   .     A
C1046  C1049   1.415   .     A
C1046  C379    1.395   1_556 S
C1047  C1061   1.403   .     A
C1047  C1066   1.395   .     A
C1048  O1103   1.304   .     A
C1048  C1063   1.409   .     S
C1048  O1101   1.285   .     A
C1049  C1059   1.403   .     A
C1050  H1071   1.083   .     S
C1051  H1082   1.084   .     S
C1051  C395    1.388   1_556 S
C1052  O1108   1.409   .     S
C1052  H1091   1.114   .     S
C1052  H1090   1.106   .     S
C1053  H1092   1.111   .     S
C1053  H1093   1.104   .     S
C1053  C1274   1.518   .     S
C1053  H1316   1.106   .     S
C1054  H1073   1.115   .     S
C1054  O1098   1.408   .     S
C1054  H1072   1.108   .     S
C1054  C1277   1.519   .     S
C1055  H1074   1.110   .     S
C1055  H1075   1.110   .     S
C1055  H1076   1.108   .     S
C1056  H1077   1.112   .     S
C1056  H1078   1.082   .     S
C1056  C1057   1.524   .     S
C1056  O951    1.407   1_655 S
C1057  H1080   1.112   .     S
C1057  H931    1.110   1_655 S
C1057  H933    1.101   1_655 S
C1058  H1084   1.096   .     S
C1058  C1060   1.532   .     S
C1058  H1083   1.106   .     S
C1059  H1088   1.082   .     S
C1059  C384    1.387   1_556 S
C1060  H1087   1.110   .     S
C1060  H1086   1.109   .     S
C1061  H1089   1.083   .     S
C1062  C1285   1.353   .     S
C1062  F1291   1.363   .     S
C1064  O1104   1.290   .     A
C1064  O1106   1.304   .     A
C1065  O1107   1.303   .     A
C1065  O1105   1.293   .     A
C1066  O1108   1.381   .     S
F1070  C1285   1.364   .     S
H1085  C912    1.107   1_655 S
N1095  Zn1110  2.046   .     S
N1095  N948    1.278   1_655 S
N1095  O951    1.353   1_655 S
N1096  Zn1109  2.046   .     S
O1097  Zn1109  1.970   .     S
O1100  C910    1.406   1_655 S
O1100  N948    1.349   1_655 S
O1101  Zn1110  1.970   .     S
O1102  Zn1110  1.993   .     S
O1103  Zn1109  1.993   .     S
O1104  Zn1109  2.001   .     S
O1105  Zn1110  2.001   .     S
O1106  Zn1110  2.011   .     S
O1107  Zn1109  2.011   .     S
C1111  C1136   1.408   .     S
C1111  O1171   1.285   .     A
C1111  O1176   1.304   .     A
C1112  C1114   1.402   .     A
C1112  C1123   1.395   .     A
C1112  O1172   1.387   .     S
C1113  C1140   1.400   .     A
C1113  C1139   1.426   .     S
C1113  C1115   1.391   .     A
C1114  C1116   1.392   .     A
C1114  C1138   1.421   .     S
C1115  C1117   1.384   .     A
C1115  F1141   1.357   .     S
C1116  F1142   1.360   .     S
C1116  C1118   1.385   .     A
C1117  C1119   1.411   .     A
C1117  C1124   1.399   .     A
C1118  C1120   1.412   .     A
C1118  C1125   1.400   .     A
C1119  C1121   1.414   .     A
C1120  C1123   1.415   .     A
C1120  C453    1.395   1_556 S
C1121  C1135   1.403   .     A
C1121  C1140   1.395   .     A
C1122  O1177   1.304   .     A
C1122  C1137   1.409   .     S
C1122  O1175   1.285   .     A
C1123  C1133   1.403   .     A
C1124  H1145   1.083   .     S
C1125  H1156   1.084   .     S
C1125  C469    1.388   1_556 S
C1126  O1182   1.409   .     S
C1126  H1165   1.114   .     S
C1126  H1164   1.106   .     S
C1127  H1166   1.111   .     S
C1127  H1167   1.104   .     S
C1127  C682    1.518   1_565 S
C1127  H724    1.106   1_565 S
C1128  H1147   1.115   .     S
C1128  O1172   1.408   .     S
C1128  H1146   1.108   .     S
C1128  C685    1.519   1_565 S
C1129  H1148   1.110   .     S
C1129  H1149   1.110   .     S
C1129  H1150   1.108   .     S
C1130  H1151   1.112   .     S
C1130  H1152   1.082   .     S
C1130  C1131   1.524   .     S
C1130  O1247   1.407   .     S
C1131  H1154   1.112   .     S
C1131  H1227   1.110   .     S
C1131  H1229   1.101   .     S
C1132  H1158   1.096   .     S
C1132  C1134   1.532   .     S
C1132  H1157   1.106   .     S
C1132  O1322   1.406   1_455 S
C1133  H1162   1.082   .     S
C1133  C458    1.387   1_556 S
C1134  H1161   1.110   .     S
C1134  H1160   1.109   .     S
C1134  H1307   1.107   1_455 S
C1135  H1163   1.083   .     S
C1136  C693    1.353   1_565 S
C1136  F699    1.363   1_565 S
C1138  O1178   1.290   .     A
C1138  O1180   1.304   .     A
C1139  O1181   1.303   .     A
C1139  O1179   1.293   .     A
C1140  O1182   1.381   .     S
F1144  C693    1.364   1_565 S
H1153  C1279   1.110   1_455 S
H1155  C1279   1.101   1_455 S
H1159  C1208   1.107   .     S
N1169  Zn1184  2.046   .     S
N1169  N1244   1.278   .     S
N1169  O1247   1.353   .     S
N1170  Zn1183  2.046   .     S
N1170  N1317   1.278   1_455 S
N1170  O1322   1.349   1_455 S
O1171  Zn1183  1.970   .     S
O1173  N1317   1.353   1_455 S
O1173  C1278   1.407   1_455 S
O1174  C1206   1.406   .     S
O1174  N1244   1.349   .     S
O1175  Zn1184  1.970   .     S
O1176  Zn1184  1.993   .     S
O1177  Zn1183  1.993   .     S
O1178  Zn1183  2.001   .     S
O1179  Zn1184  2.001   .     S
O1180  Zn1184  2.011   .     S
O1181  Zn1183  2.011   .     S
C1185  C1210   1.408   .     S
C1185  O1245   1.285   .     A
C1185  O1250   1.304   .     A
C1186  C1188   1.402   .     A
C1186  C1197   1.395   .     A
C1186  O1246   1.387   .     S
C1187  C1214   1.400   .     A
C1187  C1213   1.426   .     S
C1187  C1189   1.391   .     A
C1188  C1190   1.392   .     A
C1188  C1212   1.421   .     S
C1189  C1191   1.384   .     A
C1189  F1215   1.357   .     S
C1190  F1216   1.360   .     S
C1190  C1192   1.385   .     A
C1191  C1193   1.411   .     A
C1191  C1198   1.399   .     A
C1192  C1194   1.412   .     A
C1192  C1199   1.400   .     A
C1193  C1195   1.414   .     A
C1194  C1197   1.415   .     A
C1194  C527    1.395   1_556 S
C1195  C1209   1.403   .     A
C1195  C1214   1.395   .     A
C1196  O1251   1.304   .     A
C1196  C1211   1.409   .     S
C1196  O1249   1.285   .     A
C1197  C1207   1.403   .     A
C1198  H1219   1.083   .     S
C1199  H1230   1.084   .     S
C1199  C543    1.388   1_556 S
C1200  O1256   1.409   .     S
C1200  H1239   1.114   .     S
C1200  H1238   1.106   .     S
C1201  H1240   1.111   .     S
C1201  H1241   1.104   .     S
C1201  C756    1.518   1_565 S
C1201  H798    1.106   1_565 S
C1202  H1221   1.115   .     S
C1202  O1246   1.408   .     S
C1202  H1220   1.108   .     S
C1202  C759    1.519   1_565 S
C1203  H1222   1.110   .     S
C1203  H1223   1.110   .     S
C1203  H1224   1.108   .     S
C1204  H1225   1.112   .     S
C1204  H1226   1.082   .     S
C1204  C1205   1.524   .     S
C1204  O1321   1.407   .     S
C1205  H1228   1.112   .     S
C1205  H1301   1.110   .     S
C1205  H1303   1.101   .     S
C1206  H1232   1.096   .     S
C1206  C1208   1.532   .     S
C1206  H1231   1.106   .     S
C1207  H1236   1.082   .     S
C1207  C532    1.387   1_556 S
C1208  H1235   1.110   .     S
C1208  H1234   1.109   .     S
C1209  H1237   1.083   .     S
C1210  C767    1.353   1_565 S
C1210  F773    1.363   1_565 S
C1212  O1252   1.290   .     A
C1212  O1254   1.304   .     A
C1213  O1255   1.303   .     A
C1213  O1253   1.293   .     A
C1214  O1256   1.381   .     S
F1218  C767    1.364   1_565 S
H1233  C1282   1.107   .     S
N1243  Zn1258  2.046   .     S
N1243  N1318   1.278   .     S
N1243  O1321   1.353   .     S
N1244  Zn1257  2.046   .     S
O1245  Zn1257  1.970   .     S
O1248  C1280   1.406   .     S
O1248  N1318   1.349   .     S
O1249  Zn1258  1.970   .     S
O1250  Zn1258  1.993   .     S
O1251  Zn1257  1.993   .     S
O1252  Zn1257  2.001   .     S
O1253  Zn1258  2.001   .     S
O1254  Zn1258  2.011   .     S
O1255  Zn1257  2.011   .     S
C1259  C1284   1.408   .     S
C1259  O1319   1.285   .     A
C1259  O1324   1.304   .     A
C1260  C1262   1.402   .     A
C1260  C1271   1.395   .     A
C1260  O1320   1.387   .     S
C1261  C1288   1.400   .     A
C1261  C1287   1.426   .     S
C1261  C1263   1.391   .     A
C1262  C1264   1.392   .     A
C1262  C1286   1.421   .     S
C1263  C1265   1.384   .     A
C1263  F1289   1.357   .     S
C1264  F1290   1.360   .     S
C1264  C1266   1.385   .     A
C1265  C1267   1.411   .     A
C1265  C1272   1.399   .     A
C1266  C1268   1.412   .     A
C1266  C1273   1.400   .     A
C1267  C1269   1.414   .     A
C1268  C1271   1.415   .     A
C1268  C601    1.395   1_556 S
C1269  C1283   1.403   .     A
C1269  C1288   1.395   .     A
C1270  O1325   1.304   .     A
C1270  C1285   1.409   .     S
C1270  O1323   1.285   .     A
C1271  C1281   1.403   .     A
C1272  H1293   1.083   .     S
C1273  H1304   1.084   .     S
C1273  C617    1.388   1_556 S
C1274  O1330   1.409   .     S
C1274  H1313   1.114   .     S
C1274  H1312   1.106   .     S
C1275  H1314   1.111   .     S
C1275  H1315   1.104   .     S
C1275  C830    1.518   1_565 S
C1275  H872    1.106   1_565 S
C1276  H1295   1.115   .     S
C1276  O1320   1.408   .     S
C1276  H1294   1.108   .     S
C1276  C833    1.519   1_565 S
C1277  H1296   1.110   .     S
C1277  H1297   1.110   .     S
C1277  H1298   1.108   .     S
C1278  H1299   1.112   .     S
C1278  H1300   1.082   .     S
C1278  C1279   1.524   .     S
C1278  O1173   1.407   1_655 S
C1279  H1302   1.112   .     S
C1279  H1153   1.110   1_655 S
C1279  H1155   1.101   1_655 S
C1280  H1306   1.096   .     S
C1280  C1282   1.532   .     S
C1280  H1305   1.106   .     S
C1281  H1310   1.082   .     S
C1281  C606    1.387   1_556 S
C1282  H1309   1.110   .     S
C1282  H1308   1.109   .     S
C1283  H1311   1.083   .     S
C1284  C841    1.353   1_565 S
C1284  F847    1.363   1_565 S
C1286  O1326   1.290   .     A
C1286  O1328   1.304   .     A
C1287  O1329   1.303   .     A
C1287  O1327   1.293   .     A
C1288  O1330   1.381   .     S
F1292  C841    1.364   1_565 S
H1307  C1134   1.107   1_655 S
N1317  Zn1332  2.046   .     S
N1317  N1170   1.278   1_655 S
N1317  O1173   1.353   1_655 S
N1318  Zn1331  2.046   .     S
O1319  Zn1331  1.970   .     S
O1322  C1132   1.406   1_655 S
O1322  N1170   1.349   1_655 S
O1323  Zn1332  1.970   .     S
O1324  Zn1332  1.993   .     S
O1325  Zn1331  1.993   .     S
O1326  Zn1331  2.001   .     S
O1327  Zn1332  2.001   .     S
O1328  Zn1332  2.011   .     S
O1329  Zn1331  2.011   .     S
