data_str_m3_o2_o10_pcu_sym.142
_audit_creation_date              2020-01-03
_audit_creation_method            'Materials Studio'
_symmetry_space_group_name_H-M    'P1'
_symmetry_Int_Tables_number       1
_symmetry_cell_setting            triclinic
loop_
_symmetry_equiv_pos_as_xyz
  x,y,z
_cell_length_a                    25.7529
_cell_length_b                    29.9780
_cell_length_c                    28.3899
_cell_angle_alpha                 89.3460
_cell_angle_beta                  98.3953
_cell_angle_gamma                 90.5065
loop_
_atom_site_label
_atom_site_type_symbol
_atom_site_fract_x
_atom_site_fract_y
_atom_site_fract_z
_atom_site_U_iso_or_equiv
_atom_site_adp_type
_atom_site_occupancy
C1     C     0.16770   0.16368   0.25045   0.00000  Uiso   1.00
C2     C     0.16654   0.33601   0.24968   0.00000  Uiso   1.00
C3     C     0.12452   0.23103   0.04750   0.00000  Uiso   1.00
C4     C     0.19391   0.28291   0.45039   0.00000  Uiso   1.00
C5     C     0.12602   0.23070   0.09724   0.00000  Uiso   1.00
C6     C     0.19437   0.28169   0.40100   0.00000  Uiso   1.00
C7     C     0.20638   0.27073   0.10713   0.00000  Uiso   1.00
C8     C     0.13695   0.21914   0.39374   0.00000  Uiso   1.00
C9     C     0.20747   0.26970   0.05754   0.00000  Uiso   1.00
C10    C     0.13807   0.21790   0.44390   0.00000  Uiso   1.00
C11    C     0.16593   0.25034   0.02652   0.00000  Uiso   1.00
C12    C     0.16596   0.25042   0.47310   0.00000  Uiso   1.00
C13    C     0.06706   0.24990   0.23760   0.00000  Uiso   1.00
C14    C     0.26628   0.25016   0.26240   0.00000  Uiso   1.00
C15    C     0.01208   0.24943   0.23089   0.00000  Uiso   1.00
C16    C     0.32126   0.25076   0.26909   0.00000  Uiso   1.00
C17    C     0.17575   0.04454   0.29275   0.00000  Uiso   1.00
C18    C     0.14551   0.45465   0.21246   0.00000  Uiso   1.00
C19    C     0.17256   0.09069   0.29411   0.00000  Uiso   1.00
C20    C     0.14088   0.40817   0.21162   0.00000  Uiso   1.00
C21    C     0.17292   0.11549   0.25154   0.00000  Uiso   1.00
C22    C     0.16964   0.38377   0.24907   0.00000  Uiso   1.00
C23    C     0.18036   0.09393   0.20943   0.00000  Uiso   1.00
C24    C     0.20392   0.40464   0.28499   0.00000  Uiso   1.00
C25    C     0.18511   0.04816   0.20893   0.00000  Uiso   1.00
C26    C     0.20956   0.45039   0.28439   0.00000  Uiso   1.00
C27    C     0.18177   0.02346   0.25031   0.00000  Uiso   1.00
C28    C     0.18002   0.47537   0.24843   0.00000  Uiso   1.00
H29    H     0.32500   0.24771   0.19462   0.00000  Uiso   1.00
H30    H     0.00840   0.25252   0.30534   0.00000  Uiso   1.00
H31    H     0.17184   0.02516   0.32452   0.00000  Uiso   1.00
H32    H     0.12108   0.47487   0.18640   0.00000  Uiso   1.00
H33    H     0.18216   0.11232   0.17663   0.00000  Uiso   1.00
H34    H     0.22683   0.38541   0.31309   0.00000  Uiso   1.00
H35    H     0.19022   0.03189   0.17604   0.00000  Uiso   1.00
H36    H     0.23637   0.46639   0.31221   0.00000  Uiso   1.00
H37    H     0.09066   0.21653   0.02589   0.00000  Uiso   1.00
H38    H     0.21510   0.30958   0.47028   0.00000  Uiso   1.00
H39    H     0.09422   0.21527   0.11266   0.00000  Uiso   1.00
H40    H     0.21654   0.30655   0.38428   0.00000  Uiso   1.00
H41    H     0.24128   0.28356   0.04393   0.00000  Uiso   1.00
H42    H     0.11803   0.19117   0.45984   0.00000  Uiso   1.00
N43    N     0.16667   0.24999   0.12624   0.00000  Uiso   1.00
N44    N     0.16667   0.25001   0.37377   0.00000  Uiso   1.00
O45    O     0.16667   0.18454   0.28974   0.00000  Uiso   1.00
O46    O     0.16666   0.31547   0.21026   0.00000  Uiso   1.00
O47    O     0.16667   0.18453   0.21026   0.00000  Uiso   1.00
O48    O     0.16666   0.31547   0.28974   0.00000  Uiso   1.00
O49    O     0.09058   0.25000   0.28045   0.00000  Uiso   1.00
O50    O     0.24275   0.25000   0.21955   0.00000  Uiso   1.00
O51    O     0.09058   0.24999   0.20097   0.00000  Uiso   1.00
O52    O     0.24275   0.25001   0.29903   0.00000  Uiso   1.00
Zn53   Zn    0.16667   0.25001   0.30307   0.00000  Uiso   1.00
Zn54   Zn    0.16667   0.25000   0.19693   0.00000  Uiso   1.00
O55    O     0.16430   0.11084   0.33593   0.00000  Uiso   1.00
C56    C     0.21236   0.11260   0.36690   0.00000  Uiso   1.00
H57    H     0.20630   0.13119   0.39920   0.00000  Uiso   1.00
H58    H     0.24307   0.13078   0.35024   0.00000  Uiso   1.00
H59    H     0.22613   0.07862   0.37853   0.00000  Uiso   1.00
O60    O     0.10490   0.38579   0.17849   0.00000  Uiso   1.00
C61    C     0.10365   0.40357   0.13205   0.00000  Uiso   1.00
H62    H     0.08816   0.37751   0.10617   0.00000  Uiso   1.00
H63    H     0.14332   0.41334   0.12408   0.00000  Uiso   1.00
H64    H     0.07639   0.43228   0.12645   0.00000  Uiso   1.00
O65    O     0.24719   0.29017   0.13705   0.00000  Uiso   1.00
C66    C     0.24598   0.33680   0.12994   0.00000  Uiso   1.00
H67    H     0.27385   0.35241   0.15866   0.00000  Uiso   1.00
H68    H     0.20642   0.35064   0.13203   0.00000  Uiso   1.00
H69    H     0.25888   0.34618   0.09546   0.00000  Uiso   1.00
O70    O     0.10914   0.18797   0.36405   0.00000  Uiso   1.00
C71    C     0.05790   0.18133   0.37509   0.00000  Uiso   1.00
H72    H     0.03301   0.16766   0.34323   0.00000  Uiso   1.00
H73    H     0.03944   0.21295   0.38427   0.00000  Uiso   1.00
H74    H     0.05808   0.15627   0.40421   0.00000  Uiso   1.00
C75    C     0.50103   0.16368   0.25045   0.00000  Uiso   1.00
C76    C     0.49987   0.33601   0.24968   0.00000  Uiso   1.00
C77    C     0.45785   0.23103   0.04750   0.00000  Uiso   1.00
C78    C     0.52724   0.28291   0.45039   0.00000  Uiso   1.00
C79    C     0.45936   0.23070   0.09724   0.00000  Uiso   1.00
C80    C     0.52770   0.28169   0.40100   0.00000  Uiso   1.00
C81    C     0.53971   0.27073   0.10713   0.00000  Uiso   1.00
C82    C     0.47028   0.21914   0.39374   0.00000  Uiso   1.00
C83    C     0.54081   0.26970   0.05754   0.00000  Uiso   1.00
C84    C     0.47140   0.21790   0.44390   0.00000  Uiso   1.00
C85    C     0.49926   0.25034   0.02652   0.00000  Uiso   1.00
C86    C     0.49929   0.25042   0.47310   0.00000  Uiso   1.00
C87    C     0.40039   0.24990   0.23760   0.00000  Uiso   1.00
C88    C     0.59962   0.25016   0.26240   0.00000  Uiso   1.00
C89    C     0.34542   0.24943   0.23089   0.00000  Uiso   1.00
C90    C     0.65460   0.25076   0.26909   0.00000  Uiso   1.00
C91    C     0.50909   0.04454   0.29275   0.00000  Uiso   1.00
C92    C     0.47884   0.45465   0.21246   0.00000  Uiso   1.00
C93    C     0.50589   0.09069   0.29411   0.00000  Uiso   1.00
C94    C     0.47422   0.40817   0.21162   0.00000  Uiso   1.00
C95    C     0.50625   0.11549   0.25154   0.00000  Uiso   1.00
C96    C     0.50298   0.38377   0.24907   0.00000  Uiso   1.00
C97    C     0.51370   0.09393   0.20943   0.00000  Uiso   1.00
C98    C     0.53726   0.40464   0.28499   0.00000  Uiso   1.00
C99    C     0.51845   0.04816   0.20893   0.00000  Uiso   1.00
C100   C     0.54290   0.45039   0.28439   0.00000  Uiso   1.00
C101   C     0.51510   0.02346   0.25031   0.00000  Uiso   1.00
C102   C     0.51335   0.47537   0.24843   0.00000  Uiso   1.00
H103   H     0.65833   0.24771   0.19462   0.00000  Uiso   1.00
H104   H     0.34173   0.25252   0.30534   0.00000  Uiso   1.00
H105   H     0.50517   0.02516   0.32452   0.00000  Uiso   1.00
H106   H     0.45441   0.47487   0.18640   0.00000  Uiso   1.00
H107   H     0.51550   0.11232   0.17663   0.00000  Uiso   1.00
H108   H     0.56016   0.38541   0.31309   0.00000  Uiso   1.00
H109   H     0.52355   0.03189   0.17604   0.00000  Uiso   1.00
H110   H     0.56970   0.46639   0.31221   0.00000  Uiso   1.00
H111   H     0.42399   0.21653   0.02589   0.00000  Uiso   1.00
H112   H     0.54843   0.30958   0.47028   0.00000  Uiso   1.00
H113   H     0.42755   0.21527   0.11266   0.00000  Uiso   1.00
H114   H     0.54987   0.30655   0.38428   0.00000  Uiso   1.00
H115   H     0.57462   0.28356   0.04393   0.00000  Uiso   1.00
H116   H     0.45136   0.19117   0.45984   0.00000  Uiso   1.00
N117   N     0.50000   0.24999   0.12624   0.00000  Uiso   1.00
N118   N     0.50000   0.25001   0.37377   0.00000  Uiso   1.00
O119   O     0.50000   0.18454   0.28974   0.00000  Uiso   1.00
O120   O     0.50000   0.31547   0.21026   0.00000  Uiso   1.00
O121   O     0.50000   0.18453   0.21026   0.00000  Uiso   1.00
O122   O     0.50000   0.31547   0.28974   0.00000  Uiso   1.00
O123   O     0.42392   0.25000   0.28045   0.00000  Uiso   1.00
O124   O     0.57608   0.25000   0.21955   0.00000  Uiso   1.00
O125   O     0.42392   0.24999   0.20097   0.00000  Uiso   1.00
O126   O     0.57608   0.25001   0.29903   0.00000  Uiso   1.00
Zn127  Zn    0.50000   0.25001   0.30307   0.00000  Uiso   1.00
Zn128  Zn    0.50000   0.25000   0.19693   0.00000  Uiso   1.00
O129   O     0.49763   0.11084   0.33593   0.00000  Uiso   1.00
C130   C     0.54569   0.11260   0.36690   0.00000  Uiso   1.00
H131   H     0.53964   0.13119   0.39920   0.00000  Uiso   1.00
H132   H     0.57640   0.13078   0.35024   0.00000  Uiso   1.00
H133   H     0.55947   0.07862   0.37853   0.00000  Uiso   1.00
O134   O     0.43824   0.38579   0.17849   0.00000  Uiso   1.00
C135   C     0.43698   0.40357   0.13205   0.00000  Uiso   1.00
H136   H     0.42150   0.37751   0.10617   0.00000  Uiso   1.00
H137   H     0.47666   0.41334   0.12408   0.00000  Uiso   1.00
H138   H     0.40973   0.43228   0.12645   0.00000  Uiso   1.00
O139   O     0.58053   0.29017   0.13705   0.00000  Uiso   1.00
C140   C     0.57931   0.33680   0.12994   0.00000  Uiso   1.00
H141   H     0.60718   0.35241   0.15866   0.00000  Uiso   1.00
H142   H     0.53976   0.35064   0.13203   0.00000  Uiso   1.00
H143   H     0.59221   0.34618   0.09546   0.00000  Uiso   1.00
O144   O     0.44248   0.18797   0.36405   0.00000  Uiso   1.00
C145   C     0.39123   0.18133   0.37509   0.00000  Uiso   1.00
H146   H     0.36634   0.16766   0.34323   0.00000  Uiso   1.00
H147   H     0.37278   0.21295   0.38427   0.00000  Uiso   1.00
H148   H     0.39141   0.15627   0.40421   0.00000  Uiso   1.00
C149   C     0.83436   0.16368   0.25045   0.00000  Uiso   1.00
C150   C     0.83320   0.33601   0.24968   0.00000  Uiso   1.00
C151   C     0.79118   0.23103   0.04750   0.00000  Uiso   1.00
C152   C     0.86057   0.28291   0.45039   0.00000  Uiso   1.00
C153   C     0.79269   0.23070   0.09724   0.00000  Uiso   1.00
C154   C     0.86104   0.28169   0.40100   0.00000  Uiso   1.00
C155   C     0.87305   0.27073   0.10713   0.00000  Uiso   1.00
C156   C     0.80361   0.21914   0.39374   0.00000  Uiso   1.00
C157   C     0.87414   0.26970   0.05754   0.00000  Uiso   1.00
C158   C     0.80474   0.21790   0.44390   0.00000  Uiso   1.00
C159   C     0.83259   0.25034   0.02652   0.00000  Uiso   1.00
C160   C     0.83263   0.25042   0.47310   0.00000  Uiso   1.00
C161   C     0.73372   0.24990   0.23760   0.00000  Uiso   1.00
C162   C     0.93295   0.25016   0.26240   0.00000  Uiso   1.00
C163   C     0.67875   0.24943   0.23089   0.00000  Uiso   1.00
C164   C     0.98793   0.25076   0.26909   0.00000  Uiso   1.00
C165   C     0.84242   0.04454   0.29275   0.00000  Uiso   1.00
C166   C     0.81217   0.45465   0.21246   0.00000  Uiso   1.00
C167   C     0.83923   0.09069   0.29411   0.00000  Uiso   1.00
C168   C     0.80755   0.40817   0.21162   0.00000  Uiso   1.00
C169   C     0.83959   0.11549   0.25154   0.00000  Uiso   1.00
C170   C     0.83631   0.38377   0.24907   0.00000  Uiso   1.00
C171   C     0.84703   0.09393   0.20943   0.00000  Uiso   1.00
C172   C     0.87059   0.40464   0.28499   0.00000  Uiso   1.00
C173   C     0.85178   0.04816   0.20893   0.00000  Uiso   1.00
C174   C     0.87623   0.45039   0.28439   0.00000  Uiso   1.00
C175   C     0.84843   0.02346   0.25031   0.00000  Uiso   1.00
C176   C     0.84669   0.47537   0.24843   0.00000  Uiso   1.00
H177   H     0.99167   0.24771   0.19462   0.00000  Uiso   1.00
H178   H     0.67506   0.25252   0.30534   0.00000  Uiso   1.00
H179   H     0.83851   0.02516   0.32452   0.00000  Uiso   1.00
H180   H     0.78775   0.47487   0.18640   0.00000  Uiso   1.00
H181   H     0.84883   0.11232   0.17663   0.00000  Uiso   1.00
H182   H     0.89349   0.38541   0.31309   0.00000  Uiso   1.00
H183   H     0.85688   0.03189   0.17604   0.00000  Uiso   1.00
H184   H     0.90303   0.46639   0.31221   0.00000  Uiso   1.00
H185   H     0.75732   0.21653   0.02589   0.00000  Uiso   1.00
H186   H     0.88177   0.30958   0.47028   0.00000  Uiso   1.00
H187   H     0.76088   0.21527   0.11266   0.00000  Uiso   1.00
H188   H     0.88321   0.30655   0.38428   0.00000  Uiso   1.00
H189   H     0.90795   0.28356   0.04393   0.00000  Uiso   1.00
H190   H     0.78470   0.19117   0.45984   0.00000  Uiso   1.00
N191   N     0.83333   0.24999   0.12624   0.00000  Uiso   1.00
N192   N     0.83333   0.25001   0.37377   0.00000  Uiso   1.00
O193   O     0.83334   0.18454   0.28974   0.00000  Uiso   1.00
O194   O     0.83333   0.31547   0.21026   0.00000  Uiso   1.00
O195   O     0.83334   0.18453   0.21026   0.00000  Uiso   1.00
O196   O     0.83333   0.31547   0.28974   0.00000  Uiso   1.00
O197   O     0.75725   0.25000   0.28045   0.00000  Uiso   1.00
O198   O     0.90942   0.25000   0.21955   0.00000  Uiso   1.00
O199   O     0.75725   0.24999   0.20097   0.00000  Uiso   1.00
O200   O     0.90942   0.25001   0.29903   0.00000  Uiso   1.00
Zn201  Zn    0.83333   0.25001   0.30307   0.00000  Uiso   1.00
Zn202  Zn    0.83333   0.25000   0.19693   0.00000  Uiso   1.00
O203   O     0.83096   0.11084   0.33593   0.00000  Uiso   1.00
C204   C     0.87903   0.11260   0.36690   0.00000  Uiso   1.00
H205   H     0.87297   0.13119   0.39920   0.00000  Uiso   1.00
H206   H     0.90973   0.13078   0.35024   0.00000  Uiso   1.00
H207   H     0.89280   0.07862   0.37853   0.00000  Uiso   1.00
O208   O     0.77157   0.38579   0.17849   0.00000  Uiso   1.00
C209   C     0.77031   0.40357   0.13205   0.00000  Uiso   1.00
H210   H     0.75483   0.37751   0.10617   0.00000  Uiso   1.00
H211   H     0.80999   0.41334   0.12408   0.00000  Uiso   1.00
H212   H     0.74306   0.43228   0.12645   0.00000  Uiso   1.00
O213   O     0.91386   0.29017   0.13705   0.00000  Uiso   1.00
C214   C     0.91264   0.33680   0.12994   0.00000  Uiso   1.00
H215   H     0.94052   0.35241   0.15866   0.00000  Uiso   1.00
H216   H     0.87309   0.35064   0.13203   0.00000  Uiso   1.00
H217   H     0.92555   0.34618   0.09546   0.00000  Uiso   1.00
O218   O     0.77581   0.18797   0.36405   0.00000  Uiso   1.00
C219   C     0.72457   0.18133   0.37509   0.00000  Uiso   1.00
H220   H     0.69968   0.16766   0.34323   0.00000  Uiso   1.00
H221   H     0.70611   0.21295   0.38427   0.00000  Uiso   1.00
H222   H     0.72475   0.15627   0.40421   0.00000  Uiso   1.00
C223   C     0.16770   0.66368   0.25045   0.00000  Uiso   1.00
C224   C     0.16654   0.83601   0.24968   0.00000  Uiso   1.00
C225   C     0.12452   0.73103   0.04750   0.00000  Uiso   1.00
C226   C     0.19391   0.78291   0.45039   0.00000  Uiso   1.00
C227   C     0.12602   0.73070   0.09724   0.00000  Uiso   1.00
C228   C     0.19437   0.78169   0.40100   0.00000  Uiso   1.00
C229   C     0.20638   0.77073   0.10713   0.00000  Uiso   1.00
C230   C     0.13695   0.71914   0.39374   0.00000  Uiso   1.00
C231   C     0.20747   0.76970   0.05754   0.00000  Uiso   1.00
C232   C     0.13807   0.71790   0.44390   0.00000  Uiso   1.00
C233   C     0.16593   0.75034   0.02652   0.00000  Uiso   1.00
C234   C     0.16596   0.75042   0.47310   0.00000  Uiso   1.00
C235   C     0.06706   0.74990   0.23760   0.00000  Uiso   1.00
C236   C     0.26628   0.75016   0.26240   0.00000  Uiso   1.00
C237   C     0.01208   0.74943   0.23089   0.00000  Uiso   1.00
C238   C     0.32126   0.75076   0.26909   0.00000  Uiso   1.00
C239   C     0.17575   0.54454   0.29275   0.00000  Uiso   1.00
C240   C     0.14551   0.95465   0.21246   0.00000  Uiso   1.00
C241   C     0.17256   0.59069   0.29411   0.00000  Uiso   1.00
C242   C     0.14088   0.90817   0.21162   0.00000  Uiso   1.00
C243   C     0.17292   0.61549   0.25154   0.00000  Uiso   1.00
C244   C     0.16964   0.88377   0.24907   0.00000  Uiso   1.00
C245   C     0.18036   0.59393   0.20943   0.00000  Uiso   1.00
C246   C     0.20392   0.90464   0.28499   0.00000  Uiso   1.00
C247   C     0.18511   0.54816   0.20893   0.00000  Uiso   1.00
C248   C     0.20956   0.95039   0.28439   0.00000  Uiso   1.00
C249   C     0.18177   0.52346   0.25031   0.00000  Uiso   1.00
C250   C     0.18002   0.97537   0.24843   0.00000  Uiso   1.00
H251   H     0.32500   0.74771   0.19462   0.00000  Uiso   1.00
H252   H     0.00840   0.75252   0.30534   0.00000  Uiso   1.00
H253   H     0.17184   0.52516   0.32452   0.00000  Uiso   1.00
H254   H     0.12108   0.97487   0.18640   0.00000  Uiso   1.00
H255   H     0.18216   0.61232   0.17663   0.00000  Uiso   1.00
H256   H     0.22683   0.88541   0.31309   0.00000  Uiso   1.00
H257   H     0.19022   0.53189   0.17604   0.00000  Uiso   1.00
H258   H     0.23637   0.96639   0.31221   0.00000  Uiso   1.00
H259   H     0.09066   0.71653   0.02589   0.00000  Uiso   1.00
H260   H     0.21510   0.80958   0.47028   0.00000  Uiso   1.00
H261   H     0.09422   0.71527   0.11266   0.00000  Uiso   1.00
H262   H     0.21654   0.80655   0.38428   0.00000  Uiso   1.00
H263   H     0.24128   0.78356   0.04393   0.00000  Uiso   1.00
H264   H     0.11803   0.69117   0.45984   0.00000  Uiso   1.00
N265   N     0.16667   0.74999   0.12624   0.00000  Uiso   1.00
N266   N     0.16667   0.75001   0.37377   0.00000  Uiso   1.00
O267   O     0.16667   0.68454   0.28974   0.00000  Uiso   1.00
O268   O     0.16666   0.81547   0.21026   0.00000  Uiso   1.00
O269   O     0.16667   0.68453   0.21026   0.00000  Uiso   1.00
O270   O     0.16666   0.81547   0.28974   0.00000  Uiso   1.00
O271   O     0.09058   0.75000   0.28045   0.00000  Uiso   1.00
O272   O     0.24275   0.75000   0.21955   0.00000  Uiso   1.00
O273   O     0.09058   0.74999   0.20097   0.00000  Uiso   1.00
O274   O     0.24275   0.75001   0.29903   0.00000  Uiso   1.00
Zn275  Zn    0.16667   0.75001   0.30307   0.00000  Uiso   1.00
Zn276  Zn    0.16667   0.75000   0.19693   0.00000  Uiso   1.00
O277   O     0.16430   0.61084   0.33593   0.00000  Uiso   1.00
C278   C     0.21236   0.61260   0.36690   0.00000  Uiso   1.00
H279   H     0.20630   0.63119   0.39920   0.00000  Uiso   1.00
H280   H     0.24307   0.63078   0.35024   0.00000  Uiso   1.00
H281   H     0.22613   0.57862   0.37853   0.00000  Uiso   1.00
O282   O     0.10490   0.88579   0.17849   0.00000  Uiso   1.00
C283   C     0.10365   0.90357   0.13205   0.00000  Uiso   1.00
H284   H     0.08816   0.87751   0.10617   0.00000  Uiso   1.00
H285   H     0.14332   0.91334   0.12408   0.00000  Uiso   1.00
H286   H     0.07639   0.93228   0.12645   0.00000  Uiso   1.00
O287   O     0.24719   0.79017   0.13705   0.00000  Uiso   1.00
C288   C     0.24598   0.83680   0.12994   0.00000  Uiso   1.00
H289   H     0.27385   0.85241   0.15866   0.00000  Uiso   1.00
H290   H     0.20642   0.85064   0.13203   0.00000  Uiso   1.00
H291   H     0.25888   0.84618   0.09546   0.00000  Uiso   1.00
O292   O     0.10914   0.68797   0.36405   0.00000  Uiso   1.00
C293   C     0.05790   0.68133   0.37509   0.00000  Uiso   1.00
H294   H     0.03301   0.66766   0.34323   0.00000  Uiso   1.00
H295   H     0.03944   0.71295   0.38427   0.00000  Uiso   1.00
H296   H     0.05808   0.65627   0.40421   0.00000  Uiso   1.00
C297   C     0.50103   0.66368   0.25045   0.00000  Uiso   1.00
C298   C     0.49987   0.83601   0.24968   0.00000  Uiso   1.00
C299   C     0.45785   0.73103   0.04750   0.00000  Uiso   1.00
C300   C     0.52724   0.78291   0.45039   0.00000  Uiso   1.00
C301   C     0.45936   0.73070   0.09724   0.00000  Uiso   1.00
C302   C     0.52770   0.78169   0.40100   0.00000  Uiso   1.00
C303   C     0.53971   0.77073   0.10713   0.00000  Uiso   1.00
C304   C     0.47028   0.71914   0.39374   0.00000  Uiso   1.00
C305   C     0.54081   0.76970   0.05754   0.00000  Uiso   1.00
C306   C     0.47140   0.71790   0.44390   0.00000  Uiso   1.00
C307   C     0.49926   0.75034   0.02652   0.00000  Uiso   1.00
C308   C     0.49929   0.75042   0.47310   0.00000  Uiso   1.00
C309   C     0.40039   0.74990   0.23760   0.00000  Uiso   1.00
C310   C     0.59962   0.75016   0.26240   0.00000  Uiso   1.00
C311   C     0.34542   0.74943   0.23089   0.00000  Uiso   1.00
C312   C     0.65460   0.75076   0.26909   0.00000  Uiso   1.00
C313   C     0.50909   0.54454   0.29275   0.00000  Uiso   1.00
C314   C     0.47884   0.95465   0.21246   0.00000  Uiso   1.00
C315   C     0.50589   0.59069   0.29411   0.00000  Uiso   1.00
C316   C     0.47422   0.90817   0.21162   0.00000  Uiso   1.00
C317   C     0.50625   0.61549   0.25154   0.00000  Uiso   1.00
C318   C     0.50298   0.88377   0.24907   0.00000  Uiso   1.00
C319   C     0.51370   0.59393   0.20943   0.00000  Uiso   1.00
C320   C     0.53726   0.90464   0.28499   0.00000  Uiso   1.00
C321   C     0.51845   0.54816   0.20893   0.00000  Uiso   1.00
C322   C     0.54290   0.95039   0.28439   0.00000  Uiso   1.00
C323   C     0.51510   0.52346   0.25031   0.00000  Uiso   1.00
C324   C     0.51335   0.97537   0.24843   0.00000  Uiso   1.00
H325   H     0.65833   0.74771   0.19462   0.00000  Uiso   1.00
H326   H     0.34173   0.75252   0.30534   0.00000  Uiso   1.00
H327   H     0.50517   0.52516   0.32452   0.00000  Uiso   1.00
H328   H     0.45441   0.97487   0.18640   0.00000  Uiso   1.00
H329   H     0.51550   0.61232   0.17663   0.00000  Uiso   1.00
H330   H     0.56016   0.88541   0.31309   0.00000  Uiso   1.00
H331   H     0.52355   0.53189   0.17604   0.00000  Uiso   1.00
H332   H     0.56970   0.96639   0.31221   0.00000  Uiso   1.00
H333   H     0.42399   0.71653   0.02589   0.00000  Uiso   1.00
H334   H     0.54843   0.80958   0.47028   0.00000  Uiso   1.00
H335   H     0.42755   0.71527   0.11266   0.00000  Uiso   1.00
H336   H     0.54987   0.80655   0.38428   0.00000  Uiso   1.00
H337   H     0.57462   0.78356   0.04393   0.00000  Uiso   1.00
H338   H     0.45136   0.69117   0.45984   0.00000  Uiso   1.00
N339   N     0.50000   0.74999   0.12624   0.00000  Uiso   1.00
N340   N     0.50000   0.75001   0.37377   0.00000  Uiso   1.00
O341   O     0.50000   0.68454   0.28974   0.00000  Uiso   1.00
O342   O     0.50000   0.81547   0.21026   0.00000  Uiso   1.00
O343   O     0.50000   0.68453   0.21026   0.00000  Uiso   1.00
O344   O     0.50000   0.81547   0.28974   0.00000  Uiso   1.00
O345   O     0.42392   0.75000   0.28045   0.00000  Uiso   1.00
O346   O     0.57608   0.75000   0.21955   0.00000  Uiso   1.00
O347   O     0.42392   0.74999   0.20097   0.00000  Uiso   1.00
O348   O     0.57608   0.75001   0.29903   0.00000  Uiso   1.00
Zn349  Zn    0.50000   0.75001   0.30307   0.00000  Uiso   1.00
Zn350  Zn    0.50000   0.75000   0.19693   0.00000  Uiso   1.00
O351   O     0.49763   0.61084   0.33593   0.00000  Uiso   1.00
C352   C     0.54569   0.61260   0.36690   0.00000  Uiso   1.00
H353   H     0.53964   0.63119   0.39920   0.00000  Uiso   1.00
H354   H     0.57640   0.63078   0.35024   0.00000  Uiso   1.00
H355   H     0.55947   0.57862   0.37853   0.00000  Uiso   1.00
O356   O     0.43824   0.88579   0.17849   0.00000  Uiso   1.00
C357   C     0.43698   0.90357   0.13205   0.00000  Uiso   1.00
H358   H     0.42150   0.87751   0.10617   0.00000  Uiso   1.00
H359   H     0.47666   0.91334   0.12408   0.00000  Uiso   1.00
H360   H     0.40973   0.93228   0.12645   0.00000  Uiso   1.00
O361   O     0.58053   0.79017   0.13705   0.00000  Uiso   1.00
C362   C     0.57931   0.83680   0.12994   0.00000  Uiso   1.00
H363   H     0.60718   0.85241   0.15866   0.00000  Uiso   1.00
H364   H     0.53976   0.85064   0.13203   0.00000  Uiso   1.00
H365   H     0.59221   0.84618   0.09546   0.00000  Uiso   1.00
O366   O     0.44248   0.68797   0.36405   0.00000  Uiso   1.00
C367   C     0.39123   0.68133   0.37509   0.00000  Uiso   1.00
H368   H     0.36634   0.66766   0.34323   0.00000  Uiso   1.00
H369   H     0.37278   0.71295   0.38427   0.00000  Uiso   1.00
H370   H     0.39141   0.65627   0.40421   0.00000  Uiso   1.00
C371   C     0.83436   0.66368   0.25045   0.00000  Uiso   1.00
C372   C     0.83320   0.83601   0.24968   0.00000  Uiso   1.00
C373   C     0.79118   0.73103   0.04750   0.00000  Uiso   1.00
C374   C     0.86057   0.78291   0.45039   0.00000  Uiso   1.00
C375   C     0.79269   0.73070   0.09724   0.00000  Uiso   1.00
C376   C     0.86104   0.78169   0.40100   0.00000  Uiso   1.00
C377   C     0.87305   0.77073   0.10713   0.00000  Uiso   1.00
C378   C     0.80361   0.71914   0.39374   0.00000  Uiso   1.00
C379   C     0.87414   0.76970   0.05754   0.00000  Uiso   1.00
C380   C     0.80474   0.71790   0.44390   0.00000  Uiso   1.00
C381   C     0.83259   0.75034   0.02652   0.00000  Uiso   1.00
C382   C     0.83263   0.75042   0.47310   0.00000  Uiso   1.00
C383   C     0.73372   0.74990   0.23760   0.00000  Uiso   1.00
C384   C     0.93295   0.75016   0.26240   0.00000  Uiso   1.00
C385   C     0.67875   0.74943   0.23089   0.00000  Uiso   1.00
C386   C     0.98793   0.75076   0.26909   0.00000  Uiso   1.00
C387   C     0.84242   0.54454   0.29275   0.00000  Uiso   1.00
C388   C     0.81217   0.95465   0.21246   0.00000  Uiso   1.00
C389   C     0.83923   0.59069   0.29411   0.00000  Uiso   1.00
C390   C     0.80755   0.90817   0.21162   0.00000  Uiso   1.00
C391   C     0.83959   0.61549   0.25154   0.00000  Uiso   1.00
C392   C     0.83631   0.88377   0.24907   0.00000  Uiso   1.00
C393   C     0.84703   0.59393   0.20943   0.00000  Uiso   1.00
C394   C     0.87059   0.90464   0.28499   0.00000  Uiso   1.00
C395   C     0.85178   0.54816   0.20893   0.00000  Uiso   1.00
C396   C     0.87623   0.95039   0.28439   0.00000  Uiso   1.00
C397   C     0.84843   0.52346   0.25031   0.00000  Uiso   1.00
C398   C     0.84669   0.97537   0.24843   0.00000  Uiso   1.00
H399   H     0.99167   0.74771   0.19462   0.00000  Uiso   1.00
H400   H     0.67506   0.75252   0.30534   0.00000  Uiso   1.00
H401   H     0.83851   0.52516   0.32452   0.00000  Uiso   1.00
H402   H     0.78775   0.97487   0.18640   0.00000  Uiso   1.00
H403   H     0.84883   0.61232   0.17663   0.00000  Uiso   1.00
H404   H     0.89349   0.88541   0.31309   0.00000  Uiso   1.00
H405   H     0.85688   0.53189   0.17604   0.00000  Uiso   1.00
H406   H     0.90303   0.96639   0.31221   0.00000  Uiso   1.00
H407   H     0.75732   0.71653   0.02589   0.00000  Uiso   1.00
H408   H     0.88177   0.80958   0.47028   0.00000  Uiso   1.00
H409   H     0.76088   0.71527   0.11266   0.00000  Uiso   1.00
H410   H     0.88321   0.80655   0.38428   0.00000  Uiso   1.00
H411   H     0.90795   0.78356   0.04393   0.00000  Uiso   1.00
H412   H     0.78470   0.69117   0.45984   0.00000  Uiso   1.00
N413   N     0.83333   0.74999   0.12624   0.00000  Uiso   1.00
N414   N     0.83333   0.75001   0.37377   0.00000  Uiso   1.00
O415   O     0.83334   0.68454   0.28974   0.00000  Uiso   1.00
O416   O     0.83333   0.81547   0.21026   0.00000  Uiso   1.00
O417   O     0.83334   0.68453   0.21026   0.00000  Uiso   1.00
O418   O     0.83333   0.81547   0.28974   0.00000  Uiso   1.00
O419   O     0.75725   0.75000   0.28045   0.00000  Uiso   1.00
O420   O     0.90942   0.75000   0.21955   0.00000  Uiso   1.00
O421   O     0.75725   0.74999   0.20097   0.00000  Uiso   1.00
O422   O     0.90942   0.75001   0.29903   0.00000  Uiso   1.00
Zn423  Zn    0.83333   0.75001   0.30307   0.00000  Uiso   1.00
Zn424  Zn    0.83333   0.75000   0.19693   0.00000  Uiso   1.00
O425   O     0.83096   0.61084   0.33593   0.00000  Uiso   1.00
C426   C     0.87903   0.61260   0.36690   0.00000  Uiso   1.00
H427   H     0.87297   0.63119   0.39920   0.00000  Uiso   1.00
H428   H     0.90973   0.63078   0.35024   0.00000  Uiso   1.00
H429   H     0.89280   0.57862   0.37853   0.00000  Uiso   1.00
O430   O     0.77157   0.88579   0.17849   0.00000  Uiso   1.00
C431   C     0.77031   0.90357   0.13205   0.00000  Uiso   1.00
H432   H     0.75483   0.87751   0.10617   0.00000  Uiso   1.00
H433   H     0.80999   0.91334   0.12408   0.00000  Uiso   1.00
H434   H     0.74306   0.93228   0.12645   0.00000  Uiso   1.00
O435   O     0.91386   0.79017   0.13705   0.00000  Uiso   1.00
C436   C     0.91264   0.83680   0.12994   0.00000  Uiso   1.00
H437   H     0.94052   0.85241   0.15866   0.00000  Uiso   1.00
H438   H     0.87309   0.85064   0.13203   0.00000  Uiso   1.00
H439   H     0.92555   0.84618   0.09546   0.00000  Uiso   1.00
O440   O     0.77581   0.68797   0.36405   0.00000  Uiso   1.00
C441   C     0.72457   0.68133   0.37509   0.00000  Uiso   1.00
H442   H     0.69968   0.66766   0.34323   0.00000  Uiso   1.00
H443   H     0.70611   0.71295   0.38427   0.00000  Uiso   1.00
H444   H     0.72475   0.65627   0.40421   0.00000  Uiso   1.00
C445   C     0.16770   0.16368   0.75045   0.00000  Uiso   1.00
C446   C     0.16654   0.33601   0.74968   0.00000  Uiso   1.00
C447   C     0.12452   0.23103   0.54750   0.00000  Uiso   1.00
C448   C     0.19391   0.28291   0.95039   0.00000  Uiso   1.00
C449   C     0.12602   0.23070   0.59724   0.00000  Uiso   1.00
C450   C     0.19437   0.28169   0.90100   0.00000  Uiso   1.00
C451   C     0.20638   0.27073   0.60713   0.00000  Uiso   1.00
C452   C     0.13695   0.21914   0.89374   0.00000  Uiso   1.00
C453   C     0.20747   0.26970   0.55754   0.00000  Uiso   1.00
C454   C     0.13807   0.21790   0.94390   0.00000  Uiso   1.00
C455   C     0.16593   0.25034   0.52652   0.00000  Uiso   1.00
C456   C     0.16596   0.25042   0.97310   0.00000  Uiso   1.00
C457   C     0.06706   0.24990   0.73760   0.00000  Uiso   1.00
C458   C     0.26628   0.25016   0.76240   0.00000  Uiso   1.00
C459   C     0.01208   0.24943   0.73089   0.00000  Uiso   1.00
C460   C     0.32126   0.25076   0.76909   0.00000  Uiso   1.00
C461   C     0.17575   0.04454   0.79275   0.00000  Uiso   1.00
C462   C     0.14551   0.45465   0.71246   0.00000  Uiso   1.00
C463   C     0.17256   0.09069   0.79411   0.00000  Uiso   1.00
C464   C     0.14088   0.40817   0.71162   0.00000  Uiso   1.00
C465   C     0.17292   0.11549   0.75154   0.00000  Uiso   1.00
C466   C     0.16964   0.38377   0.74907   0.00000  Uiso   1.00
C467   C     0.18036   0.09393   0.70943   0.00000  Uiso   1.00
C468   C     0.20392   0.40464   0.78499   0.00000  Uiso   1.00
C469   C     0.18511   0.04816   0.70893   0.00000  Uiso   1.00
C470   C     0.20956   0.45039   0.78439   0.00000  Uiso   1.00
C471   C     0.18177   0.02346   0.75031   0.00000  Uiso   1.00
C472   C     0.18002   0.47537   0.74843   0.00000  Uiso   1.00
H473   H     0.32500   0.24771   0.69462   0.00000  Uiso   1.00
H474   H     0.00840   0.25252   0.80534   0.00000  Uiso   1.00
H475   H     0.17184   0.02516   0.82452   0.00000  Uiso   1.00
H476   H     0.12108   0.47487   0.68640   0.00000  Uiso   1.00
H477   H     0.18216   0.11232   0.67663   0.00000  Uiso   1.00
H478   H     0.22683   0.38541   0.81309   0.00000  Uiso   1.00
H479   H     0.19022   0.03189   0.67604   0.00000  Uiso   1.00
H480   H     0.23637   0.46639   0.81221   0.00000  Uiso   1.00
H481   H     0.09066   0.21653   0.52589   0.00000  Uiso   1.00
H482   H     0.21510   0.30958   0.97028   0.00000  Uiso   1.00
H483   H     0.09422   0.21527   0.61266   0.00000  Uiso   1.00
H484   H     0.21654   0.30655   0.88428   0.00000  Uiso   1.00
H485   H     0.24128   0.28356   0.54393   0.00000  Uiso   1.00
H486   H     0.11803   0.19117   0.95984   0.00000  Uiso   1.00
N487   N     0.16667   0.24999   0.62624   0.00000  Uiso   1.00
N488   N     0.16667   0.25001   0.87377   0.00000  Uiso   1.00
O489   O     0.16667   0.18454   0.78974   0.00000  Uiso   1.00
O490   O     0.16666   0.31547   0.71026   0.00000  Uiso   1.00
O491   O     0.16667   0.18453   0.71026   0.00000  Uiso   1.00
O492   O     0.16666   0.31547   0.78974   0.00000  Uiso   1.00
O493   O     0.09058   0.25000   0.78045   0.00000  Uiso   1.00
O494   O     0.24275   0.25000   0.71955   0.00000  Uiso   1.00
O495   O     0.09058   0.24999   0.70097   0.00000  Uiso   1.00
O496   O     0.24275   0.25001   0.79903   0.00000  Uiso   1.00
Zn497  Zn    0.16667   0.25001   0.80307   0.00000  Uiso   1.00
Zn498  Zn    0.16667   0.25000   0.69693   0.00000  Uiso   1.00
O499   O     0.16430   0.11084   0.83593   0.00000  Uiso   1.00
C500   C     0.21236   0.11260   0.86690   0.00000  Uiso   1.00
H501   H     0.20630   0.13119   0.89920   0.00000  Uiso   1.00
H502   H     0.24307   0.13078   0.85024   0.00000  Uiso   1.00
H503   H     0.22613   0.07862   0.87853   0.00000  Uiso   1.00
O504   O     0.10490   0.38579   0.67849   0.00000  Uiso   1.00
C505   C     0.10365   0.40357   0.63205   0.00000  Uiso   1.00
H506   H     0.08816   0.37751   0.60617   0.00000  Uiso   1.00
H507   H     0.14332   0.41334   0.62408   0.00000  Uiso   1.00
H508   H     0.07639   0.43228   0.62645   0.00000  Uiso   1.00
O509   O     0.24719   0.29017   0.63705   0.00000  Uiso   1.00
C510   C     0.24598   0.33680   0.62994   0.00000  Uiso   1.00
H511   H     0.27385   0.35241   0.65866   0.00000  Uiso   1.00
H512   H     0.20642   0.35064   0.63203   0.00000  Uiso   1.00
H513   H     0.25888   0.34618   0.59546   0.00000  Uiso   1.00
O514   O     0.10914   0.18797   0.86405   0.00000  Uiso   1.00
C515   C     0.05790   0.18133   0.87509   0.00000  Uiso   1.00
H516   H     0.03301   0.16766   0.84323   0.00000  Uiso   1.00
H517   H     0.03944   0.21295   0.88427   0.00000  Uiso   1.00
H518   H     0.05808   0.15627   0.90421   0.00000  Uiso   1.00
C519   C     0.50103   0.16368   0.75045   0.00000  Uiso   1.00
C520   C     0.49987   0.33601   0.74968   0.00000  Uiso   1.00
C521   C     0.45785   0.23103   0.54750   0.00000  Uiso   1.00
C522   C     0.52724   0.28291   0.95039   0.00000  Uiso   1.00
C523   C     0.45936   0.23070   0.59724   0.00000  Uiso   1.00
C524   C     0.52770   0.28169   0.90100   0.00000  Uiso   1.00
C525   C     0.53971   0.27073   0.60713   0.00000  Uiso   1.00
C526   C     0.47028   0.21914   0.89374   0.00000  Uiso   1.00
C527   C     0.54081   0.26970   0.55754   0.00000  Uiso   1.00
C528   C     0.47140   0.21790   0.94390   0.00000  Uiso   1.00
C529   C     0.49926   0.25034   0.52652   0.00000  Uiso   1.00
C530   C     0.49929   0.25042   0.97310   0.00000  Uiso   1.00
C531   C     0.40039   0.24990   0.73760   0.00000  Uiso   1.00
C532   C     0.59962   0.25016   0.76240   0.00000  Uiso   1.00
C533   C     0.34542   0.24943   0.73089   0.00000  Uiso   1.00
C534   C     0.65460   0.25076   0.76909   0.00000  Uiso   1.00
C535   C     0.50909   0.04454   0.79275   0.00000  Uiso   1.00
C536   C     0.47884   0.45465   0.71246   0.00000  Uiso   1.00
C537   C     0.50589   0.09069   0.79411   0.00000  Uiso   1.00
C538   C     0.47422   0.40817   0.71162   0.00000  Uiso   1.00
C539   C     0.50625   0.11549   0.75154   0.00000  Uiso   1.00
C540   C     0.50298   0.38377   0.74907   0.00000  Uiso   1.00
C541   C     0.51370   0.09393   0.70943   0.00000  Uiso   1.00
C542   C     0.53726   0.40464   0.78499   0.00000  Uiso   1.00
C543   C     0.51845   0.04816   0.70893   0.00000  Uiso   1.00
C544   C     0.54290   0.45039   0.78439   0.00000  Uiso   1.00
C545   C     0.51510   0.02346   0.75031   0.00000  Uiso   1.00
C546   C     0.51335   0.47537   0.74843   0.00000  Uiso   1.00
H547   H     0.65833   0.24771   0.69462   0.00000  Uiso   1.00
H548   H     0.34173   0.25252   0.80534   0.00000  Uiso   1.00
H549   H     0.50517   0.02516   0.82452   0.00000  Uiso   1.00
H550   H     0.45441   0.47487   0.68640   0.00000  Uiso   1.00
H551   H     0.51550   0.11232   0.67663   0.00000  Uiso   1.00
H552   H     0.56016   0.38541   0.81309   0.00000  Uiso   1.00
H553   H     0.52355   0.03189   0.67604   0.00000  Uiso   1.00
H554   H     0.56970   0.46639   0.81221   0.00000  Uiso   1.00
H555   H     0.42399   0.21653   0.52589   0.00000  Uiso   1.00
H556   H     0.54843   0.30958   0.97028   0.00000  Uiso   1.00
H557   H     0.42755   0.21527   0.61266   0.00000  Uiso   1.00
H558   H     0.54987   0.30655   0.88428   0.00000  Uiso   1.00
H559   H     0.57462   0.28356   0.54393   0.00000  Uiso   1.00
H560   H     0.45136   0.19117   0.95984   0.00000  Uiso   1.00
N561   N     0.50000   0.24999   0.62624   0.00000  Uiso   1.00
N562   N     0.50000   0.25001   0.87377   0.00000  Uiso   1.00
O563   O     0.50000   0.18454   0.78974   0.00000  Uiso   1.00
O564   O     0.50000   0.31547   0.71026   0.00000  Uiso   1.00
O565   O     0.50000   0.18453   0.71026   0.00000  Uiso   1.00
O566   O     0.50000   0.31547   0.78974   0.00000  Uiso   1.00
O567   O     0.42392   0.25000   0.78045   0.00000  Uiso   1.00
O568   O     0.57608   0.25000   0.71955   0.00000  Uiso   1.00
O569   O     0.42392   0.24999   0.70097   0.00000  Uiso   1.00
O570   O     0.57608   0.25001   0.79903   0.00000  Uiso   1.00
Zn571  Zn    0.50000   0.25001   0.80307   0.00000  Uiso   1.00
Zn572  Zn    0.50000   0.25000   0.69693   0.00000  Uiso   1.00
O573   O     0.49763   0.11084   0.83593   0.00000  Uiso   1.00
C574   C     0.54569   0.11260   0.86690   0.00000  Uiso   1.00
H575   H     0.53964   0.13119   0.89920   0.00000  Uiso   1.00
H576   H     0.57640   0.13078   0.85024   0.00000  Uiso   1.00
H577   H     0.55947   0.07862   0.87853   0.00000  Uiso   1.00
O578   O     0.43824   0.38579   0.67849   0.00000  Uiso   1.00
C579   C     0.43698   0.40357   0.63205   0.00000  Uiso   1.00
H580   H     0.42150   0.37751   0.60617   0.00000  Uiso   1.00
H581   H     0.47666   0.41334   0.62408   0.00000  Uiso   1.00
H582   H     0.40973   0.43228   0.62645   0.00000  Uiso   1.00
O583   O     0.58053   0.29017   0.63705   0.00000  Uiso   1.00
C584   C     0.57931   0.33680   0.62994   0.00000  Uiso   1.00
H585   H     0.60718   0.35241   0.65866   0.00000  Uiso   1.00
H586   H     0.53976   0.35064   0.63203   0.00000  Uiso   1.00
H587   H     0.59221   0.34618   0.59546   0.00000  Uiso   1.00
O588   O     0.44248   0.18797   0.86405   0.00000  Uiso   1.00
C589   C     0.39123   0.18133   0.87509   0.00000  Uiso   1.00
H590   H     0.36634   0.16766   0.84323   0.00000  Uiso   1.00
H591   H     0.37278   0.21295   0.88427   0.00000  Uiso   1.00
H592   H     0.39141   0.15627   0.90421   0.00000  Uiso   1.00
C593   C     0.83436   0.16368   0.75045   0.00000  Uiso   1.00
C594   C     0.83320   0.33601   0.74968   0.00000  Uiso   1.00
C595   C     0.79118   0.23103   0.54750   0.00000  Uiso   1.00
C596   C     0.86057   0.28291   0.95039   0.00000  Uiso   1.00
C597   C     0.79269   0.23070   0.59724   0.00000  Uiso   1.00
C598   C     0.86104   0.28169   0.90100   0.00000  Uiso   1.00
C599   C     0.87305   0.27073   0.60713   0.00000  Uiso   1.00
C600   C     0.80361   0.21914   0.89374   0.00000  Uiso   1.00
C601   C     0.87414   0.26970   0.55754   0.00000  Uiso   1.00
C602   C     0.80474   0.21790   0.94390   0.00000  Uiso   1.00
C603   C     0.83259   0.25034   0.52652   0.00000  Uiso   1.00
C604   C     0.83263   0.25042   0.97310   0.00000  Uiso   1.00
C605   C     0.73372   0.24990   0.73760   0.00000  Uiso   1.00
C606   C     0.93295   0.25016   0.76240   0.00000  Uiso   1.00
C607   C     0.67875   0.24943   0.73089   0.00000  Uiso   1.00
C608   C     0.98793   0.25076   0.76909   0.00000  Uiso   1.00
C609   C     0.84242   0.04454   0.79275   0.00000  Uiso   1.00
C610   C     0.81217   0.45465   0.71246   0.00000  Uiso   1.00
C611   C     0.83923   0.09069   0.79411   0.00000  Uiso   1.00
C612   C     0.80755   0.40817   0.71162   0.00000  Uiso   1.00
C613   C     0.83959   0.11549   0.75154   0.00000  Uiso   1.00
C614   C     0.83631   0.38377   0.74907   0.00000  Uiso   1.00
C615   C     0.84703   0.09393   0.70943   0.00000  Uiso   1.00
C616   C     0.87059   0.40464   0.78499   0.00000  Uiso   1.00
C617   C     0.85178   0.04816   0.70893   0.00000  Uiso   1.00
C618   C     0.87623   0.45039   0.78439   0.00000  Uiso   1.00
C619   C     0.84843   0.02346   0.75031   0.00000  Uiso   1.00
C620   C     0.84669   0.47537   0.74843   0.00000  Uiso   1.00
H621   H     0.99167   0.24771   0.69462   0.00000  Uiso   1.00
H622   H     0.67506   0.25252   0.80534   0.00000  Uiso   1.00
H623   H     0.83851   0.02516   0.82452   0.00000  Uiso   1.00
H624   H     0.78775   0.47487   0.68640   0.00000  Uiso   1.00
H625   H     0.84883   0.11232   0.67663   0.00000  Uiso   1.00
H626   H     0.89349   0.38541   0.81309   0.00000  Uiso   1.00
H627   H     0.85688   0.03189   0.67604   0.00000  Uiso   1.00
H628   H     0.90303   0.46639   0.81221   0.00000  Uiso   1.00
H629   H     0.75732   0.21653   0.52589   0.00000  Uiso   1.00
H630   H     0.88177   0.30958   0.97028   0.00000  Uiso   1.00
H631   H     0.76088   0.21527   0.61266   0.00000  Uiso   1.00
H632   H     0.88321   0.30655   0.88428   0.00000  Uiso   1.00
H633   H     0.90795   0.28356   0.54393   0.00000  Uiso   1.00
H634   H     0.78470   0.19117   0.95984   0.00000  Uiso   1.00
N635   N     0.83333   0.24999   0.62624   0.00000  Uiso   1.00
N636   N     0.83333   0.25001   0.87377   0.00000  Uiso   1.00
O637   O     0.83334   0.18454   0.78974   0.00000  Uiso   1.00
O638   O     0.83333   0.31547   0.71026   0.00000  Uiso   1.00
O639   O     0.83334   0.18453   0.71026   0.00000  Uiso   1.00
O640   O     0.83333   0.31547   0.78974   0.00000  Uiso   1.00
O641   O     0.75725   0.25000   0.78045   0.00000  Uiso   1.00
O642   O     0.90942   0.25000   0.71955   0.00000  Uiso   1.00
O643   O     0.75725   0.24999   0.70097   0.00000  Uiso   1.00
O644   O     0.90942   0.25001   0.79903   0.00000  Uiso   1.00
Zn645  Zn    0.83333   0.25001   0.80307   0.00000  Uiso   1.00
Zn646  Zn    0.83333   0.25000   0.69693   0.00000  Uiso   1.00
O647   O     0.83096   0.11084   0.83593   0.00000  Uiso   1.00
C648   C     0.87903   0.11260   0.86690   0.00000  Uiso   1.00
H649   H     0.87297   0.13119   0.89920   0.00000  Uiso   1.00
H650   H     0.90973   0.13078   0.85024   0.00000  Uiso   1.00
H651   H     0.89280   0.07862   0.87853   0.00000  Uiso   1.00
O652   O     0.77157   0.38579   0.67849   0.00000  Uiso   1.00
C653   C     0.77031   0.40357   0.63205   0.00000  Uiso   1.00
H654   H     0.75483   0.37751   0.60617   0.00000  Uiso   1.00
H655   H     0.80999   0.41334   0.62408   0.00000  Uiso   1.00
H656   H     0.74306   0.43228   0.62645   0.00000  Uiso   1.00
O657   O     0.91386   0.29017   0.63705   0.00000  Uiso   1.00
C658   C     0.91264   0.33680   0.62994   0.00000  Uiso   1.00
H659   H     0.94052   0.35241   0.65866   0.00000  Uiso   1.00
H660   H     0.87309   0.35064   0.63203   0.00000  Uiso   1.00
H661   H     0.92555   0.34618   0.59546   0.00000  Uiso   1.00
O662   O     0.77581   0.18797   0.86405   0.00000  Uiso   1.00
C663   C     0.72457   0.18133   0.87509   0.00000  Uiso   1.00
H664   H     0.69968   0.16766   0.84323   0.00000  Uiso   1.00
H665   H     0.70611   0.21295   0.88427   0.00000  Uiso   1.00
H666   H     0.72475   0.15627   0.90421   0.00000  Uiso   1.00
C667   C     0.16770   0.66368   0.75045   0.00000  Uiso   1.00
C668   C     0.16654   0.83601   0.74968   0.00000  Uiso   1.00
C669   C     0.12452   0.73103   0.54750   0.00000  Uiso   1.00
C670   C     0.19391   0.78291   0.95039   0.00000  Uiso   1.00
C671   C     0.12602   0.73070   0.59724   0.00000  Uiso   1.00
C672   C     0.19437   0.78169   0.90100   0.00000  Uiso   1.00
C673   C     0.20638   0.77073   0.60713   0.00000  Uiso   1.00
C674   C     0.13695   0.71914   0.89374   0.00000  Uiso   1.00
C675   C     0.20747   0.76970   0.55754   0.00000  Uiso   1.00
C676   C     0.13807   0.71790   0.94390   0.00000  Uiso   1.00
C677   C     0.16593   0.75034   0.52652   0.00000  Uiso   1.00
C678   C     0.16596   0.75042   0.97310   0.00000  Uiso   1.00
C679   C     0.06706   0.74990   0.73760   0.00000  Uiso   1.00
C680   C     0.26628   0.75016   0.76240   0.00000  Uiso   1.00
C681   C     0.01208   0.74943   0.73089   0.00000  Uiso   1.00
C682   C     0.32126   0.75076   0.76909   0.00000  Uiso   1.00
C683   C     0.17575   0.54454   0.79275   0.00000  Uiso   1.00
C684   C     0.14551   0.95465   0.71246   0.00000  Uiso   1.00
C685   C     0.17256   0.59069   0.79411   0.00000  Uiso   1.00
C686   C     0.14088   0.90817   0.71162   0.00000  Uiso   1.00
C687   C     0.17292   0.61549   0.75154   0.00000  Uiso   1.00
C688   C     0.16964   0.88377   0.74907   0.00000  Uiso   1.00
C689   C     0.18036   0.59393   0.70943   0.00000  Uiso   1.00
C690   C     0.20392   0.90464   0.78499   0.00000  Uiso   1.00
C691   C     0.18511   0.54816   0.70893   0.00000  Uiso   1.00
C692   C     0.20956   0.95039   0.78439   0.00000  Uiso   1.00
C693   C     0.18177   0.52346   0.75031   0.00000  Uiso   1.00
C694   C     0.18002   0.97537   0.74843   0.00000  Uiso   1.00
H695   H     0.32500   0.74771   0.69462   0.00000  Uiso   1.00
H696   H     0.00840   0.75252   0.80534   0.00000  Uiso   1.00
H697   H     0.17184   0.52516   0.82452   0.00000  Uiso   1.00
H698   H     0.12108   0.97487   0.68640   0.00000  Uiso   1.00
H699   H     0.18216   0.61232   0.67663   0.00000  Uiso   1.00
H700   H     0.22683   0.88541   0.81309   0.00000  Uiso   1.00
H701   H     0.19022   0.53189   0.67604   0.00000  Uiso   1.00
H702   H     0.23637   0.96639   0.81221   0.00000  Uiso   1.00
H703   H     0.09066   0.71653   0.52589   0.00000  Uiso   1.00
H704   H     0.21510   0.80958   0.97028   0.00000  Uiso   1.00
H705   H     0.09422   0.71527   0.61266   0.00000  Uiso   1.00
H706   H     0.21654   0.80655   0.88428   0.00000  Uiso   1.00
H707   H     0.24128   0.78356   0.54393   0.00000  Uiso   1.00
H708   H     0.11803   0.69117   0.95984   0.00000  Uiso   1.00
N709   N     0.16667   0.74999   0.62624   0.00000  Uiso   1.00
N710   N     0.16667   0.75001   0.87377   0.00000  Uiso   1.00
O711   O     0.16667   0.68454   0.78974   0.00000  Uiso   1.00
O712   O     0.16666   0.81547   0.71026   0.00000  Uiso   1.00
O713   O     0.16667   0.68453   0.71026   0.00000  Uiso   1.00
O714   O     0.16666   0.81547   0.78974   0.00000  Uiso   1.00
O715   O     0.09058   0.75000   0.78045   0.00000  Uiso   1.00
O716   O     0.24275   0.75000   0.71955   0.00000  Uiso   1.00
O717   O     0.09058   0.74999   0.70097   0.00000  Uiso   1.00
O718   O     0.24275   0.75001   0.79903   0.00000  Uiso   1.00
Zn719  Zn    0.16667   0.75001   0.80307   0.00000  Uiso   1.00
Zn720  Zn    0.16667   0.75000   0.69693   0.00000  Uiso   1.00
O721   O     0.16430   0.61084   0.83593   0.00000  Uiso   1.00
C722   C     0.21236   0.61260   0.86690   0.00000  Uiso   1.00
H723   H     0.20630   0.63119   0.89920   0.00000  Uiso   1.00
H724   H     0.24307   0.63078   0.85024   0.00000  Uiso   1.00
H725   H     0.22613   0.57862   0.87853   0.00000  Uiso   1.00
O726   O     0.10490   0.88579   0.67849   0.00000  Uiso   1.00
C727   C     0.10365   0.90357   0.63205   0.00000  Uiso   1.00
H728   H     0.08816   0.87751   0.60617   0.00000  Uiso   1.00
H729   H     0.14332   0.91334   0.62408   0.00000  Uiso   1.00
H730   H     0.07639   0.93228   0.62645   0.00000  Uiso   1.00
O731   O     0.24719   0.79017   0.63705   0.00000  Uiso   1.00
C732   C     0.24598   0.83680   0.62994   0.00000  Uiso   1.00
H733   H     0.27385   0.85241   0.65866   0.00000  Uiso   1.00
H734   H     0.20642   0.85064   0.63203   0.00000  Uiso   1.00
H735   H     0.25888   0.84618   0.59546   0.00000  Uiso   1.00
O736   O     0.10914   0.68797   0.86405   0.00000  Uiso   1.00
C737   C     0.05790   0.68133   0.87509   0.00000  Uiso   1.00
H738   H     0.03301   0.66766   0.84323   0.00000  Uiso   1.00
H739   H     0.03944   0.71295   0.88427   0.00000  Uiso   1.00
H740   H     0.05808   0.65627   0.90421   0.00000  Uiso   1.00
C741   C     0.50103   0.66368   0.75045   0.00000  Uiso   1.00
C742   C     0.49987   0.83601   0.74968   0.00000  Uiso   1.00
C743   C     0.45785   0.73103   0.54750   0.00000  Uiso   1.00
C744   C     0.52724   0.78291   0.95039   0.00000  Uiso   1.00
C745   C     0.45936   0.73070   0.59724   0.00000  Uiso   1.00
C746   C     0.52770   0.78169   0.90100   0.00000  Uiso   1.00
C747   C     0.53971   0.77073   0.60713   0.00000  Uiso   1.00
C748   C     0.47028   0.71914   0.89374   0.00000  Uiso   1.00
C749   C     0.54081   0.76970   0.55754   0.00000  Uiso   1.00
C750   C     0.47140   0.71790   0.94390   0.00000  Uiso   1.00
C751   C     0.49926   0.75034   0.52652   0.00000  Uiso   1.00
C752   C     0.49929   0.75042   0.97310   0.00000  Uiso   1.00
C753   C     0.40039   0.74990   0.73760   0.00000  Uiso   1.00
C754   C     0.59962   0.75016   0.76240   0.00000  Uiso   1.00
C755   C     0.34542   0.74943   0.73089   0.00000  Uiso   1.00
C756   C     0.65460   0.75076   0.76909   0.00000  Uiso   1.00
C757   C     0.50909   0.54454   0.79275   0.00000  Uiso   1.00
C758   C     0.47884   0.95465   0.71246   0.00000  Uiso   1.00
C759   C     0.50589   0.59069   0.79411   0.00000  Uiso   1.00
C760   C     0.47422   0.90817   0.71162   0.00000  Uiso   1.00
C761   C     0.50625   0.61549   0.75154   0.00000  Uiso   1.00
C762   C     0.50298   0.88377   0.74907   0.00000  Uiso   1.00
C763   C     0.51370   0.59393   0.70943   0.00000  Uiso   1.00
C764   C     0.53726   0.90464   0.78499   0.00000  Uiso   1.00
C765   C     0.51845   0.54816   0.70893   0.00000  Uiso   1.00
C766   C     0.54290   0.95039   0.78439   0.00000  Uiso   1.00
C767   C     0.51510   0.52346   0.75031   0.00000  Uiso   1.00
C768   C     0.51335   0.97537   0.74843   0.00000  Uiso   1.00
H769   H     0.65833   0.74771   0.69462   0.00000  Uiso   1.00
H770   H     0.34173   0.75252   0.80534   0.00000  Uiso   1.00
H771   H     0.50517   0.52516   0.82452   0.00000  Uiso   1.00
H772   H     0.45441   0.97487   0.68640   0.00000  Uiso   1.00
H773   H     0.51550   0.61232   0.67663   0.00000  Uiso   1.00
H774   H     0.56016   0.88541   0.81309   0.00000  Uiso   1.00
H775   H     0.52355   0.53189   0.67604   0.00000  Uiso   1.00
H776   H     0.56970   0.96639   0.81221   0.00000  Uiso   1.00
H777   H     0.42399   0.71653   0.52589   0.00000  Uiso   1.00
H778   H     0.54843   0.80958   0.97028   0.00000  Uiso   1.00
H779   H     0.42755   0.71527   0.61266   0.00000  Uiso   1.00
H780   H     0.54987   0.80655   0.88428   0.00000  Uiso   1.00
H781   H     0.57462   0.78356   0.54393   0.00000  Uiso   1.00
H782   H     0.45136   0.69117   0.95984   0.00000  Uiso   1.00
N783   N     0.50000   0.74999   0.62624   0.00000  Uiso   1.00
N784   N     0.50000   0.75001   0.87377   0.00000  Uiso   1.00
O785   O     0.50000   0.68454   0.78974   0.00000  Uiso   1.00
O786   O     0.50000   0.81547   0.71026   0.00000  Uiso   1.00
O787   O     0.50000   0.68453   0.71026   0.00000  Uiso   1.00
O788   O     0.50000   0.81547   0.78974   0.00000  Uiso   1.00
O789   O     0.42392   0.75000   0.78045   0.00000  Uiso   1.00
O790   O     0.57608   0.75000   0.71955   0.00000  Uiso   1.00
O791   O     0.42392   0.74999   0.70097   0.00000  Uiso   1.00
O792   O     0.57608   0.75001   0.79903   0.00000  Uiso   1.00
Zn793  Zn    0.50000   0.75001   0.80307   0.00000  Uiso   1.00
Zn794  Zn    0.50000   0.75000   0.69693   0.00000  Uiso   1.00
O795   O     0.49763   0.61084   0.83593   0.00000  Uiso   1.00
C796   C     0.54569   0.61260   0.86690   0.00000  Uiso   1.00
H797   H     0.53964   0.63119   0.89920   0.00000  Uiso   1.00
H798   H     0.57640   0.63078   0.85024   0.00000  Uiso   1.00
H799   H     0.55947   0.57862   0.87853   0.00000  Uiso   1.00
O800   O     0.43824   0.88579   0.67849   0.00000  Uiso   1.00
C801   C     0.43698   0.90357   0.63205   0.00000  Uiso   1.00
H802   H     0.42150   0.87751   0.60617   0.00000  Uiso   1.00
H803   H     0.47666   0.91334   0.62408   0.00000  Uiso   1.00
H804   H     0.40973   0.93228   0.62645   0.00000  Uiso   1.00
O805   O     0.58053   0.79017   0.63705   0.00000  Uiso   1.00
C806   C     0.57931   0.83680   0.62994   0.00000  Uiso   1.00
H807   H     0.60718   0.85241   0.65866   0.00000  Uiso   1.00
H808   H     0.53976   0.85064   0.63203   0.00000  Uiso   1.00
H809   H     0.59221   0.84618   0.59546   0.00000  Uiso   1.00
O810   O     0.44248   0.68797   0.86405   0.00000  Uiso   1.00
C811   C     0.39123   0.68133   0.87509   0.00000  Uiso   1.00
H812   H     0.36634   0.66766   0.84323   0.00000  Uiso   1.00
H813   H     0.37278   0.71295   0.88427   0.00000  Uiso   1.00
H814   H     0.39141   0.65627   0.90421   0.00000  Uiso   1.00
C815   C     0.83436   0.66368   0.75045   0.00000  Uiso   1.00
C816   C     0.83320   0.83601   0.74968   0.00000  Uiso   1.00
C817   C     0.79118   0.73103   0.54750   0.00000  Uiso   1.00
C818   C     0.86057   0.78291   0.95039   0.00000  Uiso   1.00
C819   C     0.79269   0.73070   0.59724   0.00000  Uiso   1.00
C820   C     0.86104   0.78169   0.90100   0.00000  Uiso   1.00
C821   C     0.87305   0.77073   0.60713   0.00000  Uiso   1.00
C822   C     0.80361   0.71914   0.89374   0.00000  Uiso   1.00
C823   C     0.87414   0.76970   0.55754   0.00000  Uiso   1.00
C824   C     0.80474   0.71790   0.94390   0.00000  Uiso   1.00
C825   C     0.83259   0.75034   0.52652   0.00000  Uiso   1.00
C826   C     0.83263   0.75042   0.97310   0.00000  Uiso   1.00
C827   C     0.73372   0.74990   0.73760   0.00000  Uiso   1.00
C828   C     0.93295   0.75016   0.76240   0.00000  Uiso   1.00
C829   C     0.67875   0.74943   0.73089   0.00000  Uiso   1.00
C830   C     0.98793   0.75076   0.76909   0.00000  Uiso   1.00
C831   C     0.84242   0.54454   0.79275   0.00000  Uiso   1.00
C832   C     0.81217   0.95465   0.71246   0.00000  Uiso   1.00
C833   C     0.83923   0.59069   0.79411   0.00000  Uiso   1.00
C834   C     0.80755   0.90817   0.71162   0.00000  Uiso   1.00
C835   C     0.83959   0.61549   0.75154   0.00000  Uiso   1.00
C836   C     0.83631   0.88377   0.74907   0.00000  Uiso   1.00
C837   C     0.84703   0.59393   0.70943   0.00000  Uiso   1.00
C838   C     0.87059   0.90464   0.78499   0.00000  Uiso   1.00
C839   C     0.85178   0.54816   0.70893   0.00000  Uiso   1.00
C840   C     0.87623   0.95039   0.78439   0.00000  Uiso   1.00
C841   C     0.84843   0.52346   0.75031   0.00000  Uiso   1.00
C842   C     0.84669   0.97537   0.74843   0.00000  Uiso   1.00
H843   H     0.99167   0.74771   0.69462   0.00000  Uiso   1.00
H844   H     0.67506   0.75252   0.80534   0.00000  Uiso   1.00
H845   H     0.83851   0.52516   0.82452   0.00000  Uiso   1.00
H846   H     0.78775   0.97487   0.68640   0.00000  Uiso   1.00
H847   H     0.84883   0.61232   0.67663   0.00000  Uiso   1.00
H848   H     0.89349   0.88541   0.81309   0.00000  Uiso   1.00
H849   H     0.85688   0.53189   0.67604   0.00000  Uiso   1.00
H850   H     0.90303   0.96639   0.81221   0.00000  Uiso   1.00
H851   H     0.75732   0.71653   0.52589   0.00000  Uiso   1.00
H852   H     0.88177   0.80958   0.97028   0.00000  Uiso   1.00
H853   H     0.76088   0.71527   0.61266   0.00000  Uiso   1.00
H854   H     0.88321   0.80655   0.88428   0.00000  Uiso   1.00
H855   H     0.90795   0.78356   0.54393   0.00000  Uiso   1.00
H856   H     0.78470   0.69117   0.95984   0.00000  Uiso   1.00
N857   N     0.83333   0.74999   0.62624   0.00000  Uiso   1.00
N858   N     0.83333   0.75001   0.87377   0.00000  Uiso   1.00
O859   O     0.83334   0.68454   0.78974   0.00000  Uiso   1.00
O860   O     0.83333   0.81547   0.71026   0.00000  Uiso   1.00
O861   O     0.83334   0.68453   0.71026   0.00000  Uiso   1.00
O862   O     0.83333   0.81547   0.78974   0.00000  Uiso   1.00
O863   O     0.75725   0.75000   0.78045   0.00000  Uiso   1.00
O864   O     0.90942   0.75000   0.71955   0.00000  Uiso   1.00
O865   O     0.75725   0.74999   0.70097   0.00000  Uiso   1.00
O866   O     0.90942   0.75001   0.79903   0.00000  Uiso   1.00
Zn867  Zn    0.83333   0.75001   0.80307   0.00000  Uiso   1.00
Zn868  Zn    0.83333   0.75000   0.69693   0.00000  Uiso   1.00
O869   O     0.83096   0.61084   0.83593   0.00000  Uiso   1.00
C870   C     0.87903   0.61260   0.86690   0.00000  Uiso   1.00
H871   H     0.87297   0.63119   0.89920   0.00000  Uiso   1.00
H872   H     0.90973   0.63078   0.85024   0.00000  Uiso   1.00
H873   H     0.89280   0.57862   0.87853   0.00000  Uiso   1.00
O874   O     0.77157   0.88579   0.67849   0.00000  Uiso   1.00
C875   C     0.77031   0.90357   0.63205   0.00000  Uiso   1.00
H876   H     0.75483   0.87751   0.60617   0.00000  Uiso   1.00
H877   H     0.80999   0.91334   0.62408   0.00000  Uiso   1.00
H878   H     0.74306   0.93228   0.62645   0.00000  Uiso   1.00
O879   O     0.91386   0.79017   0.63705   0.00000  Uiso   1.00
C880   C     0.91264   0.83680   0.62994   0.00000  Uiso   1.00
H881   H     0.94052   0.85241   0.65866   0.00000  Uiso   1.00
H882   H     0.87309   0.85064   0.63203   0.00000  Uiso   1.00
H883   H     0.92555   0.84618   0.59546   0.00000  Uiso   1.00
O884   O     0.77581   0.68797   0.86405   0.00000  Uiso   1.00
C885   C     0.72457   0.68133   0.87509   0.00000  Uiso   1.00
H886   H     0.69968   0.66766   0.84323   0.00000  Uiso   1.00
H887   H     0.70611   0.71295   0.88427   0.00000  Uiso   1.00
H888   H     0.72475   0.65627   0.90421   0.00000  Uiso   1.00
loop_
_geom_bond_atom_site_label_1
_geom_bond_atom_site_label_2
_geom_bond_distance
_geom_bond_site_symmetry_2
_ccdc_geom_bond_type
C1     C21     1.452   .     S
C1     O45     1.289   .     A
C1     O47     1.292   .     A
C2     C22     1.433   .     S
C2     O48     1.287   .     A
C2     O46     1.284   .     A
C3     C5      1.407   .     A
C3     H37     1.081   .     S
C3     C11     1.412   .     A
C4     C12     1.411   .     A
C4     C6      1.405   .     A
C4     H38     1.081   .     S
C5     N43     1.362   .     A
C5     H39     1.082   .     S
C6     N44     1.361   .     A
C6     H40     1.082   .     S
C7     N43     1.367   .     A
C7     C9      1.413   .     A
C7     O65     1.381   .     S
C8     C10     1.420   .     A
C8     O70     1.388   .     S
C8     N44     1.366   .     A
C9     H41     1.081   .     S
C9     C11     1.408   .     A
C10    H42     1.080   .     S
C10    C12     1.409   .     A
C11    C456    1.517   1_554 S
C12    C455    1.517   .     S
C13    O49     1.277   .     A
C13    C15     1.401   .     S
C13    O51     1.278   .     A
C14    O52     1.278   .     A
C14    C16     1.401   .     S
C14    O50     1.277   .     A
C15    C164    1.328   1_455 S
C15    H177    1.087   1_455 S
C16    C89     1.328   .     S
C16    H104    1.087   .     S
C17    H31     1.084   .     S
C17    C27     1.396   .     A
C17    C19     1.388   .     A
C18    H32     1.082   .     S
C18    C28     1.399   .     A
C18    C20     1.398   .     A
C19    C21     1.413   .     A
C19    O55     1.383   .     S
C20    O60     1.394   .     S
C20    C22     1.405   .     A
C21    C23     1.404   .     A
C22    C24     1.397   .     A
C23    C25     1.379   .     A
C23    H33     1.083   .     S
C24    C26     1.378   .     A
C24    H34     1.084   .     S
C25    H35     1.084   .     S
C25    C27     1.394   .     A
C26    H36     1.084   .     S
C26    C28     1.396   .     A
C27    C250    1.443   1_545 S
C28    C249    1.443   .     S
H29    C89     1.087   .     S
H30    C164    1.087   1_455 S
N43    Zn54    2.007   .     S
N44    Zn53    2.007   .     S
O45    Zn53    2.003   .     S
O46    Zn54    2.003   .     S
O47    Zn54    1.994   .     S
O48    Zn53    1.994   .     S
O49    Zn53    1.971   .     S
O50    Zn54    1.971   .     S
O51    Zn54    1.979   .     S
O52    Zn53    1.979   .     S
O55    C56     1.411   .     S
C56    H59     1.112   .     S
C56    H58     1.114   .     S
C56    H57     1.109   .     S
O60    C61     1.412   .     S
C61    H64     1.111   .     S
C61    H62     1.110   .     S
C61    H63     1.114   .     S
O65    C66     1.410   .     S
C66    H68     1.113   .     S
C66    H67     1.109   .     S
C66    H69     1.111   .     S
O70    C71     1.412   .     S
C71    H74     1.110   .     S
C71    H72     1.109   .     S
C71    H73     1.115   .     S
C75    C95     1.452   .     S
C75    O119    1.289   .     A
C75    O121    1.292   .     A
C76    C96     1.433   .     S
C76    O122    1.287   .     A
C76    O120    1.284   .     A
C77    C79     1.407   .     A
C77    H111    1.081   .     S
C77    C85     1.412   .     A
C78    C86     1.411   .     A
C78    C80     1.405   .     A
C78    H112    1.081   .     S
C79    N117    1.362   .     A
C79    H113    1.082   .     S
C80    N118    1.361   .     A
C80    H114    1.082   .     S
C81    N117    1.367   .     A
C81    C83     1.413   .     A
C81    O139    1.381   .     S
C82    C84     1.420   .     A
C82    O144    1.388   .     S
C82    N118    1.366   .     A
C83    H115    1.081   .     S
C83    C85     1.408   .     A
C84    H116    1.080   .     S
C84    C86     1.409   .     A
C85    C530    1.517   1_554 S
C86    C529    1.517   .     S
C87    O123    1.277   .     A
C87    C89     1.401   .     S
C87    O125    1.278   .     A
C88    O126    1.278   .     A
C88    C90     1.401   .     S
C88    O124    1.277   .     A
C90    C163    1.328   .     S
C90    H178    1.087   .     S
C91    H105    1.084   .     S
C91    C101    1.396   .     A
C91    C93     1.388   .     A
C92    H106    1.082   .     S
C92    C102    1.399   .     A
C92    C94     1.398   .     A
C93    C95     1.413   .     A
C93    O129    1.383   .     S
C94    O134    1.394   .     S
C94    C96     1.405   .     A
C95    C97     1.404   .     A
C96    C98     1.397   .     A
C97    C99     1.379   .     A
C97    H107    1.083   .     S
C98    C100    1.378   .     A
C98    H108    1.084   .     S
C99    H109    1.084   .     S
C99    C101    1.394   .     A
C100   H110    1.084   .     S
C100   C102    1.396   .     A
C101   C324    1.443   1_545 S
C102   C323    1.443   .     S
H103   C163    1.087   .     S
N117   Zn128   2.007   .     S
N118   Zn127   2.007   .     S
O119   Zn127   2.003   .     S
O120   Zn128   2.003   .     S
O121   Zn128   1.994   .     S
O122   Zn127   1.994   .     S
O123   Zn127   1.971   .     S
O124   Zn128   1.971   .     S
O125   Zn128   1.979   .     S
O126   Zn127   1.979   .     S
O129   C130    1.411   .     S
C130   H133    1.112   .     S
C130   H132    1.114   .     S
C130   H131    1.109   .     S
O134   C135    1.412   .     S
C135   H138    1.111   .     S
C135   H136    1.110   .     S
C135   H137    1.114   .     S
O139   C140    1.410   .     S
C140   H142    1.113   .     S
C140   H141    1.109   .     S
C140   H143    1.111   .     S
O144   C145    1.412   .     S
C145   H148    1.110   .     S
C145   H146    1.109   .     S
C145   H147    1.115   .     S
C149   C169    1.452   .     S
C149   O193    1.289   .     A
C149   O195    1.292   .     A
C150   C170    1.433   .     S
C150   O196    1.287   .     A
C150   O194    1.284   .     A
C151   C153    1.407   .     A
C151   H185    1.081   .     S
C151   C159    1.412   .     A
C152   C160    1.411   .     A
C152   C154    1.405   .     A
C152   H186    1.081   .     S
C153   N191    1.362   .     A
C153   H187    1.082   .     S
C154   N192    1.361   .     A
C154   H188    1.082   .     S
C155   N191    1.367   .     A
C155   C157    1.413   .     A
C155   O213    1.381   .     S
C156   C158    1.420   .     A
C156   O218    1.388   .     S
C156   N192    1.366   .     A
C157   H189    1.081   .     S
C157   C159    1.408   .     A
C158   H190    1.080   .     S
C158   C160    1.409   .     A
C159   C604    1.517   1_554 S
C160   C603    1.517   .     S
C161   O197    1.277   .     A
C161   C163    1.401   .     S
C161   O199    1.278   .     A
C162   O200    1.278   .     A
C162   C164    1.401   .     S
C162   O198    1.277   .     A
C164   C15     1.328   1_655 S
C164   H30     1.087   1_655 S
C165   H179    1.084   .     S
C165   C175    1.396   .     A
C165   C167    1.388   .     A
C166   H180    1.082   .     S
C166   C176    1.399   .     A
C166   C168    1.398   .     A
C167   C169    1.413   .     A
C167   O203    1.383   .     S
C168   O208    1.394   .     S
C168   C170    1.405   .     A
C169   C171    1.404   .     A
C170   C172    1.397   .     A
C171   C173    1.379   .     A
C171   H181    1.083   .     S
C172   C174    1.378   .     A
C172   H182    1.084   .     S
C173   H183    1.084   .     S
C173   C175    1.394   .     A
C174   H184    1.084   .     S
C174   C176    1.396   .     A
C175   C398    1.443   1_545 S
C176   C397    1.443   .     S
H177   C15     1.087   1_655 S
N191   Zn202   2.007   .     S
N192   Zn201   2.007   .     S
O193   Zn201   2.003   .     S
O194   Zn202   2.003   .     S
O195   Zn202   1.994   .     S
O196   Zn201   1.994   .     S
O197   Zn201   1.971   .     S
O198   Zn202   1.971   .     S
O199   Zn202   1.979   .     S
O200   Zn201   1.979   .     S
O203   C204    1.411   .     S
C204   H207    1.112   .     S
C204   H206    1.114   .     S
C204   H205    1.109   .     S
O208   C209    1.412   .     S
C209   H212    1.111   .     S
C209   H210    1.110   .     S
C209   H211    1.114   .     S
O213   C214    1.410   .     S
C214   H216    1.113   .     S
C214   H215    1.109   .     S
C214   H217    1.111   .     S
O218   C219    1.412   .     S
C219   H222    1.110   .     S
C219   H220    1.109   .     S
C219   H221    1.115   .     S
C223   C243    1.452   .     S
C223   O267    1.289   .     A
C223   O269    1.292   .     A
C224   C244    1.433   .     S
C224   O270    1.287   .     A
C224   O268    1.284   .     A
C225   C227    1.407   .     A
C225   H259    1.081   .     S
C225   C233    1.412   .     A
C226   C234    1.411   .     A
C226   C228    1.405   .     A
C226   H260    1.081   .     S
C227   N265    1.362   .     A
C227   H261    1.082   .     S
C228   N266    1.361   .     A
C228   H262    1.082   .     S
C229   N265    1.367   .     A
C229   C231    1.413   .     A
C229   O287    1.381   .     S
C230   C232    1.420   .     A
C230   O292    1.388   .     S
C230   N266    1.366   .     A
C231   H263    1.081   .     S
C231   C233    1.408   .     A
C232   H264    1.080   .     S
C232   C234    1.409   .     A
C233   C678    1.517   1_554 S
C234   C677    1.517   .     S
C235   O271    1.277   .     A
C235   C237    1.401   .     S
C235   O273    1.278   .     A
C236   O274    1.278   .     A
C236   C238    1.401   .     S
C236   O272    1.277   .     A
C237   C386    1.328   1_455 S
C237   H399    1.087   1_455 S
C238   C311    1.328   .     S
C238   H326    1.087   .     S
C239   H253    1.084   .     S
C239   C249    1.396   .     A
C239   C241    1.388   .     A
C240   H254    1.082   .     S
C240   C250    1.399   .     A
C240   C242    1.398   .     A
C241   C243    1.413   .     A
C241   O277    1.383   .     S
C242   O282    1.394   .     S
C242   C244    1.405   .     A
C243   C245    1.404   .     A
C244   C246    1.397   .     A
C245   C247    1.379   .     A
C245   H255    1.083   .     S
C246   C248    1.378   .     A
C246   H256    1.084   .     S
C247   H257    1.084   .     S
C247   C249    1.394   .     A
C248   H258    1.084   .     S
C248   C250    1.396   .     A
C250   C27     1.443   1_565 S
H251   C311    1.087   .     S
H252   C386    1.087   1_455 S
N265   Zn276   2.007   .     S
N266   Zn275   2.007   .     S
O267   Zn275   2.003   .     S
O268   Zn276   2.003   .     S
O269   Zn276   1.994   .     S
O270   Zn275   1.994   .     S
O271   Zn275   1.971   .     S
O272   Zn276   1.971   .     S
O273   Zn276   1.979   .     S
O274   Zn275   1.979   .     S
O277   C278    1.411   .     S
C278   H281    1.112   .     S
C278   H280    1.114   .     S
C278   H279    1.109   .     S
O282   C283    1.412   .     S
C283   H286    1.111   .     S
C283   H284    1.110   .     S
C283   H285    1.114   .     S
O287   C288    1.410   .     S
C288   H290    1.113   .     S
C288   H289    1.109   .     S
C288   H291    1.111   .     S
O292   C293    1.412   .     S
C293   H296    1.110   .     S
C293   H294    1.109   .     S
C293   H295    1.115   .     S
C297   C317    1.452   .     S
C297   O341    1.289   .     A
C297   O343    1.292   .     A
C298   C318    1.433   .     S
C298   O344    1.287   .     A
C298   O342    1.284   .     A
C299   C301    1.407   .     A
C299   H333    1.081   .     S
C299   C307    1.412   .     A
C300   C308    1.411   .     A
C300   C302    1.405   .     A
C300   H334    1.081   .     S
C301   N339    1.362   .     A
C301   H335    1.082   .     S
C302   N340    1.361   .     A
C302   H336    1.082   .     S
C303   N339    1.367   .     A
C303   C305    1.413   .     A
C303   O361    1.381   .     S
C304   C306    1.420   .     A
C304   O366    1.388   .     S
C304   N340    1.366   .     A
C305   H337    1.081   .     S
C305   C307    1.408   .     A
C306   H338    1.080   .     S
C306   C308    1.409   .     A
C307   C752    1.517   1_554 S
C308   C751    1.517   .     S
C309   O345    1.277   .     A
C309   C311    1.401   .     S
C309   O347    1.278   .     A
C310   O348    1.278   .     A
C310   C312    1.401   .     S
C310   O346    1.277   .     A
C312   C385    1.328   .     S
C312   H400    1.087   .     S
C313   H327    1.084   .     S
C313   C323    1.396   .     A
C313   C315    1.388   .     A
C314   H328    1.082   .     S
C314   C324    1.399   .     A
C314   C316    1.398   .     A
C315   C317    1.413   .     A
C315   O351    1.383   .     S
C316   O356    1.394   .     S
C316   C318    1.405   .     A
C317   C319    1.404   .     A
C318   C320    1.397   .     A
C319   C321    1.379   .     A
C319   H329    1.083   .     S
C320   C322    1.378   .     A
C320   H330    1.084   .     S
C321   H331    1.084   .     S
C321   C323    1.394   .     A
C322   H332    1.084   .     S
C322   C324    1.396   .     A
C324   C101    1.443   1_565 S
H325   C385    1.087   .     S
N339   Zn350   2.007   .     S
N340   Zn349   2.007   .     S
O341   Zn349   2.003   .     S
O342   Zn350   2.003   .     S
O343   Zn350   1.994   .     S
O344   Zn349   1.994   .     S
O345   Zn349   1.971   .     S
O346   Zn350   1.971   .     S
O347   Zn350   1.979   .     S
O348   Zn349   1.979   .     S
O351   C352    1.411   .     S
C352   H355    1.112   .     S
C352   H354    1.114   .     S
C352   H353    1.109   .     S
O356   C357    1.412   .     S
C357   H360    1.111   .     S
C357   H358    1.110   .     S
C357   H359    1.114   .     S
O361   C362    1.410   .     S
C362   H364    1.113   .     S
C362   H363    1.109   .     S
C362   H365    1.111   .     S
O366   C367    1.412   .     S
C367   H370    1.110   .     S
C367   H368    1.109   .     S
C367   H369    1.115   .     S
C371   C391    1.452   .     S
C371   O415    1.289   .     A
C371   O417    1.292   .     A
C372   C392    1.433   .     S
C372   O418    1.287   .     A
C372   O416    1.284   .     A
C373   C375    1.407   .     A
C373   H407    1.081   .     S
C373   C381    1.412   .     A
C374   C382    1.411   .     A
C374   C376    1.405   .     A
C374   H408    1.081   .     S
C375   N413    1.362   .     A
C375   H409    1.082   .     S
C376   N414    1.361   .     A
C376   H410    1.082   .     S
C377   N413    1.367   .     A
C377   C379    1.413   .     A
C377   O435    1.381   .     S
C378   C380    1.420   .     A
C378   O440    1.388   .     S
C378   N414    1.366   .     A
C379   H411    1.081   .     S
C379   C381    1.408   .     A
C380   H412    1.080   .     S
C380   C382    1.409   .     A
C381   C826    1.517   1_554 S
C382   C825    1.517   .     S
C383   O419    1.277   .     A
C383   C385    1.401   .     S
C383   O421    1.278   .     A
C384   O422    1.278   .     A
C384   C386    1.401   .     S
C384   O420    1.277   .     A
C386   C237    1.328   1_655 S
C386   H252    1.087   1_655 S
C387   H401    1.084   .     S
C387   C397    1.396   .     A
C387   C389    1.388   .     A
C388   H402    1.082   .     S
C388   C398    1.399   .     A
C388   C390    1.398   .     A
C389   C391    1.413   .     A
C389   O425    1.383   .     S
C390   O430    1.394   .     S
C390   C392    1.405   .     A
C391   C393    1.404   .     A
C392   C394    1.397   .     A
C393   C395    1.379   .     A
C393   H403    1.083   .     S
C394   C396    1.378   .     A
C394   H404    1.084   .     S
C395   H405    1.084   .     S
C395   C397    1.394   .     A
C396   H406    1.084   .     S
C396   C398    1.396   .     A
C398   C175    1.443   1_565 S
H399   C237    1.087   1_655 S
N413   Zn424   2.007   .     S
N414   Zn423   2.007   .     S
O415   Zn423   2.003   .     S
O416   Zn424   2.003   .     S
O417   Zn424   1.994   .     S
O418   Zn423   1.994   .     S
O419   Zn423   1.971   .     S
O420   Zn424   1.971   .     S
O421   Zn424   1.979   .     S
O422   Zn423   1.979   .     S
O425   C426    1.411   .     S
C426   H429    1.112   .     S
C426   H428    1.114   .     S
C426   H427    1.109   .     S
O430   C431    1.412   .     S
C431   H434    1.111   .     S
C431   H432    1.110   .     S
C431   H433    1.114   .     S
O435   C436    1.410   .     S
C436   H438    1.113   .     S
C436   H437    1.109   .     S
C436   H439    1.111   .     S
O440   C441    1.412   .     S
C441   H444    1.110   .     S
C441   H442    1.109   .     S
C441   H443    1.115   .     S
C445   C465    1.452   .     S
C445   O489    1.289   .     A
C445   O491    1.292   .     A
C446   C466    1.433   .     S
C446   O492    1.287   .     A
C446   O490    1.284   .     A
C447   C449    1.407   .     A
C447   H481    1.081   .     S
C447   C455    1.412   .     A
C448   C456    1.411   .     A
C448   C450    1.405   .     A
C448   H482    1.081   .     S
C449   N487    1.362   .     A
C449   H483    1.082   .     S
C450   N488    1.361   .     A
C450   H484    1.082   .     S
C451   N487    1.367   .     A
C451   C453    1.413   .     A
C451   O509    1.381   .     S
C452   C454    1.420   .     A
C452   O514    1.388   .     S
C452   N488    1.366   .     A
C453   H485    1.081   .     S
C453   C455    1.408   .     A
C454   H486    1.080   .     S
C454   C456    1.409   .     A
C456   C11     1.517   1_556 S
C457   O493    1.277   .     A
C457   C459    1.401   .     S
C457   O495    1.278   .     A
C458   O496    1.278   .     A
C458   C460    1.401   .     S
C458   O494    1.277   .     A
C459   C608    1.328   1_455 S
C459   H621    1.087   1_455 S
C460   C533    1.328   .     S
C460   H548    1.087   .     S
C461   H475    1.084   .     S
C461   C471    1.396   .     A
C461   C463    1.388   .     A
C462   H476    1.082   .     S
C462   C472    1.399   .     A
C462   C464    1.398   .     A
C463   C465    1.413   .     A
C463   O499    1.383   .     S
C464   O504    1.394   .     S
C464   C466    1.405   .     A
C465   C467    1.404   .     A
C466   C468    1.397   .     A
C467   C469    1.379   .     A
C467   H477    1.083   .     S
C468   C470    1.378   .     A
C468   H478    1.084   .     S
C469   H479    1.084   .     S
C469   C471    1.394   .     A
C470   H480    1.084   .     S
C470   C472    1.396   .     A
C471   C694    1.443   1_545 S
C472   C693    1.443   .     S
H473   C533    1.087   .     S
H474   C608    1.087   1_455 S
N487   Zn498   2.007   .     S
N488   Zn497   2.007   .     S
O489   Zn497   2.003   .     S
O490   Zn498   2.003   .     S
O491   Zn498   1.994   .     S
O492   Zn497   1.994   .     S
O493   Zn497   1.971   .     S
O494   Zn498   1.971   .     S
O495   Zn498   1.979   .     S
O496   Zn497   1.979   .     S
O499   C500    1.411   .     S
C500   H503    1.112   .     S
C500   H502    1.114   .     S
C500   H501    1.109   .     S
O504   C505    1.412   .     S
C505   H508    1.111   .     S
C505   H506    1.110   .     S
C505   H507    1.114   .     S
O509   C510    1.410   .     S
C510   H512    1.113   .     S
C510   H511    1.109   .     S
C510   H513    1.111   .     S
O514   C515    1.412   .     S
C515   H518    1.110   .     S
C515   H516    1.109   .     S
C515   H517    1.115   .     S
C519   C539    1.452   .     S
C519   O563    1.289   .     A
C519   O565    1.292   .     A
C520   C540    1.433   .     S
C520   O566    1.287   .     A
C520   O564    1.284   .     A
C521   C523    1.407   .     A
C521   H555    1.081   .     S
C521   C529    1.412   .     A
C522   C530    1.411   .     A
C522   C524    1.405   .     A
C522   H556    1.081   .     S
C523   N561    1.362   .     A
C523   H557    1.082   .     S
C524   N562    1.361   .     A
C524   H558    1.082   .     S
C525   N561    1.367   .     A
C525   C527    1.413   .     A
C525   O583    1.381   .     S
C526   C528    1.420   .     A
C526   O588    1.388   .     S
C526   N562    1.366   .     A
C527   H559    1.081   .     S
C527   C529    1.408   .     A
C528   H560    1.080   .     S
C528   C530    1.409   .     A
C530   C85     1.517   1_556 S
C531   O567    1.277   .     A
C531   C533    1.401   .     S
C531   O569    1.278   .     A
C532   O570    1.278   .     A
C532   C534    1.401   .     S
C532   O568    1.277   .     A
C534   C607    1.328   .     S
C534   H622    1.087   .     S
C535   H549    1.084   .     S
C535   C545    1.396   .     A
C535   C537    1.388   .     A
C536   H550    1.082   .     S
C536   C546    1.399   .     A
C536   C538    1.398   .     A
C537   C539    1.413   .     A
C537   O573    1.383   .     S
C538   O578    1.394   .     S
C538   C540    1.405   .     A
C539   C541    1.404   .     A
C540   C542    1.397   .     A
C541   C543    1.379   .     A
C541   H551    1.083   .     S
C542   C544    1.378   .     A
C542   H552    1.084   .     S
C543   H553    1.084   .     S
C543   C545    1.394   .     A
C544   H554    1.084   .     S
C544   C546    1.396   .     A
C545   C768    1.443   1_545 S
C546   C767    1.443   .     S
H547   C607    1.087   .     S
N561   Zn572   2.007   .     S
N562   Zn571   2.007   .     S
O563   Zn571   2.003   .     S
O564   Zn572   2.003   .     S
O565   Zn572   1.994   .     S
O566   Zn571   1.994   .     S
O567   Zn571   1.971   .     S
O568   Zn572   1.971   .     S
O569   Zn572   1.979   .     S
O570   Zn571   1.979   .     S
O573   C574    1.411   .     S
C574   H577    1.112   .     S
C574   H576    1.114   .     S
C574   H575    1.109   .     S
O578   C579    1.412   .     S
C579   H582    1.111   .     S
C579   H580    1.110   .     S
C579   H581    1.114   .     S
O583   C584    1.410   .     S
C584   H586    1.113   .     S
C584   H585    1.109   .     S
C584   H587    1.111   .     S
O588   C589    1.412   .     S
C589   H592    1.110   .     S
C589   H590    1.109   .     S
C589   H591    1.115   .     S
C593   C613    1.452   .     S
C593   O637    1.289   .     A
C593   O639    1.292   .     A
C594   C614    1.433   .     S
C594   O640    1.287   .     A
C594   O638    1.284   .     A
C595   C597    1.407   .     A
C595   H629    1.081   .     S
C595   C603    1.412   .     A
C596   C604    1.411   .     A
C596   C598    1.405   .     A
C596   H630    1.081   .     S
C597   N635    1.362   .     A
C597   H631    1.082   .     S
C598   N636    1.361   .     A
C598   H632    1.082   .     S
C599   N635    1.367   .     A
C599   C601    1.413   .     A
C599   O657    1.381   .     S
C600   C602    1.420   .     A
C600   O662    1.388   .     S
C600   N636    1.366   .     A
C601   H633    1.081   .     S
C601   C603    1.408   .     A
C602   H634    1.080   .     S
C602   C604    1.409   .     A
C604   C159    1.517   1_556 S
C605   O641    1.277   .     A
C605   C607    1.401   .     S
C605   O643    1.278   .     A
C606   O644    1.278   .     A
C606   C608    1.401   .     S
C606   O642    1.277   .     A
C608   C459    1.328   1_655 S
C608   H474    1.087   1_655 S
C609   H623    1.084   .     S
C609   C619    1.396   .     A
C609   C611    1.388   .     A
C610   H624    1.082   .     S
C610   C620    1.399   .     A
C610   C612    1.398   .     A
C611   C613    1.413   .     A
C611   O647    1.383   .     S
C612   O652    1.394   .     S
C612   C614    1.405   .     A
C613   C615    1.404   .     A
C614   C616    1.397   .     A
C615   C617    1.379   .     A
C615   H625    1.083   .     S
C616   C618    1.378   .     A
C616   H626    1.084   .     S
C617   H627    1.084   .     S
C617   C619    1.394   .     A
C618   H628    1.084   .     S
C618   C620    1.396   .     A
C619   C842    1.443   1_545 S
C620   C841    1.443   .     S
H621   C459    1.087   1_655 S
N635   Zn646   2.007   .     S
N636   Zn645   2.007   .     S
O637   Zn645   2.003   .     S
O638   Zn646   2.003   .     S
O639   Zn646   1.994   .     S
O640   Zn645   1.994   .     S
O641   Zn645   1.971   .     S
O642   Zn646   1.971   .     S
O643   Zn646   1.979   .     S
O644   Zn645   1.979   .     S
O647   C648    1.411   .     S
C648   H651    1.112   .     S
C648   H650    1.114   .     S
C648   H649    1.109   .     S
O652   C653    1.412   .     S
C653   H656    1.111   .     S
C653   H654    1.110   .     S
C653   H655    1.114   .     S
O657   C658    1.410   .     S
C658   H660    1.113   .     S
C658   H659    1.109   .     S
C658   H661    1.111   .     S
O662   C663    1.412   .     S
C663   H666    1.110   .     S
C663   H664    1.109   .     S
C663   H665    1.115   .     S
C667   C687    1.452   .     S
C667   O711    1.289   .     A
C667   O713    1.292   .     A
C668   C688    1.433   .     S
C668   O714    1.287   .     A
C668   O712    1.284   .     A
C669   C671    1.407   .     A
C669   H703    1.081   .     S
C669   C677    1.412   .     A
C670   C678    1.411   .     A
C670   C672    1.405   .     A
C670   H704    1.081   .     S
C671   N709    1.362   .     A
C671   H705    1.082   .     S
C672   N710    1.361   .     A
C672   H706    1.082   .     S
C673   N709    1.367   .     A
C673   C675    1.413   .     A
C673   O731    1.381   .     S
C674   C676    1.420   .     A
C674   O736    1.388   .     S
C674   N710    1.366   .     A
C675   H707    1.081   .     S
C675   C677    1.408   .     A
C676   H708    1.080   .     S
C676   C678    1.409   .     A
C678   C233    1.517   1_556 S
C679   O715    1.277   .     A
C679   C681    1.401   .     S
C679   O717    1.278   .     A
C680   O718    1.278   .     A
C680   C682    1.401   .     S
C680   O716    1.277   .     A
C681   C830    1.328   1_455 S
C681   H843    1.087   1_455 S
C682   C755    1.328   .     S
C682   H770    1.087   .     S
C683   H697    1.084   .     S
C683   C693    1.396   .     A
C683   C685    1.388   .     A
C684   H698    1.082   .     S
C684   C694    1.399   .     A
C684   C686    1.398   .     A
C685   C687    1.413   .     A
C685   O721    1.383   .     S
C686   O726    1.394   .     S
C686   C688    1.405   .     A
C687   C689    1.404   .     A
C688   C690    1.397   .     A
C689   C691    1.379   .     A
C689   H699    1.083   .     S
C690   C692    1.378   .     A
C690   H700    1.084   .     S
C691   H701    1.084   .     S
C691   C693    1.394   .     A
C692   H702    1.084   .     S
C692   C694    1.396   .     A
C694   C471    1.443   1_565 S
H695   C755    1.087   .     S
H696   C830    1.087   1_455 S
N709   Zn720   2.007   .     S
N710   Zn719   2.007   .     S
O711   Zn719   2.003   .     S
O712   Zn720   2.003   .     S
O713   Zn720   1.994   .     S
O714   Zn719   1.994   .     S
O715   Zn719   1.971   .     S
O716   Zn720   1.971   .     S
O717   Zn720   1.979   .     S
O718   Zn719   1.979   .     S
O721   C722    1.411   .     S
C722   H725    1.112   .     S
C722   H724    1.114   .     S
C722   H723    1.109   .     S
O726   C727    1.412   .     S
C727   H730    1.111   .     S
C727   H728    1.110   .     S
C727   H729    1.114   .     S
O731   C732    1.410   .     S
C732   H734    1.113   .     S
C732   H733    1.109   .     S
C732   H735    1.111   .     S
O736   C737    1.412   .     S
C737   H740    1.110   .     S
C737   H738    1.109   .     S
C737   H739    1.115   .     S
C741   C761    1.452   .     S
C741   O785    1.289   .     A
C741   O787    1.292   .     A
C742   C762    1.433   .     S
C742   O788    1.287   .     A
C742   O786    1.284   .     A
C743   C745    1.407   .     A
C743   H777    1.081   .     S
C743   C751    1.412   .     A
C744   C752    1.411   .     A
C744   C746    1.405   .     A
C744   H778    1.081   .     S
C745   N783    1.362   .     A
C745   H779    1.082   .     S
C746   N784    1.361   .     A
C746   H780    1.082   .     S
C747   N783    1.367   .     A
C747   C749    1.413   .     A
C747   O805    1.381   .     S
C748   C750    1.420   .     A
C748   O810    1.388   .     S
C748   N784    1.366   .     A
C749   H781    1.081   .     S
C749   C751    1.408   .     A
C750   H782    1.080   .     S
C750   C752    1.409   .     A
C752   C307    1.517   1_556 S
C753   O789    1.277   .     A
C753   C755    1.401   .     S
C753   O791    1.278   .     A
C754   O792    1.278   .     A
C754   C756    1.401   .     S
C754   O790    1.277   .     A
C756   C829    1.328   .     S
C756   H844    1.087   .     S
C757   H771    1.084   .     S
C757   C767    1.396   .     A
C757   C759    1.388   .     A
C758   H772    1.082   .     S
C758   C768    1.399   .     A
C758   C760    1.398   .     A
C759   C761    1.413   .     A
C759   O795    1.383   .     S
C760   O800    1.394   .     S
C760   C762    1.405   .     A
C761   C763    1.404   .     A
C762   C764    1.397   .     A
C763   C765    1.379   .     A
C763   H773    1.083   .     S
C764   C766    1.378   .     A
C764   H774    1.084   .     S
C765   H775    1.084   .     S
C765   C767    1.394   .     A
C766   H776    1.084   .     S
C766   C768    1.396   .     A
C768   C545    1.443   1_565 S
H769   C829    1.087   .     S
N783   Zn794   2.007   .     S
N784   Zn793   2.007   .     S
O785   Zn793   2.003   .     S
O786   Zn794   2.003   .     S
O787   Zn794   1.994   .     S
O788   Zn793   1.994   .     S
O789   Zn793   1.971   .     S
O790   Zn794   1.971   .     S
O791   Zn794   1.979   .     S
O792   Zn793   1.979   .     S
O795   C796    1.411   .     S
C796   H799    1.112   .     S
C796   H798    1.114   .     S
C796   H797    1.109   .     S
O800   C801    1.412   .     S
C801   H804    1.111   .     S
C801   H802    1.110   .     S
C801   H803    1.114   .     S
O805   C806    1.410   .     S
C806   H808    1.113   .     S
C806   H807    1.109   .     S
C806   H809    1.111   .     S
O810   C811    1.412   .     S
C811   H814    1.110   .     S
C811   H812    1.109   .     S
C811   H813    1.115   .     S
C815   C835    1.452   .     S
C815   O859    1.289   .     A
C815   O861    1.292   .     A
C816   C836    1.433   .     S
C816   O862    1.287   .     A
C816   O860    1.284   .     A
C817   C819    1.407   .     A
C817   H851    1.081   .     S
C817   C825    1.412   .     A
C818   C826    1.411   .     A
C818   C820    1.405   .     A
C818   H852    1.081   .     S
C819   N857    1.362   .     A
C819   H853    1.082   .     S
C820   N858    1.361   .     A
C820   H854    1.082   .     S
C821   N857    1.367   .     A
C821   C823    1.413   .     A
C821   O879    1.381   .     S
C822   C824    1.420   .     A
C822   O884    1.388   .     S
C822   N858    1.366   .     A
C823   H855    1.081   .     S
C823   C825    1.408   .     A
C824   H856    1.080   .     S
C824   C826    1.409   .     A
C826   C381    1.517   1_556 S
C827   O863    1.277   .     A
C827   C829    1.401   .     S
C827   O865    1.278   .     A
C828   O866    1.278   .     A
C828   C830    1.401   .     S
C828   O864    1.277   .     A
C830   C681    1.328   1_655 S
C830   H696    1.087   1_655 S
C831   H845    1.084   .     S
C831   C841    1.396   .     A
C831   C833    1.388   .     A
C832   H846    1.082   .     S
C832   C842    1.399   .     A
C832   C834    1.398   .     A
C833   C835    1.413   .     A
C833   O869    1.383   .     S
C834   O874    1.394   .     S
C834   C836    1.405   .     A
C835   C837    1.404   .     A
C836   C838    1.397   .     A
C837   C839    1.379   .     A
C837   H847    1.083   .     S
C838   C840    1.378   .     A
C838   H848    1.084   .     S
C839   H849    1.084   .     S
C839   C841    1.394   .     A
C840   H850    1.084   .     S
C840   C842    1.396   .     A
C842   C619    1.443   1_565 S
H843   C681    1.087   1_655 S
N857   Zn868   2.007   .     S
N858   Zn867   2.007   .     S
O859   Zn867   2.003   .     S
O860   Zn868   2.003   .     S
O861   Zn868   1.994   .     S
O862   Zn867   1.994   .     S
O863   Zn867   1.971   .     S
O864   Zn868   1.971   .     S
O865   Zn868   1.979   .     S
O866   Zn867   1.979   .     S
O869   C870    1.411   .     S
C870   H873    1.112   .     S
C870   H872    1.114   .     S
C870   H871    1.109   .     S
O874   C875    1.412   .     S
C875   H878    1.111   .     S
C875   H876    1.110   .     S
C875   H877    1.114   .     S
O879   C880    1.410   .     S
C880   H882    1.113   .     S
C880   H881    1.109   .     S
C880   H883    1.111   .     S
O884   C885    1.412   .     S
C885   H888    1.110   .     S
C885   H886    1.109   .     S
C885   H887    1.115   .     S
