data_str_m3_o10_o16_pcu_sym.17
_audit_creation_date              2020-01-03
_audit_creation_method            'Materials Studio'
_symmetry_space_group_name_H-M    'P1'
_symmetry_Int_Tables_number       1
_symmetry_cell_setting            triclinic
loop_
_symmetry_equiv_pos_as_xyz
  x,y,z
_cell_length_a                    23.4837
_cell_length_b                    25.7114
_cell_length_c                    24.2282
_cell_angle_alpha                 92.3026
_cell_angle_beta                  101.2650
_cell_angle_gamma                 94.1887
loop_
_atom_site_label
_atom_site_type_symbol
_atom_site_fract_x
_atom_site_fract_y
_atom_site_fract_z
_atom_site_U_iso_or_equiv
_atom_site_adp_type
_atom_site_occupancy
C1     C     0.01492   0.26492   0.24875   0.00000  Uiso   1.00
C2     C     0.05300   0.16744   0.41599   0.00000  Uiso   1.00
C3     C     0.02273   0.31952   0.24823   0.00000  Uiso   1.00
C4     C     0.03535   0.16784   0.35514   0.00000  Uiso   1.00
C5     C     0.31086   0.01388   0.25258   0.00000  Uiso   1.00
C6     C     0.31851   0.06843   0.25153   0.00000  Uiso   1.00
C7     C     0.29739   0.16262   0.14484   0.00000  Uiso   1.00
C8     C     0.27037   0.09498   0.00198   0.00000  Uiso   1.00
C9     C     0.27639   0.15154   0.08512   0.00000  Uiso   1.00
C10    C     0.02441   0.19751   0.45000   0.00000  Uiso   1.00
C11    C     0.04793   0.20677   0.00693   0.00000  Uiso   1.00
C12    C     0.13168   0.15957   0.49499   0.00000  Uiso   1.00
C13    C     0.10163   0.18891   0.02935   0.00000  Uiso   1.00
C14    C     0.10324   0.14340   0.43992   0.00000  Uiso   1.00
C15    C     0.18917   0.14619   0.01334   0.00000  Uiso   1.00
C16    C     0.21376   0.10944   0.48130   0.00000  Uiso   1.00
C17    C     0.18116   0.08738   0.42998   0.00000  Uiso   1.00
C18    C     0.12614   0.10458   0.40965   0.00000  Uiso   1.00
C19    C     0.22341   0.16973   0.06245   0.00000  Uiso   1.00
C20    C     0.30099   0.11497   0.05458   0.00000  Uiso   1.00
H21    H     0.00908   0.10040   0.07224   0.00000  Uiso   1.00
H22    H     0.10101   0.08689   0.37027   0.00000  Uiso   1.00
H23    H     0.06532   0.00338   0.24416   0.00000  Uiso   1.00
H24    H     0.17587   0.03931   0.36453   0.00000  Uiso   1.00
H25    H     0.26829   0.33002   0.25675   0.00000  Uiso   1.00
H26    H     0.15655   0.12506   0.20818   0.00000  Uiso   1.00
H27    H     0.17678   0.20826   0.29184   0.00000  Uiso   1.00
H28    H     0.29009   0.06680   0.47880   0.00000  Uiso   1.00
H29    H     0.20865   0.20111   0.08558   0.00000  Uiso   1.00
H30    H     0.31827   0.21522   0.43223   0.00000  Uiso   1.00
H31    H     0.11791   0.19750   0.07384   0.00000  Uiso   1.00
H32    H     0.02556   0.22944   0.03337   0.00000  Uiso   1.00
N33    N     0.14493   0.15223   0.23543   0.00000  Uiso   1.00
N34    N     0.18840   0.18110   0.26458   0.00000  Uiso   1.00
O35    O     0.29769   0.24629   0.25358   0.00000  Uiso   1.00
O36    O     0.05742   0.23704   0.24424   0.00000  Uiso   1.00
O37    O     0.31490   0.17358   0.33380   0.00000  Uiso   1.00
O38    O     0.07463   0.16433   0.32446   0.00000  Uiso   1.00
O39    O     0.27592   0.09629   0.25577   0.00000  Uiso   1.00
O40    O     0.03565   0.08704   0.24643   0.00000  Uiso   1.00
O41    O     0.25870   0.16901   0.17554   0.00000  Uiso   1.00
O42    O     0.01843   0.15976   0.16620   0.00000  Uiso   1.00
O43    O     0.20411   0.05011   0.39992   0.00000  Uiso   1.00
Zn44   Zn    0.27119   0.17284   0.25624   0.00000  Uiso   1.00
Zn45   Zn    0.06214   0.16049   0.24377   0.00000  Uiso   1.00
C46    C     0.34825   0.26492   0.24875   0.00000  Uiso   1.00
C47    C     0.38633   0.16744   0.41599   0.00000  Uiso   1.00
C48    C     0.35606   0.31952   0.24823   0.00000  Uiso   1.00
C49    C     0.36868   0.16784   0.35514   0.00000  Uiso   1.00
C50    C     0.64419   0.01388   0.25258   0.00000  Uiso   1.00
C51    C     0.65184   0.06843   0.25153   0.00000  Uiso   1.00
C52    C     0.63073   0.16262   0.14484   0.00000  Uiso   1.00
C53    C     0.60370   0.09498   0.00198   0.00000  Uiso   1.00
C54    C     0.60972   0.15154   0.08512   0.00000  Uiso   1.00
C55    C     0.35774   0.19751   0.45000   0.00000  Uiso   1.00
C56    C     0.38126   0.20677   0.00693   0.00000  Uiso   1.00
C57    C     0.46501   0.15957   0.49499   0.00000  Uiso   1.00
C58    C     0.43496   0.18891   0.02935   0.00000  Uiso   1.00
C59    C     0.43657   0.14340   0.43992   0.00000  Uiso   1.00
C60    C     0.52251   0.14619   0.01334   0.00000  Uiso   1.00
C61    C     0.54709   0.10944   0.48130   0.00000  Uiso   1.00
C62    C     0.51450   0.08738   0.42998   0.00000  Uiso   1.00
C63    C     0.45947   0.10458   0.40965   0.00000  Uiso   1.00
C64    C     0.55674   0.16973   0.06245   0.00000  Uiso   1.00
C65    C     0.63432   0.11497   0.05458   0.00000  Uiso   1.00
H66    H     0.34241   0.10040   0.07224   0.00000  Uiso   1.00
H67    H     0.43434   0.08689   0.37027   0.00000  Uiso   1.00
H68    H     0.39865   0.00338   0.24416   0.00000  Uiso   1.00
H69    H     0.50920   0.03931   0.36453   0.00000  Uiso   1.00
H70    H     0.60163   0.33002   0.25675   0.00000  Uiso   1.00
H71    H     0.48989   0.12506   0.20818   0.00000  Uiso   1.00
H72    H     0.51011   0.20826   0.29184   0.00000  Uiso   1.00
H73    H     0.62343   0.06680   0.47880   0.00000  Uiso   1.00
H74    H     0.54198   0.20111   0.08558   0.00000  Uiso   1.00
H75    H     0.65160   0.21522   0.43223   0.00000  Uiso   1.00
H76    H     0.45124   0.19750   0.07384   0.00000  Uiso   1.00
H77    H     0.35889   0.22944   0.03337   0.00000  Uiso   1.00
N78    N     0.47827   0.15223   0.23543   0.00000  Uiso   1.00
N79    N     0.52173   0.18110   0.26458   0.00000  Uiso   1.00
O80    O     0.63102   0.24629   0.25358   0.00000  Uiso   1.00
O81    O     0.39075   0.23704   0.24424   0.00000  Uiso   1.00
O82    O     0.64823   0.17358   0.33380   0.00000  Uiso   1.00
O83    O     0.40796   0.16433   0.32446   0.00000  Uiso   1.00
O84    O     0.60925   0.09629   0.25577   0.00000  Uiso   1.00
O85    O     0.36898   0.08704   0.24643   0.00000  Uiso   1.00
O86    O     0.59204   0.16901   0.17554   0.00000  Uiso   1.00
O87    O     0.35177   0.15976   0.16620   0.00000  Uiso   1.00
O88    O     0.53745   0.05011   0.39992   0.00000  Uiso   1.00
Zn89   Zn    0.60453   0.17284   0.25624   0.00000  Uiso   1.00
Zn90   Zn    0.39547   0.16049   0.24377   0.00000  Uiso   1.00
C91    C     0.68158   0.26492   0.24875   0.00000  Uiso   1.00
C92    C     0.71966   0.16744   0.41599   0.00000  Uiso   1.00
C93    C     0.68940   0.31952   0.24823   0.00000  Uiso   1.00
C94    C     0.70202   0.16784   0.35514   0.00000  Uiso   1.00
C95    C     0.97753   0.01388   0.25258   0.00000  Uiso   1.00
C96    C     0.98517   0.06843   0.25153   0.00000  Uiso   1.00
C97    C     0.96406   0.16262   0.14484   0.00000  Uiso   1.00
C98    C     0.93704   0.09498   0.00198   0.00000  Uiso   1.00
C99    C     0.94305   0.15154   0.08512   0.00000  Uiso   1.00
C100   C     0.69108   0.19751   0.45000   0.00000  Uiso   1.00
C101   C     0.71460   0.20677   0.00693   0.00000  Uiso   1.00
C102   C     0.79834   0.15957   0.49499   0.00000  Uiso   1.00
C103   C     0.76829   0.18891   0.02935   0.00000  Uiso   1.00
C104   C     0.76991   0.14340   0.43992   0.00000  Uiso   1.00
C105   C     0.85584   0.14619   0.01334   0.00000  Uiso   1.00
C106   C     0.88043   0.10944   0.48130   0.00000  Uiso   1.00
C107   C     0.84783   0.08738   0.42998   0.00000  Uiso   1.00
C108   C     0.79281   0.10458   0.40965   0.00000  Uiso   1.00
C109   C     0.89007   0.16973   0.06245   0.00000  Uiso   1.00
C110   C     0.96766   0.11497   0.05458   0.00000  Uiso   1.00
H111   H     0.67575   0.10040   0.07224   0.00000  Uiso   1.00
H112   H     0.76767   0.08689   0.37027   0.00000  Uiso   1.00
H113   H     0.73199   0.00338   0.24416   0.00000  Uiso   1.00
H114   H     0.84253   0.03931   0.36453   0.00000  Uiso   1.00
H115   H     0.93496   0.33002   0.25675   0.00000  Uiso   1.00
H116   H     0.82322   0.12506   0.20818   0.00000  Uiso   1.00
H117   H     0.84345   0.20826   0.29184   0.00000  Uiso   1.00
H118   H     0.95676   0.06680   0.47880   0.00000  Uiso   1.00
H119   H     0.87531   0.20111   0.08558   0.00000  Uiso   1.00
H120   H     0.98493   0.21522   0.43223   0.00000  Uiso   1.00
H121   H     0.78457   0.19750   0.07384   0.00000  Uiso   1.00
H122   H     0.69222   0.22944   0.03337   0.00000  Uiso   1.00
N123   N     0.81160   0.15223   0.23543   0.00000  Uiso   1.00
N124   N     0.85507   0.18110   0.26458   0.00000  Uiso   1.00
O125   O     0.96435   0.24629   0.25358   0.00000  Uiso   1.00
O126   O     0.72408   0.23704   0.24424   0.00000  Uiso   1.00
O127   O     0.98157   0.17358   0.33380   0.00000  Uiso   1.00
O128   O     0.74130   0.16433   0.32446   0.00000  Uiso   1.00
O129   O     0.94258   0.09629   0.25577   0.00000  Uiso   1.00
O130   O     0.70231   0.08704   0.24643   0.00000  Uiso   1.00
O131   O     0.92537   0.16901   0.17554   0.00000  Uiso   1.00
O132   O     0.68510   0.15976   0.16620   0.00000  Uiso   1.00
O133   O     0.87078   0.05011   0.39992   0.00000  Uiso   1.00
Zn134  Zn    0.93786   0.17284   0.25624   0.00000  Uiso   1.00
Zn135  Zn    0.72881   0.16049   0.24377   0.00000  Uiso   1.00
C136   C     0.01492   0.59825   0.24875   0.00000  Uiso   1.00
C137   C     0.05300   0.50078   0.41599   0.00000  Uiso   1.00
C138   C     0.02273   0.65285   0.24823   0.00000  Uiso   1.00
C139   C     0.03535   0.50117   0.35514   0.00000  Uiso   1.00
C140   C     0.31086   0.34721   0.25258   0.00000  Uiso   1.00
C141   C     0.31851   0.40176   0.25153   0.00000  Uiso   1.00
C142   C     0.29739   0.49596   0.14484   0.00000  Uiso   1.00
C143   C     0.27037   0.42832   0.00198   0.00000  Uiso   1.00
C144   C     0.27639   0.48487   0.08512   0.00000  Uiso   1.00
C145   C     0.02441   0.53084   0.45000   0.00000  Uiso   1.00
C146   C     0.04793   0.54010   0.00693   0.00000  Uiso   1.00
C147   C     0.13168   0.49290   0.49499   0.00000  Uiso   1.00
C148   C     0.10163   0.52225   0.02935   0.00000  Uiso   1.00
C149   C     0.10324   0.47673   0.43992   0.00000  Uiso   1.00
C150   C     0.18917   0.47953   0.01334   0.00000  Uiso   1.00
C151   C     0.21376   0.44277   0.48130   0.00000  Uiso   1.00
C152   C     0.18116   0.42071   0.42998   0.00000  Uiso   1.00
C153   C     0.12614   0.43791   0.40965   0.00000  Uiso   1.00
C154   C     0.22341   0.50307   0.06245   0.00000  Uiso   1.00
C155   C     0.30099   0.44830   0.05458   0.00000  Uiso   1.00
H156   H     0.00908   0.43373   0.07224   0.00000  Uiso   1.00
H157   H     0.10101   0.42022   0.37027   0.00000  Uiso   1.00
H158   H     0.06532   0.33672   0.24416   0.00000  Uiso   1.00
H159   H     0.17587   0.37264   0.36453   0.00000  Uiso   1.00
H160   H     0.26829   0.66335   0.25675   0.00000  Uiso   1.00
H161   H     0.15655   0.45839   0.20818   0.00000  Uiso   1.00
H162   H     0.17678   0.54160   0.29184   0.00000  Uiso   1.00
H163   H     0.29009   0.40014   0.47880   0.00000  Uiso   1.00
H164   H     0.20865   0.53445   0.08558   0.00000  Uiso   1.00
H165   H     0.31827   0.54855   0.43223   0.00000  Uiso   1.00
H166   H     0.11791   0.53084   0.07384   0.00000  Uiso   1.00
H167   H     0.02556   0.56277   0.03337   0.00000  Uiso   1.00
N168   N     0.14493   0.48556   0.23543   0.00000  Uiso   1.00
N169   N     0.18840   0.51444   0.26458   0.00000  Uiso   1.00
O170   O     0.29769   0.57963   0.25358   0.00000  Uiso   1.00
O171   O     0.05742   0.57038   0.24424   0.00000  Uiso   1.00
O172   O     0.31490   0.50691   0.33380   0.00000  Uiso   1.00
O173   O     0.07463   0.49766   0.32446   0.00000  Uiso   1.00
O174   O     0.27592   0.42962   0.25577   0.00000  Uiso   1.00
O175   O     0.03565   0.42037   0.24643   0.00000  Uiso   1.00
O176   O     0.25870   0.50234   0.17554   0.00000  Uiso   1.00
O177   O     0.01843   0.49309   0.16620   0.00000  Uiso   1.00
O178   O     0.20411   0.38344   0.39992   0.00000  Uiso   1.00
Zn179  Zn    0.27119   0.50618   0.25624   0.00000  Uiso   1.00
Zn180  Zn    0.06214   0.49382   0.24377   0.00000  Uiso   1.00
C181   C     0.34825   0.59825   0.24875   0.00000  Uiso   1.00
C182   C     0.38633   0.50078   0.41599   0.00000  Uiso   1.00
C183   C     0.35606   0.65285   0.24823   0.00000  Uiso   1.00
C184   C     0.36868   0.50117   0.35514   0.00000  Uiso   1.00
C185   C     0.64419   0.34721   0.25258   0.00000  Uiso   1.00
C186   C     0.65184   0.40176   0.25153   0.00000  Uiso   1.00
C187   C     0.63073   0.49596   0.14484   0.00000  Uiso   1.00
C188   C     0.60370   0.42832   0.00198   0.00000  Uiso   1.00
C189   C     0.60972   0.48487   0.08512   0.00000  Uiso   1.00
C190   C     0.35774   0.53084   0.45000   0.00000  Uiso   1.00
C191   C     0.38126   0.54010   0.00693   0.00000  Uiso   1.00
C192   C     0.46501   0.49290   0.49499   0.00000  Uiso   1.00
C193   C     0.43496   0.52225   0.02935   0.00000  Uiso   1.00
C194   C     0.43657   0.47673   0.43992   0.00000  Uiso   1.00
C195   C     0.52251   0.47953   0.01334   0.00000  Uiso   1.00
C196   C     0.54709   0.44277   0.48130   0.00000  Uiso   1.00
C197   C     0.51450   0.42071   0.42998   0.00000  Uiso   1.00
C198   C     0.45947   0.43791   0.40965   0.00000  Uiso   1.00
C199   C     0.55674   0.50307   0.06245   0.00000  Uiso   1.00
C200   C     0.63432   0.44830   0.05458   0.00000  Uiso   1.00
H201   H     0.34241   0.43373   0.07224   0.00000  Uiso   1.00
H202   H     0.43434   0.42022   0.37027   0.00000  Uiso   1.00
H203   H     0.39865   0.33672   0.24416   0.00000  Uiso   1.00
H204   H     0.50920   0.37264   0.36453   0.00000  Uiso   1.00
H205   H     0.60163   0.66335   0.25675   0.00000  Uiso   1.00
H206   H     0.48989   0.45839   0.20818   0.00000  Uiso   1.00
H207   H     0.51011   0.54160   0.29184   0.00000  Uiso   1.00
H208   H     0.62343   0.40014   0.47880   0.00000  Uiso   1.00
H209   H     0.54198   0.53445   0.08558   0.00000  Uiso   1.00
H210   H     0.65160   0.54855   0.43223   0.00000  Uiso   1.00
H211   H     0.45124   0.53084   0.07384   0.00000  Uiso   1.00
H212   H     0.35889   0.56277   0.03337   0.00000  Uiso   1.00
N213   N     0.47827   0.48556   0.23543   0.00000  Uiso   1.00
N214   N     0.52173   0.51444   0.26458   0.00000  Uiso   1.00
O215   O     0.63102   0.57963   0.25358   0.00000  Uiso   1.00
O216   O     0.39075   0.57038   0.24424   0.00000  Uiso   1.00
O217   O     0.64823   0.50691   0.33380   0.00000  Uiso   1.00
O218   O     0.40796   0.49766   0.32446   0.00000  Uiso   1.00
O219   O     0.60925   0.42962   0.25577   0.00000  Uiso   1.00
O220   O     0.36898   0.42037   0.24643   0.00000  Uiso   1.00
O221   O     0.59204   0.50234   0.17554   0.00000  Uiso   1.00
O222   O     0.35177   0.49309   0.16620   0.00000  Uiso   1.00
O223   O     0.53745   0.38344   0.39992   0.00000  Uiso   1.00
Zn224  Zn    0.60453   0.50618   0.25624   0.00000  Uiso   1.00
Zn225  Zn    0.39547   0.49382   0.24377   0.00000  Uiso   1.00
C226   C     0.68158   0.59825   0.24875   0.00000  Uiso   1.00
C227   C     0.71966   0.50078   0.41599   0.00000  Uiso   1.00
C228   C     0.68940   0.65285   0.24823   0.00000  Uiso   1.00
C229   C     0.70202   0.50117   0.35514   0.00000  Uiso   1.00
C230   C     0.97753   0.34721   0.25258   0.00000  Uiso   1.00
C231   C     0.98517   0.40176   0.25153   0.00000  Uiso   1.00
C232   C     0.96406   0.49596   0.14484   0.00000  Uiso   1.00
C233   C     0.93704   0.42832   0.00198   0.00000  Uiso   1.00
C234   C     0.94305   0.48487   0.08512   0.00000  Uiso   1.00
C235   C     0.69108   0.53084   0.45000   0.00000  Uiso   1.00
C236   C     0.71460   0.54010   0.00693   0.00000  Uiso   1.00
C237   C     0.79834   0.49290   0.49499   0.00000  Uiso   1.00
C238   C     0.76829   0.52225   0.02935   0.00000  Uiso   1.00
C239   C     0.76991   0.47673   0.43992   0.00000  Uiso   1.00
C240   C     0.85584   0.47953   0.01334   0.00000  Uiso   1.00
C241   C     0.88043   0.44277   0.48130   0.00000  Uiso   1.00
C242   C     0.84783   0.42071   0.42998   0.00000  Uiso   1.00
C243   C     0.79281   0.43791   0.40965   0.00000  Uiso   1.00
C244   C     0.89007   0.50307   0.06245   0.00000  Uiso   1.00
C245   C     0.96766   0.44830   0.05458   0.00000  Uiso   1.00
H246   H     0.67575   0.43373   0.07224   0.00000  Uiso   1.00
H247   H     0.76767   0.42022   0.37027   0.00000  Uiso   1.00
H248   H     0.73199   0.33672   0.24416   0.00000  Uiso   1.00
H249   H     0.84253   0.37264   0.36453   0.00000  Uiso   1.00
H250   H     0.93496   0.66335   0.25675   0.00000  Uiso   1.00
H251   H     0.82322   0.45839   0.20818   0.00000  Uiso   1.00
H252   H     0.84345   0.54160   0.29184   0.00000  Uiso   1.00
H253   H     0.95676   0.40014   0.47880   0.00000  Uiso   1.00
H254   H     0.87531   0.53445   0.08558   0.00000  Uiso   1.00
H255   H     0.98493   0.54855   0.43223   0.00000  Uiso   1.00
H256   H     0.78457   0.53084   0.07384   0.00000  Uiso   1.00
H257   H     0.69222   0.56277   0.03337   0.00000  Uiso   1.00
N258   N     0.81160   0.48556   0.23543   0.00000  Uiso   1.00
N259   N     0.85507   0.51444   0.26458   0.00000  Uiso   1.00
O260   O     0.96435   0.57963   0.25358   0.00000  Uiso   1.00
O261   O     0.72408   0.57038   0.24424   0.00000  Uiso   1.00
O262   O     0.98157   0.50691   0.33380   0.00000  Uiso   1.00
O263   O     0.74130   0.49766   0.32446   0.00000  Uiso   1.00
O264   O     0.94258   0.42962   0.25577   0.00000  Uiso   1.00
O265   O     0.70231   0.42037   0.24643   0.00000  Uiso   1.00
O266   O     0.92537   0.50234   0.17554   0.00000  Uiso   1.00
O267   O     0.68510   0.49309   0.16620   0.00000  Uiso   1.00
O268   O     0.87078   0.38344   0.39992   0.00000  Uiso   1.00
Zn269  Zn    0.93786   0.50618   0.25624   0.00000  Uiso   1.00
Zn270  Zn    0.72881   0.49382   0.24377   0.00000  Uiso   1.00
C271   C     0.01492   0.93159   0.24875   0.00000  Uiso   1.00
C272   C     0.05300   0.83411   0.41599   0.00000  Uiso   1.00
C273   C     0.02273   0.98618   0.24823   0.00000  Uiso   1.00
C274   C     0.03535   0.83451   0.35514   0.00000  Uiso   1.00
C275   C     0.31086   0.68054   0.25258   0.00000  Uiso   1.00
C276   C     0.31851   0.73510   0.25153   0.00000  Uiso   1.00
C277   C     0.29739   0.82929   0.14484   0.00000  Uiso   1.00
C278   C     0.27037   0.76165   0.00198   0.00000  Uiso   1.00
C279   C     0.27639   0.81820   0.08512   0.00000  Uiso   1.00
C280   C     0.02441   0.86417   0.45000   0.00000  Uiso   1.00
C281   C     0.04793   0.87343   0.00693   0.00000  Uiso   1.00
C282   C     0.13168   0.82624   0.49499   0.00000  Uiso   1.00
C283   C     0.10163   0.85558   0.02935   0.00000  Uiso   1.00
C284   C     0.10324   0.81007   0.43992   0.00000  Uiso   1.00
C285   C     0.18917   0.81286   0.01334   0.00000  Uiso   1.00
C286   C     0.21376   0.77611   0.48130   0.00000  Uiso   1.00
C287   C     0.18116   0.75404   0.42998   0.00000  Uiso   1.00
C288   C     0.12614   0.77124   0.40965   0.00000  Uiso   1.00
C289   C     0.22341   0.83640   0.06245   0.00000  Uiso   1.00
C290   C     0.30099   0.78164   0.05458   0.00000  Uiso   1.00
H291   H     0.00908   0.76707   0.07224   0.00000  Uiso   1.00
H292   H     0.10101   0.75356   0.37027   0.00000  Uiso   1.00
H293   H     0.06532   0.67005   0.24416   0.00000  Uiso   1.00
H294   H     0.17587   0.70597   0.36453   0.00000  Uiso   1.00
H295   H     0.26829   0.99668   0.25675   0.00000  Uiso   1.00
H296   H     0.15655   0.79172   0.20818   0.00000  Uiso   1.00
H297   H     0.17678   0.87493   0.29184   0.00000  Uiso   1.00
H298   H     0.29009   0.73347   0.47880   0.00000  Uiso   1.00
H299   H     0.20865   0.86778   0.08558   0.00000  Uiso   1.00
H300   H     0.31827   0.88189   0.43223   0.00000  Uiso   1.00
H301   H     0.11791   0.86417   0.07384   0.00000  Uiso   1.00
H302   H     0.02556   0.89610   0.03337   0.00000  Uiso   1.00
N303   N     0.14493   0.81890   0.23543   0.00000  Uiso   1.00
N304   N     0.18840   0.84777   0.26458   0.00000  Uiso   1.00
O305   O     0.29769   0.91296   0.25358   0.00000  Uiso   1.00
O306   O     0.05742   0.90371   0.24424   0.00000  Uiso   1.00
O307   O     0.31490   0.84024   0.33380   0.00000  Uiso   1.00
O308   O     0.07463   0.83099   0.32446   0.00000  Uiso   1.00
O309   O     0.27592   0.76296   0.25577   0.00000  Uiso   1.00
O310   O     0.03565   0.75371   0.24643   0.00000  Uiso   1.00
O311   O     0.25870   0.83567   0.17554   0.00000  Uiso   1.00
O312   O     0.01843   0.82642   0.16620   0.00000  Uiso   1.00
O313   O     0.20411   0.71677   0.39992   0.00000  Uiso   1.00
Zn314  Zn    0.27119   0.83951   0.25624   0.00000  Uiso   1.00
Zn315  Zn    0.06214   0.82716   0.24377   0.00000  Uiso   1.00
C316   C     0.34825   0.93159   0.24875   0.00000  Uiso   1.00
C317   C     0.38633   0.83411   0.41599   0.00000  Uiso   1.00
C318   C     0.35606   0.98618   0.24823   0.00000  Uiso   1.00
C319   C     0.36868   0.83451   0.35514   0.00000  Uiso   1.00
C320   C     0.64419   0.68054   0.25258   0.00000  Uiso   1.00
C321   C     0.65184   0.73510   0.25153   0.00000  Uiso   1.00
C322   C     0.63073   0.82929   0.14484   0.00000  Uiso   1.00
C323   C     0.60370   0.76165   0.00198   0.00000  Uiso   1.00
C324   C     0.60972   0.81820   0.08512   0.00000  Uiso   1.00
C325   C     0.35774   0.86417   0.45000   0.00000  Uiso   1.00
C326   C     0.38126   0.87343   0.00693   0.00000  Uiso   1.00
C327   C     0.46501   0.82624   0.49499   0.00000  Uiso   1.00
C328   C     0.43496   0.85558   0.02935   0.00000  Uiso   1.00
C329   C     0.43657   0.81007   0.43992   0.00000  Uiso   1.00
C330   C     0.52251   0.81286   0.01334   0.00000  Uiso   1.00
C331   C     0.54709   0.77611   0.48130   0.00000  Uiso   1.00
C332   C     0.51450   0.75404   0.42998   0.00000  Uiso   1.00
C333   C     0.45947   0.77124   0.40965   0.00000  Uiso   1.00
C334   C     0.55674   0.83640   0.06245   0.00000  Uiso   1.00
C335   C     0.63432   0.78164   0.05458   0.00000  Uiso   1.00
H336   H     0.34241   0.76707   0.07224   0.00000  Uiso   1.00
H337   H     0.43434   0.75356   0.37027   0.00000  Uiso   1.00
H338   H     0.39865   0.67005   0.24416   0.00000  Uiso   1.00
H339   H     0.50920   0.70597   0.36453   0.00000  Uiso   1.00
H340   H     0.60163   0.99668   0.25675   0.00000  Uiso   1.00
H341   H     0.48989   0.79172   0.20818   0.00000  Uiso   1.00
H342   H     0.51011   0.87493   0.29184   0.00000  Uiso   1.00
H343   H     0.62343   0.73347   0.47880   0.00000  Uiso   1.00
H344   H     0.54198   0.86778   0.08558   0.00000  Uiso   1.00
H345   H     0.65160   0.88189   0.43223   0.00000  Uiso   1.00
H346   H     0.45124   0.86417   0.07384   0.00000  Uiso   1.00
H347   H     0.35889   0.89610   0.03337   0.00000  Uiso   1.00
N348   N     0.47827   0.81890   0.23543   0.00000  Uiso   1.00
N349   N     0.52173   0.84777   0.26458   0.00000  Uiso   1.00
O350   O     0.63102   0.91296   0.25358   0.00000  Uiso   1.00
O351   O     0.39075   0.90371   0.24424   0.00000  Uiso   1.00
O352   O     0.64823   0.84024   0.33380   0.00000  Uiso   1.00
O353   O     0.40796   0.83099   0.32446   0.00000  Uiso   1.00
O354   O     0.60925   0.76296   0.25577   0.00000  Uiso   1.00
O355   O     0.36898   0.75371   0.24643   0.00000  Uiso   1.00
O356   O     0.59204   0.83567   0.17554   0.00000  Uiso   1.00
O357   O     0.35177   0.82642   0.16620   0.00000  Uiso   1.00
O358   O     0.53745   0.71677   0.39992   0.00000  Uiso   1.00
Zn359  Zn    0.60453   0.83951   0.25624   0.00000  Uiso   1.00
Zn360  Zn    0.39547   0.82716   0.24377   0.00000  Uiso   1.00
C361   C     0.68158   0.93159   0.24875   0.00000  Uiso   1.00
C362   C     0.71966   0.83411   0.41599   0.00000  Uiso   1.00
C363   C     0.68940   0.98618   0.24823   0.00000  Uiso   1.00
C364   C     0.70202   0.83451   0.35514   0.00000  Uiso   1.00
C365   C     0.97753   0.68054   0.25258   0.00000  Uiso   1.00
C366   C     0.98517   0.73510   0.25153   0.00000  Uiso   1.00
C367   C     0.96406   0.82929   0.14484   0.00000  Uiso   1.00
C368   C     0.93704   0.76165   0.00198   0.00000  Uiso   1.00
C369   C     0.94305   0.81820   0.08512   0.00000  Uiso   1.00
C370   C     0.69108   0.86417   0.45000   0.00000  Uiso   1.00
C371   C     0.71460   0.87343   0.00693   0.00000  Uiso   1.00
C372   C     0.79834   0.82624   0.49499   0.00000  Uiso   1.00
C373   C     0.76829   0.85558   0.02935   0.00000  Uiso   1.00
C374   C     0.76991   0.81007   0.43992   0.00000  Uiso   1.00
C375   C     0.85584   0.81286   0.01334   0.00000  Uiso   1.00
C376   C     0.88043   0.77611   0.48130   0.00000  Uiso   1.00
C377   C     0.84783   0.75404   0.42998   0.00000  Uiso   1.00
C378   C     0.79281   0.77124   0.40965   0.00000  Uiso   1.00
C379   C     0.89007   0.83640   0.06245   0.00000  Uiso   1.00
C380   C     0.96766   0.78164   0.05458   0.00000  Uiso   1.00
H381   H     0.67575   0.76707   0.07224   0.00000  Uiso   1.00
H382   H     0.76767   0.75356   0.37027   0.00000  Uiso   1.00
H383   H     0.73199   0.67005   0.24416   0.00000  Uiso   1.00
H384   H     0.84253   0.70597   0.36453   0.00000  Uiso   1.00
H385   H     0.93496   0.99668   0.25675   0.00000  Uiso   1.00
H386   H     0.82322   0.79172   0.20818   0.00000  Uiso   1.00
H387   H     0.84345   0.87493   0.29184   0.00000  Uiso   1.00
H388   H     0.95676   0.73347   0.47880   0.00000  Uiso   1.00
H389   H     0.87531   0.86778   0.08558   0.00000  Uiso   1.00
H390   H     0.98493   0.88189   0.43223   0.00000  Uiso   1.00
H391   H     0.78457   0.86417   0.07384   0.00000  Uiso   1.00
H392   H     0.69222   0.89610   0.03337   0.00000  Uiso   1.00
N393   N     0.81160   0.81890   0.23543   0.00000  Uiso   1.00
N394   N     0.85507   0.84777   0.26458   0.00000  Uiso   1.00
O395   O     0.96435   0.91296   0.25358   0.00000  Uiso   1.00
O396   O     0.72408   0.90371   0.24424   0.00000  Uiso   1.00
O397   O     0.98157   0.84024   0.33380   0.00000  Uiso   1.00
O398   O     0.74130   0.83099   0.32446   0.00000  Uiso   1.00
O399   O     0.94258   0.76296   0.25577   0.00000  Uiso   1.00
O400   O     0.70231   0.75371   0.24643   0.00000  Uiso   1.00
O401   O     0.92537   0.83567   0.17554   0.00000  Uiso   1.00
O402   O     0.68510   0.82642   0.16620   0.00000  Uiso   1.00
O403   O     0.87078   0.71677   0.39992   0.00000  Uiso   1.00
Zn404  Zn    0.93786   0.83951   0.25624   0.00000  Uiso   1.00
Zn405  Zn    0.72881   0.82716   0.24377   0.00000  Uiso   1.00
C406   C     0.01492   0.26492   0.74875   0.00000  Uiso   1.00
C407   C     0.05300   0.16744   0.91599   0.00000  Uiso   1.00
C408   C     0.02273   0.31952   0.74823   0.00000  Uiso   1.00
C409   C     0.03535   0.16784   0.85514   0.00000  Uiso   1.00
C410   C     0.31086   0.01388   0.75258   0.00000  Uiso   1.00
C411   C     0.31851   0.06843   0.75153   0.00000  Uiso   1.00
C412   C     0.29739   0.16262   0.64484   0.00000  Uiso   1.00
C413   C     0.27037   0.09498   0.50198   0.00000  Uiso   1.00
C414   C     0.27639   0.15154   0.58512   0.00000  Uiso   1.00
C415   C     0.02441   0.19751   0.95000   0.00000  Uiso   1.00
C416   C     0.04793   0.20677   0.50693   0.00000  Uiso   1.00
C417   C     0.13168   0.15957   0.99499   0.00000  Uiso   1.00
C418   C     0.10163   0.18891   0.52935   0.00000  Uiso   1.00
C419   C     0.10324   0.14340   0.93992   0.00000  Uiso   1.00
C420   C     0.18917   0.14619   0.51334   0.00000  Uiso   1.00
C421   C     0.21376   0.10944   0.98130   0.00000  Uiso   1.00
C422   C     0.18116   0.08738   0.92998   0.00000  Uiso   1.00
C423   C     0.12614   0.10458   0.90965   0.00000  Uiso   1.00
C424   C     0.22341   0.16973   0.56245   0.00000  Uiso   1.00
C425   C     0.30099   0.11497   0.55458   0.00000  Uiso   1.00
H426   H     0.00908   0.10040   0.57224   0.00000  Uiso   1.00
H427   H     0.10101   0.08689   0.87027   0.00000  Uiso   1.00
H428   H     0.06532   0.00338   0.74416   0.00000  Uiso   1.00
H429   H     0.17587   0.03931   0.86453   0.00000  Uiso   1.00
H430   H     0.26829   0.33002   0.75675   0.00000  Uiso   1.00
H431   H     0.15655   0.12506   0.70818   0.00000  Uiso   1.00
H432   H     0.17678   0.20826   0.79184   0.00000  Uiso   1.00
H433   H     0.29009   0.06680   0.97880   0.00000  Uiso   1.00
H434   H     0.20865   0.20111   0.58558   0.00000  Uiso   1.00
H435   H     0.31827   0.21522   0.93223   0.00000  Uiso   1.00
H436   H     0.11791   0.19750   0.57384   0.00000  Uiso   1.00
H437   H     0.02556   0.22944   0.53337   0.00000  Uiso   1.00
N438   N     0.14493   0.15223   0.73543   0.00000  Uiso   1.00
N439   N     0.18840   0.18110   0.76458   0.00000  Uiso   1.00
O440   O     0.29769   0.24629   0.75358   0.00000  Uiso   1.00
O441   O     0.05742   0.23704   0.74424   0.00000  Uiso   1.00
O442   O     0.31490   0.17358   0.83380   0.00000  Uiso   1.00
O443   O     0.07463   0.16433   0.82446   0.00000  Uiso   1.00
O444   O     0.27592   0.09629   0.75577   0.00000  Uiso   1.00
O445   O     0.03565   0.08704   0.74643   0.00000  Uiso   1.00
O446   O     0.25870   0.16901   0.67554   0.00000  Uiso   1.00
O447   O     0.01843   0.15976   0.66620   0.00000  Uiso   1.00
O448   O     0.20411   0.05011   0.89992   0.00000  Uiso   1.00
Zn449  Zn    0.27119   0.17284   0.75624   0.00000  Uiso   1.00
Zn450  Zn    0.06214   0.16049   0.74377   0.00000  Uiso   1.00
C451   C     0.34825   0.26492   0.74875   0.00000  Uiso   1.00
C452   C     0.38633   0.16744   0.91599   0.00000  Uiso   1.00
C453   C     0.35606   0.31952   0.74823   0.00000  Uiso   1.00
C454   C     0.36868   0.16784   0.85514   0.00000  Uiso   1.00
C455   C     0.64419   0.01388   0.75258   0.00000  Uiso   1.00
C456   C     0.65184   0.06843   0.75153   0.00000  Uiso   1.00
C457   C     0.63073   0.16262   0.64484   0.00000  Uiso   1.00
C458   C     0.60370   0.09498   0.50198   0.00000  Uiso   1.00
C459   C     0.60972   0.15154   0.58512   0.00000  Uiso   1.00
C460   C     0.35774   0.19751   0.95000   0.00000  Uiso   1.00
C461   C     0.38126   0.20677   0.50693   0.00000  Uiso   1.00
C462   C     0.46501   0.15957   0.99499   0.00000  Uiso   1.00
C463   C     0.43496   0.18891   0.52935   0.00000  Uiso   1.00
C464   C     0.43657   0.14340   0.93992   0.00000  Uiso   1.00
C465   C     0.52251   0.14619   0.51334   0.00000  Uiso   1.00
C466   C     0.54709   0.10944   0.98130   0.00000  Uiso   1.00
C467   C     0.51450   0.08738   0.92998   0.00000  Uiso   1.00
C468   C     0.45947   0.10458   0.90965   0.00000  Uiso   1.00
C469   C     0.55674   0.16973   0.56245   0.00000  Uiso   1.00
C470   C     0.63432   0.11497   0.55458   0.00000  Uiso   1.00
H471   H     0.34241   0.10040   0.57224   0.00000  Uiso   1.00
H472   H     0.43434   0.08689   0.87027   0.00000  Uiso   1.00
H473   H     0.39865   0.00338   0.74416   0.00000  Uiso   1.00
H474   H     0.50920   0.03931   0.86453   0.00000  Uiso   1.00
H475   H     0.60163   0.33002   0.75675   0.00000  Uiso   1.00
H476   H     0.48989   0.12506   0.70818   0.00000  Uiso   1.00
H477   H     0.51011   0.20826   0.79184   0.00000  Uiso   1.00
H478   H     0.62343   0.06680   0.97880   0.00000  Uiso   1.00
H479   H     0.54198   0.20111   0.58558   0.00000  Uiso   1.00
H480   H     0.65160   0.21522   0.93223   0.00000  Uiso   1.00
H481   H     0.45124   0.19750   0.57384   0.00000  Uiso   1.00
H482   H     0.35889   0.22944   0.53337   0.00000  Uiso   1.00
N483   N     0.47827   0.15223   0.73543   0.00000  Uiso   1.00
N484   N     0.52173   0.18110   0.76458   0.00000  Uiso   1.00
O485   O     0.63102   0.24629   0.75358   0.00000  Uiso   1.00
O486   O     0.39075   0.23704   0.74424   0.00000  Uiso   1.00
O487   O     0.64823   0.17358   0.83380   0.00000  Uiso   1.00
O488   O     0.40796   0.16433   0.82446   0.00000  Uiso   1.00
O489   O     0.60925   0.09629   0.75577   0.00000  Uiso   1.00
O490   O     0.36898   0.08704   0.74643   0.00000  Uiso   1.00
O491   O     0.59204   0.16901   0.67554   0.00000  Uiso   1.00
O492   O     0.35177   0.15976   0.66620   0.00000  Uiso   1.00
O493   O     0.53745   0.05011   0.89992   0.00000  Uiso   1.00
Zn494  Zn    0.60453   0.17284   0.75624   0.00000  Uiso   1.00
Zn495  Zn    0.39547   0.16049   0.74377   0.00000  Uiso   1.00
C496   C     0.68158   0.26492   0.74875   0.00000  Uiso   1.00
C497   C     0.71966   0.16744   0.91599   0.00000  Uiso   1.00
C498   C     0.68940   0.31952   0.74823   0.00000  Uiso   1.00
C499   C     0.70202   0.16784   0.85514   0.00000  Uiso   1.00
C500   C     0.97753   0.01388   0.75258   0.00000  Uiso   1.00
C501   C     0.98517   0.06843   0.75153   0.00000  Uiso   1.00
C502   C     0.96406   0.16262   0.64484   0.00000  Uiso   1.00
C503   C     0.93704   0.09498   0.50198   0.00000  Uiso   1.00
C504   C     0.94305   0.15154   0.58512   0.00000  Uiso   1.00
C505   C     0.69108   0.19751   0.95000   0.00000  Uiso   1.00
C506   C     0.71460   0.20677   0.50693   0.00000  Uiso   1.00
C507   C     0.79834   0.15957   0.99499   0.00000  Uiso   1.00
C508   C     0.76829   0.18891   0.52935   0.00000  Uiso   1.00
C509   C     0.76991   0.14340   0.93992   0.00000  Uiso   1.00
C510   C     0.85584   0.14619   0.51334   0.00000  Uiso   1.00
C511   C     0.88043   0.10944   0.98130   0.00000  Uiso   1.00
C512   C     0.84783   0.08738   0.92998   0.00000  Uiso   1.00
C513   C     0.79281   0.10458   0.90965   0.00000  Uiso   1.00
C514   C     0.89007   0.16973   0.56245   0.00000  Uiso   1.00
C515   C     0.96766   0.11497   0.55458   0.00000  Uiso   1.00
H516   H     0.67575   0.10040   0.57224   0.00000  Uiso   1.00
H517   H     0.76767   0.08689   0.87027   0.00000  Uiso   1.00
H518   H     0.73199   0.00338   0.74416   0.00000  Uiso   1.00
H519   H     0.84253   0.03931   0.86453   0.00000  Uiso   1.00
H520   H     0.93496   0.33002   0.75675   0.00000  Uiso   1.00
H521   H     0.82322   0.12506   0.70818   0.00000  Uiso   1.00
H522   H     0.84345   0.20826   0.79184   0.00000  Uiso   1.00
H523   H     0.95676   0.06680   0.97880   0.00000  Uiso   1.00
H524   H     0.87531   0.20111   0.58558   0.00000  Uiso   1.00
H525   H     0.98493   0.21522   0.93223   0.00000  Uiso   1.00
H526   H     0.78457   0.19750   0.57384   0.00000  Uiso   1.00
H527   H     0.69222   0.22944   0.53337   0.00000  Uiso   1.00
N528   N     0.81160   0.15223   0.73543   0.00000  Uiso   1.00
N529   N     0.85507   0.18110   0.76458   0.00000  Uiso   1.00
O530   O     0.96435   0.24629   0.75358   0.00000  Uiso   1.00
O531   O     0.72408   0.23704   0.74424   0.00000  Uiso   1.00
O532   O     0.98157   0.17358   0.83380   0.00000  Uiso   1.00
O533   O     0.74130   0.16433   0.82446   0.00000  Uiso   1.00
O534   O     0.94258   0.09629   0.75577   0.00000  Uiso   1.00
O535   O     0.70231   0.08704   0.74643   0.00000  Uiso   1.00
O536   O     0.92537   0.16901   0.67554   0.00000  Uiso   1.00
O537   O     0.68510   0.15976   0.66620   0.00000  Uiso   1.00
O538   O     0.87078   0.05011   0.89992   0.00000  Uiso   1.00
Zn539  Zn    0.93786   0.17284   0.75624   0.00000  Uiso   1.00
Zn540  Zn    0.72881   0.16049   0.74377   0.00000  Uiso   1.00
C541   C     0.01492   0.59825   0.74875   0.00000  Uiso   1.00
C542   C     0.05300   0.50078   0.91599   0.00000  Uiso   1.00
C543   C     0.02273   0.65285   0.74823   0.00000  Uiso   1.00
C544   C     0.03535   0.50117   0.85514   0.00000  Uiso   1.00
C545   C     0.31086   0.34721   0.75258   0.00000  Uiso   1.00
C546   C     0.31851   0.40176   0.75153   0.00000  Uiso   1.00
C547   C     0.29739   0.49596   0.64484   0.00000  Uiso   1.00
C548   C     0.27037   0.42832   0.50198   0.00000  Uiso   1.00
C549   C     0.27639   0.48487   0.58512   0.00000  Uiso   1.00
C550   C     0.02441   0.53084   0.95000   0.00000  Uiso   1.00
C551   C     0.04793   0.54010   0.50693   0.00000  Uiso   1.00
C552   C     0.13168   0.49290   0.99499   0.00000  Uiso   1.00
C553   C     0.10163   0.52225   0.52935   0.00000  Uiso   1.00
C554   C     0.10324   0.47673   0.93992   0.00000  Uiso   1.00
C555   C     0.18917   0.47953   0.51334   0.00000  Uiso   1.00
C556   C     0.21376   0.44277   0.98130   0.00000  Uiso   1.00
C557   C     0.18116   0.42071   0.92998   0.00000  Uiso   1.00
C558   C     0.12614   0.43791   0.90965   0.00000  Uiso   1.00
C559   C     0.22341   0.50307   0.56245   0.00000  Uiso   1.00
C560   C     0.30099   0.44830   0.55458   0.00000  Uiso   1.00
H561   H     0.00908   0.43373   0.57224   0.00000  Uiso   1.00
H562   H     0.10101   0.42022   0.87027   0.00000  Uiso   1.00
H563   H     0.06532   0.33672   0.74416   0.00000  Uiso   1.00
H564   H     0.17587   0.37264   0.86453   0.00000  Uiso   1.00
H565   H     0.26829   0.66335   0.75675   0.00000  Uiso   1.00
H566   H     0.15655   0.45839   0.70818   0.00000  Uiso   1.00
H567   H     0.17678   0.54160   0.79184   0.00000  Uiso   1.00
H568   H     0.29009   0.40014   0.97880   0.00000  Uiso   1.00
H569   H     0.20865   0.53445   0.58558   0.00000  Uiso   1.00
H570   H     0.31827   0.54855   0.93223   0.00000  Uiso   1.00
H571   H     0.11791   0.53084   0.57384   0.00000  Uiso   1.00
H572   H     0.02556   0.56277   0.53337   0.00000  Uiso   1.00
N573   N     0.14493   0.48556   0.73543   0.00000  Uiso   1.00
N574   N     0.18840   0.51444   0.76458   0.00000  Uiso   1.00
O575   O     0.29769   0.57963   0.75358   0.00000  Uiso   1.00
O576   O     0.05742   0.57038   0.74424   0.00000  Uiso   1.00
O577   O     0.31490   0.50691   0.83380   0.00000  Uiso   1.00
O578   O     0.07463   0.49766   0.82446   0.00000  Uiso   1.00
O579   O     0.27592   0.42962   0.75577   0.00000  Uiso   1.00
O580   O     0.03565   0.42037   0.74643   0.00000  Uiso   1.00
O581   O     0.25870   0.50234   0.67554   0.00000  Uiso   1.00
O582   O     0.01843   0.49309   0.66620   0.00000  Uiso   1.00
O583   O     0.20411   0.38344   0.89992   0.00000  Uiso   1.00
Zn584  Zn    0.27119   0.50618   0.75624   0.00000  Uiso   1.00
Zn585  Zn    0.06214   0.49382   0.74377   0.00000  Uiso   1.00
C586   C     0.34825   0.59825   0.74875   0.00000  Uiso   1.00
C587   C     0.38633   0.50078   0.91599   0.00000  Uiso   1.00
C588   C     0.35606   0.65285   0.74823   0.00000  Uiso   1.00
C589   C     0.36868   0.50117   0.85514   0.00000  Uiso   1.00
C590   C     0.64419   0.34721   0.75258   0.00000  Uiso   1.00
C591   C     0.65184   0.40176   0.75153   0.00000  Uiso   1.00
C592   C     0.63073   0.49596   0.64484   0.00000  Uiso   1.00
C593   C     0.60370   0.42832   0.50198   0.00000  Uiso   1.00
C594   C     0.60972   0.48487   0.58512   0.00000  Uiso   1.00
C595   C     0.35774   0.53084   0.95000   0.00000  Uiso   1.00
C596   C     0.38126   0.54010   0.50693   0.00000  Uiso   1.00
C597   C     0.46501   0.49290   0.99499   0.00000  Uiso   1.00
C598   C     0.43496   0.52225   0.52935   0.00000  Uiso   1.00
C599   C     0.43657   0.47673   0.93992   0.00000  Uiso   1.00
C600   C     0.52251   0.47953   0.51334   0.00000  Uiso   1.00
C601   C     0.54709   0.44277   0.98130   0.00000  Uiso   1.00
C602   C     0.51450   0.42071   0.92998   0.00000  Uiso   1.00
C603   C     0.45947   0.43791   0.90965   0.00000  Uiso   1.00
C604   C     0.55674   0.50307   0.56245   0.00000  Uiso   1.00
C605   C     0.63432   0.44830   0.55458   0.00000  Uiso   1.00
H606   H     0.34241   0.43373   0.57224   0.00000  Uiso   1.00
H607   H     0.43434   0.42022   0.87027   0.00000  Uiso   1.00
H608   H     0.39865   0.33672   0.74416   0.00000  Uiso   1.00
H609   H     0.50920   0.37264   0.86453   0.00000  Uiso   1.00
H610   H     0.60163   0.66335   0.75675   0.00000  Uiso   1.00
H611   H     0.48989   0.45839   0.70818   0.00000  Uiso   1.00
H612   H     0.51011   0.54160   0.79184   0.00000  Uiso   1.00
H613   H     0.62343   0.40014   0.97880   0.00000  Uiso   1.00
H614   H     0.54198   0.53445   0.58558   0.00000  Uiso   1.00
H615   H     0.65160   0.54855   0.93223   0.00000  Uiso   1.00
H616   H     0.45124   0.53084   0.57384   0.00000  Uiso   1.00
H617   H     0.35889   0.56277   0.53337   0.00000  Uiso   1.00
N618   N     0.47827   0.48556   0.73543   0.00000  Uiso   1.00
N619   N     0.52173   0.51444   0.76458   0.00000  Uiso   1.00
O620   O     0.63102   0.57963   0.75358   0.00000  Uiso   1.00
O621   O     0.39075   0.57038   0.74424   0.00000  Uiso   1.00
O622   O     0.64823   0.50691   0.83380   0.00000  Uiso   1.00
O623   O     0.40796   0.49766   0.82446   0.00000  Uiso   1.00
O624   O     0.60925   0.42962   0.75577   0.00000  Uiso   1.00
O625   O     0.36898   0.42037   0.74643   0.00000  Uiso   1.00
O626   O     0.59204   0.50234   0.67554   0.00000  Uiso   1.00
O627   O     0.35177   0.49309   0.66620   0.00000  Uiso   1.00
O628   O     0.53745   0.38344   0.89992   0.00000  Uiso   1.00
Zn629  Zn    0.60453   0.50618   0.75624   0.00000  Uiso   1.00
Zn630  Zn    0.39547   0.49382   0.74377   0.00000  Uiso   1.00
C631   C     0.68158   0.59825   0.74875   0.00000  Uiso   1.00
C632   C     0.71966   0.50078   0.91599   0.00000  Uiso   1.00
C633   C     0.68940   0.65285   0.74823   0.00000  Uiso   1.00
C634   C     0.70202   0.50117   0.85514   0.00000  Uiso   1.00
C635   C     0.97753   0.34721   0.75258   0.00000  Uiso   1.00
C636   C     0.98517   0.40176   0.75153   0.00000  Uiso   1.00
C637   C     0.96406   0.49596   0.64484   0.00000  Uiso   1.00
C638   C     0.93704   0.42832   0.50198   0.00000  Uiso   1.00
C639   C     0.94305   0.48487   0.58512   0.00000  Uiso   1.00
C640   C     0.69108   0.53084   0.95000   0.00000  Uiso   1.00
C641   C     0.71460   0.54010   0.50693   0.00000  Uiso   1.00
C642   C     0.79834   0.49290   0.99499   0.00000  Uiso   1.00
C643   C     0.76829   0.52225   0.52935   0.00000  Uiso   1.00
C644   C     0.76991   0.47673   0.93992   0.00000  Uiso   1.00
C645   C     0.85584   0.47953   0.51334   0.00000  Uiso   1.00
C646   C     0.88043   0.44277   0.98130   0.00000  Uiso   1.00
C647   C     0.84783   0.42071   0.92998   0.00000  Uiso   1.00
C648   C     0.79281   0.43791   0.90965   0.00000  Uiso   1.00
C649   C     0.89007   0.50307   0.56245   0.00000  Uiso   1.00
C650   C     0.96766   0.44830   0.55458   0.00000  Uiso   1.00
H651   H     0.67575   0.43373   0.57224   0.00000  Uiso   1.00
H652   H     0.76767   0.42022   0.87027   0.00000  Uiso   1.00
H653   H     0.73199   0.33672   0.74416   0.00000  Uiso   1.00
H654   H     0.84253   0.37264   0.86453   0.00000  Uiso   1.00
H655   H     0.93496   0.66335   0.75675   0.00000  Uiso   1.00
H656   H     0.82322   0.45839   0.70818   0.00000  Uiso   1.00
H657   H     0.84345   0.54160   0.79184   0.00000  Uiso   1.00
H658   H     0.95676   0.40014   0.97880   0.00000  Uiso   1.00
H659   H     0.87531   0.53445   0.58558   0.00000  Uiso   1.00
H660   H     0.98493   0.54855   0.93223   0.00000  Uiso   1.00
H661   H     0.78457   0.53084   0.57384   0.00000  Uiso   1.00
H662   H     0.69222   0.56277   0.53337   0.00000  Uiso   1.00
N663   N     0.81160   0.48556   0.73543   0.00000  Uiso   1.00
N664   N     0.85507   0.51444   0.76458   0.00000  Uiso   1.00
O665   O     0.96435   0.57963   0.75358   0.00000  Uiso   1.00
O666   O     0.72408   0.57038   0.74424   0.00000  Uiso   1.00
O667   O     0.98157   0.50691   0.83380   0.00000  Uiso   1.00
O668   O     0.74130   0.49766   0.82446   0.00000  Uiso   1.00
O669   O     0.94258   0.42962   0.75577   0.00000  Uiso   1.00
O670   O     0.70231   0.42037   0.74643   0.00000  Uiso   1.00
O671   O     0.92537   0.50234   0.67554   0.00000  Uiso   1.00
O672   O     0.68510   0.49309   0.66620   0.00000  Uiso   1.00
O673   O     0.87078   0.38344   0.89992   0.00000  Uiso   1.00
Zn674  Zn    0.93786   0.50618   0.75624   0.00000  Uiso   1.00
Zn675  Zn    0.72881   0.49382   0.74377   0.00000  Uiso   1.00
C676   C     0.01492   0.93159   0.74875   0.00000  Uiso   1.00
C677   C     0.05300   0.83411   0.91599   0.00000  Uiso   1.00
C678   C     0.02273   0.98618   0.74823   0.00000  Uiso   1.00
C679   C     0.03535   0.83451   0.85514   0.00000  Uiso   1.00
C680   C     0.31086   0.68054   0.75258   0.00000  Uiso   1.00
C681   C     0.31851   0.73510   0.75153   0.00000  Uiso   1.00
C682   C     0.29739   0.82929   0.64484   0.00000  Uiso   1.00
C683   C     0.27037   0.76165   0.50198   0.00000  Uiso   1.00
C684   C     0.27639   0.81820   0.58512   0.00000  Uiso   1.00
C685   C     0.02441   0.86417   0.95000   0.00000  Uiso   1.00
C686   C     0.04793   0.87343   0.50693   0.00000  Uiso   1.00
C687   C     0.13168   0.82624   0.99499   0.00000  Uiso   1.00
C688   C     0.10163   0.85558   0.52935   0.00000  Uiso   1.00
C689   C     0.10324   0.81007   0.93992   0.00000  Uiso   1.00
C690   C     0.18917   0.81286   0.51334   0.00000  Uiso   1.00
C691   C     0.21376   0.77611   0.98130   0.00000  Uiso   1.00
C692   C     0.18116   0.75404   0.92998   0.00000  Uiso   1.00
C693   C     0.12614   0.77124   0.90965   0.00000  Uiso   1.00
C694   C     0.22341   0.83640   0.56245   0.00000  Uiso   1.00
C695   C     0.30099   0.78164   0.55458   0.00000  Uiso   1.00
H696   H     0.00908   0.76707   0.57224   0.00000  Uiso   1.00
H697   H     0.10101   0.75356   0.87027   0.00000  Uiso   1.00
H698   H     0.06532   0.67005   0.74416   0.00000  Uiso   1.00
H699   H     0.17587   0.70597   0.86453   0.00000  Uiso   1.00
H700   H     0.26829   0.99668   0.75675   0.00000  Uiso   1.00
H701   H     0.15655   0.79172   0.70818   0.00000  Uiso   1.00
H702   H     0.17678   0.87493   0.79184   0.00000  Uiso   1.00
H703   H     0.29009   0.73347   0.97880   0.00000  Uiso   1.00
H704   H     0.20865   0.86778   0.58558   0.00000  Uiso   1.00
H705   H     0.31827   0.88189   0.93223   0.00000  Uiso   1.00
H706   H     0.11791   0.86417   0.57384   0.00000  Uiso   1.00
H707   H     0.02556   0.89610   0.53337   0.00000  Uiso   1.00
N708   N     0.14493   0.81890   0.73543   0.00000  Uiso   1.00
N709   N     0.18840   0.84777   0.76458   0.00000  Uiso   1.00
O710   O     0.29769   0.91296   0.75358   0.00000  Uiso   1.00
O711   O     0.05742   0.90371   0.74424   0.00000  Uiso   1.00
O712   O     0.31490   0.84024   0.83380   0.00000  Uiso   1.00
O713   O     0.07463   0.83099   0.82446   0.00000  Uiso   1.00
O714   O     0.27592   0.76296   0.75577   0.00000  Uiso   1.00
O715   O     0.03565   0.75371   0.74643   0.00000  Uiso   1.00
O716   O     0.25870   0.83567   0.67554   0.00000  Uiso   1.00
O717   O     0.01843   0.82642   0.66620   0.00000  Uiso   1.00
O718   O     0.20411   0.71677   0.89992   0.00000  Uiso   1.00
Zn719  Zn    0.27119   0.83951   0.75624   0.00000  Uiso   1.00
Zn720  Zn    0.06214   0.82716   0.74377   0.00000  Uiso   1.00
C721   C     0.34825   0.93159   0.74875   0.00000  Uiso   1.00
C722   C     0.38633   0.83411   0.91599   0.00000  Uiso   1.00
C723   C     0.35606   0.98618   0.74823   0.00000  Uiso   1.00
C724   C     0.36868   0.83451   0.85514   0.00000  Uiso   1.00
C725   C     0.64419   0.68054   0.75258   0.00000  Uiso   1.00
C726   C     0.65184   0.73510   0.75153   0.00000  Uiso   1.00
C727   C     0.63073   0.82929   0.64484   0.00000  Uiso   1.00
C728   C     0.60370   0.76165   0.50198   0.00000  Uiso   1.00
C729   C     0.60972   0.81820   0.58512   0.00000  Uiso   1.00
C730   C     0.35774   0.86417   0.95000   0.00000  Uiso   1.00
C731   C     0.38126   0.87343   0.50693   0.00000  Uiso   1.00
C732   C     0.46501   0.82624   0.99499   0.00000  Uiso   1.00
C733   C     0.43496   0.85558   0.52935   0.00000  Uiso   1.00
C734   C     0.43657   0.81007   0.93992   0.00000  Uiso   1.00
C735   C     0.52251   0.81286   0.51334   0.00000  Uiso   1.00
C736   C     0.54709   0.77611   0.98130   0.00000  Uiso   1.00
C737   C     0.51450   0.75404   0.92998   0.00000  Uiso   1.00
C738   C     0.45947   0.77124   0.90965   0.00000  Uiso   1.00
C739   C     0.55674   0.83640   0.56245   0.00000  Uiso   1.00
C740   C     0.63432   0.78164   0.55458   0.00000  Uiso   1.00
H741   H     0.34241   0.76707   0.57224   0.00000  Uiso   1.00
H742   H     0.43434   0.75356   0.87027   0.00000  Uiso   1.00
H743   H     0.39865   0.67005   0.74416   0.00000  Uiso   1.00
H744   H     0.50920   0.70597   0.86453   0.00000  Uiso   1.00
H745   H     0.60163   0.99668   0.75675   0.00000  Uiso   1.00
H746   H     0.48989   0.79172   0.70818   0.00000  Uiso   1.00
H747   H     0.51011   0.87493   0.79184   0.00000  Uiso   1.00
H748   H     0.62343   0.73347   0.97880   0.00000  Uiso   1.00
H749   H     0.54198   0.86778   0.58558   0.00000  Uiso   1.00
H750   H     0.65160   0.88189   0.93223   0.00000  Uiso   1.00
H751   H     0.45124   0.86417   0.57384   0.00000  Uiso   1.00
H752   H     0.35889   0.89610   0.53337   0.00000  Uiso   1.00
N753   N     0.47827   0.81890   0.73543   0.00000  Uiso   1.00
N754   N     0.52173   0.84777   0.76458   0.00000  Uiso   1.00
O755   O     0.63102   0.91296   0.75358   0.00000  Uiso   1.00
O756   O     0.39075   0.90371   0.74424   0.00000  Uiso   1.00
O757   O     0.64823   0.84024   0.83380   0.00000  Uiso   1.00
O758   O     0.40796   0.83099   0.82446   0.00000  Uiso   1.00
O759   O     0.60925   0.76296   0.75577   0.00000  Uiso   1.00
O760   O     0.36898   0.75371   0.74643   0.00000  Uiso   1.00
O761   O     0.59204   0.83567   0.67554   0.00000  Uiso   1.00
O762   O     0.35177   0.82642   0.66620   0.00000  Uiso   1.00
O763   O     0.53745   0.71677   0.89992   0.00000  Uiso   1.00
Zn764  Zn    0.60453   0.83951   0.75624   0.00000  Uiso   1.00
Zn765  Zn    0.39547   0.82716   0.74377   0.00000  Uiso   1.00
C766   C     0.68158   0.93159   0.74875   0.00000  Uiso   1.00
C767   C     0.71966   0.83411   0.91599   0.00000  Uiso   1.00
C768   C     0.68940   0.98618   0.74823   0.00000  Uiso   1.00
C769   C     0.70202   0.83451   0.85514   0.00000  Uiso   1.00
C770   C     0.97753   0.68054   0.75258   0.00000  Uiso   1.00
C771   C     0.98517   0.73510   0.75153   0.00000  Uiso   1.00
C772   C     0.96406   0.82929   0.64484   0.00000  Uiso   1.00
C773   C     0.93704   0.76165   0.50198   0.00000  Uiso   1.00
C774   C     0.94305   0.81820   0.58512   0.00000  Uiso   1.00
C775   C     0.69108   0.86417   0.95000   0.00000  Uiso   1.00
C776   C     0.71460   0.87343   0.50693   0.00000  Uiso   1.00
C777   C     0.79834   0.82624   0.99499   0.00000  Uiso   1.00
C778   C     0.76829   0.85558   0.52935   0.00000  Uiso   1.00
C779   C     0.76991   0.81007   0.93992   0.00000  Uiso   1.00
C780   C     0.85584   0.81286   0.51334   0.00000  Uiso   1.00
C781   C     0.88043   0.77611   0.98130   0.00000  Uiso   1.00
C782   C     0.84783   0.75404   0.92998   0.00000  Uiso   1.00
C783   C     0.79281   0.77124   0.90965   0.00000  Uiso   1.00
C784   C     0.89007   0.83640   0.56245   0.00000  Uiso   1.00
C785   C     0.96766   0.78164   0.55458   0.00000  Uiso   1.00
H786   H     0.67575   0.76707   0.57224   0.00000  Uiso   1.00
H787   H     0.76767   0.75356   0.87027   0.00000  Uiso   1.00
H788   H     0.73199   0.67005   0.74416   0.00000  Uiso   1.00
H789   H     0.84253   0.70597   0.86453   0.00000  Uiso   1.00
H790   H     0.93496   0.99668   0.75675   0.00000  Uiso   1.00
H791   H     0.82322   0.79172   0.70818   0.00000  Uiso   1.00
H792   H     0.84345   0.87493   0.79184   0.00000  Uiso   1.00
H793   H     0.95676   0.73347   0.97880   0.00000  Uiso   1.00
H794   H     0.87531   0.86778   0.58558   0.00000  Uiso   1.00
H795   H     0.98493   0.88189   0.93223   0.00000  Uiso   1.00
H796   H     0.78457   0.86417   0.57384   0.00000  Uiso   1.00
H797   H     0.69222   0.89610   0.53337   0.00000  Uiso   1.00
N798   N     0.81160   0.81890   0.73543   0.00000  Uiso   1.00
N799   N     0.85507   0.84777   0.76458   0.00000  Uiso   1.00
O800   O     0.96435   0.91296   0.75358   0.00000  Uiso   1.00
O801   O     0.72408   0.90371   0.74424   0.00000  Uiso   1.00
O802   O     0.98157   0.84024   0.83380   0.00000  Uiso   1.00
O803   O     0.74130   0.83099   0.82446   0.00000  Uiso   1.00
O804   O     0.94258   0.76296   0.75577   0.00000  Uiso   1.00
O805   O     0.70231   0.75371   0.74643   0.00000  Uiso   1.00
O806   O     0.92537   0.83567   0.67554   0.00000  Uiso   1.00
O807   O     0.68510   0.82642   0.66620   0.00000  Uiso   1.00
O808   O     0.87078   0.71677   0.89992   0.00000  Uiso   1.00
Zn809  Zn    0.93786   0.83951   0.75624   0.00000  Uiso   1.00
Zn810  Zn    0.72881   0.82716   0.74377   0.00000  Uiso   1.00
loop_
_geom_bond_atom_site_label_1
_geom_bond_atom_site_label_2
_geom_bond_distance
_geom_bond_site_symmetry_2
_ccdc_geom_bond_type
C1     O36     1.289   .     A
C1     C3      1.403   .     S
C1     O125    1.276   1_455 S
C2     C4      1.452   .     S
C2     C14     1.407   .     A
C2     C10     1.403   .     A
C3     C230    1.339   1_455 S
C3     H158    1.088   .     S
C4     O38     1.299   .     A
C4     O127    1.289   1_455 S
C5     C6      1.403   .     S
C5     C318    1.339   1_545 S
C5     H295    1.088   1_545 S
C6     O39     1.289   .     A
C6     O85     1.276   .     S
C7     O41     1.297   .     A
C7     C9      1.444   .     S
C7     O87     1.289   .     S
C8     C20     1.393   .     A
C8     C421    1.408   1_554 S
C8     H433    1.083   1_554 S
C9     C20     1.398   .     A
C9     C19     1.381   .     A
C10    C416    1.386   .     S
C10    H120    1.083   1_455 S
C11    C13     1.390   .     A
C11    H32     1.083   .     S
C11    C415    1.386   1_554 S
C12    C14     1.402   .     A
C12    C418    1.420   .     S
C12    C420    1.409   .     S
C13    H31     1.079   .     S
C13    C417    1.420   1_554 S
C14    C18     1.413   .     A
C15    C19     1.388   .     A
C15    C417    1.409   1_554 S
C15    C421    1.423   1_554 S
C16    C17     1.401   .     A
C16    C413    1.408   .     S
C16    C420    1.423   .     S
C17    O43     1.383   .     S
C17    C18     1.400   .     A
C18    H22     1.082   .     S
C19    H29     1.080   .     S
C20    H66     1.083   .     S
H21    C110    1.083   1_455 S
H23    C273    1.088   1_545 S
H24    O43     0.992   .     S
H25    C140    1.088   .     S
H26    N33     1.029   .     S
H27    N34     1.029   .     S
H28    C413    1.083   .     S
H30    C55     1.083   .     S
N33    Zn45    2.019   .     S
N33    N34     1.287   .     D
N34    Zn44    2.019   .     S
O35    Zn44    1.952   .     S
O35    C46     1.276   .     S
O36    Zn45    1.979   .     S
O37    Zn44    1.956   .     S
O37    C49     1.289   .     S
O38    Zn45    1.917   .     S
O39    Zn44    1.979   .     S
O40    Zn45    1.952   .     S
O40    C96     1.276   1_455 S
O41    Zn44    1.917   .     S
O42    Zn45    1.956   .     S
O42    C97     1.289   1_455 S
C46    O81     1.289   .     A
C46    C48     1.403   .     S
C47    C49     1.452   .     S
C47    C59     1.407   .     A
C47    C55     1.403   .     A
C48    C140    1.339   .     S
C48    H203    1.088   .     S
C49    O83     1.299   .     A
C50    C51     1.403   .     S
C50    C363    1.339   1_545 S
C50    H340    1.088   1_545 S
C51    O84     1.289   .     A
C51    O130    1.276   .     S
C52    O86     1.297   .     A
C52    C54     1.444   .     S
C52    O132    1.289   .     S
C53    C65     1.393   .     A
C53    C466    1.408   1_554 S
C53    H478    1.083   1_554 S
C54    C65     1.398   .     A
C54    C64     1.381   .     A
C55    C461    1.386   .     S
C56    C58     1.390   .     A
C56    H77     1.083   .     S
C56    C460    1.386   1_554 S
C57    C59     1.402   .     A
C57    C463    1.420   .     S
C57    C465    1.409   .     S
C58    H76     1.079   .     S
C58    C462    1.420   1_554 S
C59    C63     1.413   .     A
C60    C64     1.388   .     A
C60    C462    1.409   1_554 S
C60    C466    1.423   1_554 S
C61    C62     1.401   .     A
C61    C458    1.408   .     S
C61    C465    1.423   .     S
C62    O88     1.383   .     S
C62    C63     1.400   .     A
C63    H67     1.082   .     S
C64    H74     1.080   .     S
C65    H111    1.083   .     S
H68    C318    1.088   1_545 S
H69    O88     0.992   .     S
H70    C185    1.088   .     S
H71    N78     1.029   .     S
H72    N79     1.029   .     S
H73    C458    1.083   .     S
H75    C100    1.083   .     S
N78    Zn90    2.019   .     S
N78    N79     1.287   .     D
N79    Zn89    2.019   .     S
O80    Zn89    1.952   .     S
O80    C91     1.276   .     S
O81    Zn90    1.979   .     S
O82    Zn89    1.956   .     S
O82    C94     1.289   .     S
O83    Zn90    1.917   .     S
O84    Zn89    1.979   .     S
O85    Zn90    1.952   .     S
O86    Zn89    1.917   .     S
O87    Zn90    1.956   .     S
C91    O126    1.289   .     A
C91    C93     1.403   .     S
C92    C94     1.452   .     S
C92    C104    1.407   .     A
C92    C100    1.403   .     A
C93    C185    1.339   .     S
C93    H248    1.088   .     S
C94    O128    1.299   .     A
C95    C96     1.403   .     S
C95    C273    1.339   1_645 S
C95    H385    1.088   1_545 S
C96    O129    1.289   .     A
C96    O40     1.276   1_655 S
C97    O131    1.297   .     A
C97    C99     1.444   .     S
C97    O42     1.289   1_655 S
C98    C110    1.393   .     A
C98    C511    1.408   1_554 S
C98    H523    1.083   1_554 S
C99    C110    1.398   .     A
C99    C109    1.381   .     A
C100   C506    1.386   .     S
C101   C103    1.390   .     A
C101   H122    1.083   .     S
C101   C505    1.386   1_554 S
C102   C104    1.402   .     A
C102   C508    1.420   .     S
C102   C510    1.409   .     S
C103   H121    1.079   .     S
C103   C507    1.420   1_554 S
C104   C108    1.413   .     A
C105   C109    1.388   .     A
C105   C507    1.409   1_554 S
C105   C511    1.423   1_554 S
C106   C107    1.401   .     A
C106   C503    1.408   .     S
C106   C510    1.423   .     S
C107   O133    1.383   .     S
C107   C108    1.400   .     A
C108   H112    1.082   .     S
C109   H119    1.080   .     S
C110   H21     1.083   1_655 S
H113   C363    1.088   1_545 S
H114   O133    0.992   .     S
H115   C230    1.088   .     S
H116   N123    1.029   .     S
H117   N124    1.029   .     S
H118   C503    1.083   .     S
H120   C10     1.083   1_655 S
N123   Zn135   2.019   .     S
N123   N124    1.287   .     D
N124   Zn134   2.019   .     S
O125   Zn134   1.952   .     S
O125   C1      1.276   1_655 S
O126   Zn135   1.979   .     S
O127   Zn134   1.956   .     S
O127   C4      1.289   1_655 S
O128   Zn135   1.917   .     S
O129   Zn134   1.979   .     S
O130   Zn135   1.952   .     S
O131   Zn134   1.917   .     S
O132   Zn135   1.956   .     S
C136   O171    1.289   .     A
C136   C138    1.403   .     S
C136   O260    1.276   1_455 S
C137   C139    1.452   .     S
C137   C149    1.407   .     A
C137   C145    1.403   .     A
C138   C365    1.339   1_455 S
C138   H293    1.088   .     S
C139   O173    1.299   .     A
C139   O262    1.289   1_455 S
C140   C141    1.403   .     S
C141   O174    1.289   .     A
C141   O220    1.276   .     S
C142   O176    1.297   .     A
C142   C144    1.444   .     S
C142   O222    1.289   .     S
C143   C155    1.393   .     A
C143   C556    1.408   1_554 S
C143   H568    1.083   1_554 S
C144   C155    1.398   .     A
C144   C154    1.381   .     A
C145   C551    1.386   .     S
C145   H255    1.083   1_455 S
C146   C148    1.390   .     A
C146   H167    1.083   .     S
C146   C550    1.386   1_554 S
C147   C149    1.402   .     A
C147   C553    1.420   .     S
C147   C555    1.409   .     S
C148   H166    1.079   .     S
C148   C552    1.420   1_554 S
C149   C153    1.413   .     A
C150   C154    1.388   .     A
C150   C552    1.409   1_554 S
C150   C556    1.423   1_554 S
C151   C152    1.401   .     A
C151   C548    1.408   .     S
C151   C555    1.423   .     S
C152   O178    1.383   .     S
C152   C153    1.400   .     A
C153   H157    1.082   .     S
C154   H164    1.080   .     S
C155   H201    1.083   .     S
H156   C245    1.083   1_455 S
H159   O178    0.992   .     S
H160   C275    1.088   .     S
H161   N168    1.029   .     S
H162   N169    1.029   .     S
H163   C548    1.083   .     S
H165   C190    1.083   .     S
N168   Zn180   2.019   .     S
N168   N169    1.287   .     D
N169   Zn179   2.019   .     S
O170   Zn179   1.952   .     S
O170   C181    1.276   .     S
O171   Zn180   1.979   .     S
O172   Zn179   1.956   .     S
O172   C184    1.289   .     S
O173   Zn180   1.917   .     S
O174   Zn179   1.979   .     S
O175   Zn180   1.952   .     S
O175   C231    1.276   1_455 S
O176   Zn179   1.917   .     S
O177   Zn180   1.956   .     S
O177   C232    1.289   1_455 S
C181   O216    1.289   .     A
C181   C183    1.403   .     S
C182   C184    1.452   .     S
C182   C194    1.407   .     A
C182   C190    1.403   .     A
C183   C275    1.339   .     S
C183   H338    1.088   .     S
C184   O218    1.299   .     A
C185   C186    1.403   .     S
C186   O219    1.289   .     A
C186   O265    1.276   .     S
C187   O221    1.297   .     A
C187   C189    1.444   .     S
C187   O267    1.289   .     S
C188   C200    1.393   .     A
C188   C601    1.408   1_554 S
C188   H613    1.083   1_554 S
C189   C200    1.398   .     A
C189   C199    1.381   .     A
C190   C596    1.386   .     S
C191   C193    1.390   .     A
C191   H212    1.083   .     S
C191   C595    1.386   1_554 S
C192   C194    1.402   .     A
C192   C598    1.420   .     S
C192   C600    1.409   .     S
C193   H211    1.079   .     S
C193   C597    1.420   1_554 S
C194   C198    1.413   .     A
C195   C199    1.388   .     A
C195   C597    1.409   1_554 S
C195   C601    1.423   1_554 S
C196   C197    1.401   .     A
C196   C593    1.408   .     S
C196   C600    1.423   .     S
C197   O223    1.383   .     S
C197   C198    1.400   .     A
C198   H202    1.082   .     S
C199   H209    1.080   .     S
C200   H246    1.083   .     S
H204   O223    0.992   .     S
H205   C320    1.088   .     S
H206   N213    1.029   .     S
H207   N214    1.029   .     S
H208   C593    1.083   .     S
H210   C235    1.083   .     S
N213   Zn225   2.019   .     S
N213   N214    1.287   .     D
N214   Zn224   2.019   .     S
O215   Zn224   1.952   .     S
O215   C226    1.276   .     S
O216   Zn225   1.979   .     S
O217   Zn224   1.956   .     S
O217   C229    1.289   .     S
O218   Zn225   1.917   .     S
O219   Zn224   1.979   .     S
O220   Zn225   1.952   .     S
O221   Zn224   1.917   .     S
O222   Zn225   1.956   .     S
C226   O261    1.289   .     A
C226   C228    1.403   .     S
C227   C229    1.452   .     S
C227   C239    1.407   .     A
C227   C235    1.403   .     A
C228   C320    1.339   .     S
C228   H383    1.088   .     S
C229   O263    1.299   .     A
C230   C231    1.403   .     S
C230   C3      1.339   1_655 S
C231   O264    1.289   .     A
C231   O175    1.276   1_655 S
C232   O266    1.297   .     A
C232   C234    1.444   .     S
C232   O177    1.289   1_655 S
C233   C245    1.393   .     A
C233   C646    1.408   1_554 S
C233   H658    1.083   1_554 S
C234   C245    1.398   .     A
C234   C244    1.381   .     A
C235   C641    1.386   .     S
C236   C238    1.390   .     A
C236   H257    1.083   .     S
C236   C640    1.386   1_554 S
C237   C239    1.402   .     A
C237   C643    1.420   .     S
C237   C645    1.409   .     S
C238   H256    1.079   .     S
C238   C642    1.420   1_554 S
C239   C243    1.413   .     A
C240   C244    1.388   .     A
C240   C642    1.409   1_554 S
C240   C646    1.423   1_554 S
C241   C242    1.401   .     A
C241   C638    1.408   .     S
C241   C645    1.423   .     S
C242   O268    1.383   .     S
C242   C243    1.400   .     A
C243   H247    1.082   .     S
C244   H254    1.080   .     S
C245   H156    1.083   1_655 S
H249   O268    0.992   .     S
H250   C365    1.088   .     S
H251   N258    1.029   .     S
H252   N259    1.029   .     S
H253   C638    1.083   .     S
H255   C145    1.083   1_655 S
N258   Zn270   2.019   .     S
N258   N259    1.287   .     D
N259   Zn269   2.019   .     S
O260   Zn269   1.952   .     S
O260   C136    1.276   1_655 S
O261   Zn270   1.979   .     S
O262   Zn269   1.956   .     S
O262   C139    1.289   1_655 S
O263   Zn270   1.917   .     S
O264   Zn269   1.979   .     S
O265   Zn270   1.952   .     S
O266   Zn269   1.917   .     S
O267   Zn270   1.956   .     S
C271   O306    1.289   .     A
C271   C273    1.403   .     S
C271   O395    1.276   1_455 S
C272   C274    1.452   .     S
C272   C284    1.407   .     A
C272   C280    1.403   .     A
C273   C95     1.339   1_465 S
C273   H23     1.088   1_565 S
C274   O308    1.299   .     A
C274   O397    1.289   1_455 S
C275   C276    1.403   .     S
C276   O309    1.289   .     A
C276   O355    1.276   .     S
C277   O311    1.297   .     A
C277   C279    1.444   .     S
C277   O357    1.289   .     S
C278   C290    1.393   .     A
C278   C691    1.408   1_554 S
C278   H703    1.083   1_554 S
C279   C290    1.398   .     A
C279   C289    1.381   .     A
C280   C686    1.386   .     S
C280   H390    1.083   1_455 S
C281   C283    1.390   .     A
C281   H302    1.083   .     S
C281   C685    1.386   1_554 S
C282   C284    1.402   .     A
C282   C688    1.420   .     S
C282   C690    1.409   .     S
C283   H301    1.079   .     S
C283   C687    1.420   1_554 S
C284   C288    1.413   .     A
C285   C289    1.388   .     A
C285   C687    1.409   1_554 S
C285   C691    1.423   1_554 S
C286   C287    1.401   .     A
C286   C683    1.408   .     S
C286   C690    1.423   .     S
C287   O313    1.383   .     S
C287   C288    1.400   .     A
C288   H292    1.082   .     S
C289   H299    1.080   .     S
C290   H336    1.083   .     S
H291   C380    1.083   1_455 S
H294   O313    0.992   .     S
H295   C5      1.088   1_565 S
H296   N303    1.029   .     S
H297   N304    1.029   .     S
H298   C683    1.083   .     S
H300   C325    1.083   .     S
N303   Zn315   2.019   .     S
N303   N304    1.287   .     D
N304   Zn314   2.019   .     S
O305   Zn314   1.952   .     S
O305   C316    1.276   .     S
O306   Zn315   1.979   .     S
O307   Zn314   1.956   .     S
O307   C319    1.289   .     S
O308   Zn315   1.917   .     S
O309   Zn314   1.979   .     S
O310   Zn315   1.952   .     S
O310   C366    1.276   1_455 S
O311   Zn314   1.917   .     S
O312   Zn315   1.956   .     S
O312   C367    1.289   1_455 S
C316   O351    1.289   .     A
C316   C318    1.403   .     S
C317   C319    1.452   .     S
C317   C329    1.407   .     A
C317   C325    1.403   .     A
C318   C5      1.339   1_565 S
C318   H68     1.088   1_565 S
C319   O353    1.299   .     A
C320   C321    1.403   .     S
C321   O354    1.289   .     A
C321   O400    1.276   .     S
C322   O356    1.297   .     A
C322   C324    1.444   .     S
C322   O402    1.289   .     S
C323   C335    1.393   .     A
C323   C736    1.408   1_554 S
C323   H748    1.083   1_554 S
C324   C335    1.398   .     A
C324   C334    1.381   .     A
C325   C731    1.386   .     S
C326   C328    1.390   .     A
C326   H347    1.083   .     S
C326   C730    1.386   1_554 S
C327   C329    1.402   .     A
C327   C733    1.420   .     S
C327   C735    1.409   .     S
C328   H346    1.079   .     S
C328   C732    1.420   1_554 S
C329   C333    1.413   .     A
C330   C334    1.388   .     A
C330   C732    1.409   1_554 S
C330   C736    1.423   1_554 S
C331   C332    1.401   .     A
C331   C728    1.408   .     S
C331   C735    1.423   .     S
C332   O358    1.383   .     S
C332   C333    1.400   .     A
C333   H337    1.082   .     S
C334   H344    1.080   .     S
C335   H381    1.083   .     S
H339   O358    0.992   .     S
H340   C50     1.088   1_565 S
H341   N348    1.029   .     S
H342   N349    1.029   .     S
H343   C728    1.083   .     S
H345   C370    1.083   .     S
N348   Zn360   2.019   .     S
N348   N349    1.287   .     D
N349   Zn359   2.019   .     S
O350   Zn359   1.952   .     S
O350   C361    1.276   .     S
O351   Zn360   1.979   .     S
O352   Zn359   1.956   .     S
O352   C364    1.289   .     S
O353   Zn360   1.917   .     S
O354   Zn359   1.979   .     S
O355   Zn360   1.952   .     S
O356   Zn359   1.917   .     S
O357   Zn360   1.956   .     S
C361   O396    1.289   .     A
C361   C363    1.403   .     S
C362   C364    1.452   .     S
C362   C374    1.407   .     A
C362   C370    1.403   .     A
C363   C50     1.339   1_565 S
C363   H113    1.088   1_565 S
C364   O398    1.299   .     A
C365   C366    1.403   .     S
C365   C138    1.339   1_655 S
C366   O399    1.289   .     A
C366   O310    1.276   1_655 S
C367   O401    1.297   .     A
C367   C369    1.444   .     S
C367   O312    1.289   1_655 S
C368   C380    1.393   .     A
C368   C781    1.408   1_554 S
C368   H793    1.083   1_554 S
C369   C380    1.398   .     A
C369   C379    1.381   .     A
C370   C776    1.386   .     S
C371   C373    1.390   .     A
C371   H392    1.083   .     S
C371   C775    1.386   1_554 S
C372   C374    1.402   .     A
C372   C778    1.420   .     S
C372   C780    1.409   .     S
C373   H391    1.079   .     S
C373   C777    1.420   1_554 S
C374   C378    1.413   .     A
C375   C379    1.388   .     A
C375   C777    1.409   1_554 S
C375   C781    1.423   1_554 S
C376   C377    1.401   .     A
C376   C773    1.408   .     S
C376   C780    1.423   .     S
C377   O403    1.383   .     S
C377   C378    1.400   .     A
C378   H382    1.082   .     S
C379   H389    1.080   .     S
C380   H291    1.083   1_655 S
H384   O403    0.992   .     S
H385   C95     1.088   1_565 S
H386   N393    1.029   .     S
H387   N394    1.029   .     S
H388   C773    1.083   .     S
H390   C280    1.083   1_655 S
N393   Zn405   2.019   .     S
N393   N394    1.287   .     D
N394   Zn404   2.019   .     S
O395   Zn404   1.952   .     S
O395   C271    1.276   1_655 S
O396   Zn405   1.979   .     S
O397   Zn404   1.956   .     S
O397   C274    1.289   1_655 S
O398   Zn405   1.917   .     S
O399   Zn404   1.979   .     S
O400   Zn405   1.952   .     S
O401   Zn404   1.917   .     S
O402   Zn405   1.956   .     S
C406   O441    1.289   .     A
C406   C408    1.403   .     S
C406   O530    1.276   1_455 S
C407   C409    1.452   .     S
C407   C419    1.407   .     A
C407   C415    1.403   .     A
C408   C635    1.339   1_455 S
C408   H563    1.088   .     S
C409   O443    1.299   .     A
C409   O532    1.289   1_455 S
C410   C411    1.403   .     S
C410   C723    1.339   1_545 S
C410   H700    1.088   1_545 S
C411   O444    1.289   .     A
C411   O490    1.276   .     S
C412   O446    1.297   .     A
C412   C414    1.444   .     S
C412   O492    1.289   .     S
C413   C425    1.393   .     A
C414   C425    1.398   .     A
C414   C424    1.381   .     A
C415   C11     1.386   1_556 S
C415   H525    1.083   1_455 S
C416   C418    1.390   .     A
C416   H437    1.083   .     S
C417   C419    1.402   .     A
C417   C13     1.420   1_556 S
C417   C15     1.409   1_556 S
C418   H436    1.079   .     S
C419   C423    1.413   .     A
C420   C424    1.388   .     A
C421   C422    1.401   .     A
C421   C8      1.408   1_556 S
C421   C15     1.423   1_556 S
C422   O448    1.383   .     S
C422   C423    1.400   .     A
C423   H427    1.082   .     S
C424   H434    1.080   .     S
C425   H471    1.083   .     S
H426   C515    1.083   1_455 S
H428   C678    1.088   1_545 S
H429   O448    0.992   .     S
H430   C545    1.088   .     S
H431   N438    1.029   .     S
H432   N439    1.029   .     S
H433   C8      1.083   1_556 S
H435   C460    1.083   .     S
N438   Zn450   2.019   .     S
N438   N439    1.287   .     D
N439   Zn449   2.019   .     S
O440   Zn449   1.952   .     S
O440   C451    1.276   .     S
O441   Zn450   1.979   .     S
O442   Zn449   1.956   .     S
O442   C454    1.289   .     S
O443   Zn450   1.917   .     S
O444   Zn449   1.979   .     S
O445   Zn450   1.952   .     S
O445   C501    1.276   1_455 S
O446   Zn449   1.917   .     S
O447   Zn450   1.956   .     S
O447   C502    1.289   1_455 S
C451   O486    1.289   .     A
C451   C453    1.403   .     S
C452   C454    1.452   .     S
C452   C464    1.407   .     A
C452   C460    1.403   .     A
C453   C545    1.339   .     S
C453   H608    1.088   .     S
C454   O488    1.299   .     A
C455   C456    1.403   .     S
C455   C768    1.339   1_545 S
C455   H745    1.088   1_545 S
C456   O489    1.289   .     A
C456   O535    1.276   .     S
C457   O491    1.297   .     A
C457   C459    1.444   .     S
C457   O537    1.289   .     S
C458   C470    1.393   .     A
C459   C470    1.398   .     A
C459   C469    1.381   .     A
C460   C56     1.386   1_556 S
C461   C463    1.390   .     A
C461   H482    1.083   .     S
C462   C464    1.402   .     A
C462   C58     1.420   1_556 S
C462   C60     1.409   1_556 S
C463   H481    1.079   .     S
C464   C468    1.413   .     A
C465   C469    1.388   .     A
C466   C467    1.401   .     A
C466   C53     1.408   1_556 S
C466   C60     1.423   1_556 S
C467   O493    1.383   .     S
C467   C468    1.400   .     A
C468   H472    1.082   .     S
C469   H479    1.080   .     S
C470   H516    1.083   .     S
H473   C723    1.088   1_545 S
H474   O493    0.992   .     S
H475   C590    1.088   .     S
H476   N483    1.029   .     S
H477   N484    1.029   .     S
H478   C53     1.083   1_556 S
H480   C505    1.083   .     S
N483   Zn495   2.019   .     S
N483   N484    1.287   .     D
N484   Zn494   2.019   .     S
O485   Zn494   1.952   .     S
O485   C496    1.276   .     S
O486   Zn495   1.979   .     S
O487   Zn494   1.956   .     S
O487   C499    1.289   .     S
O488   Zn495   1.917   .     S
O489   Zn494   1.979   .     S
O490   Zn495   1.952   .     S
O491   Zn494   1.917   .     S
O492   Zn495   1.956   .     S
C496   O531    1.289   .     A
C496   C498    1.403   .     S
C497   C499    1.452   .     S
C497   C509    1.407   .     A
C497   C505    1.403   .     A
C498   C590    1.339   .     S
C498   H653    1.088   .     S
C499   O533    1.299   .     A
C500   C501    1.403   .     S
C500   C678    1.339   1_645 S
C500   H790    1.088   1_545 S
C501   O534    1.289   .     A
C501   O445    1.276   1_655 S
C502   O536    1.297   .     A
C502   C504    1.444   .     S
C502   O447    1.289   1_655 S
C503   C515    1.393   .     A
C504   C515    1.398   .     A
C504   C514    1.381   .     A
C505   C101    1.386   1_556 S
C506   C508    1.390   .     A
C506   H527    1.083   .     S
C507   C509    1.402   .     A
C507   C103    1.420   1_556 S
C507   C105    1.409   1_556 S
C508   H526    1.079   .     S
C509   C513    1.413   .     A
C510   C514    1.388   .     A
C511   C512    1.401   .     A
C511   C98     1.408   1_556 S
C511   C105    1.423   1_556 S
C512   O538    1.383   .     S
C512   C513    1.400   .     A
C513   H517    1.082   .     S
C514   H524    1.080   .     S
C515   H426    1.083   1_655 S
H518   C768    1.088   1_545 S
H519   O538    0.992   .     S
H520   C635    1.088   .     S
H521   N528    1.029   .     S
H522   N529    1.029   .     S
H523   C98     1.083   1_556 S
H525   C415    1.083   1_655 S
N528   Zn540   2.019   .     S
N528   N529    1.287   .     D
N529   Zn539   2.019   .     S
O530   Zn539   1.952   .     S
O530   C406    1.276   1_655 S
O531   Zn540   1.979   .     S
O532   Zn539   1.956   .     S
O532   C409    1.289   1_655 S
O533   Zn540   1.917   .     S
O534   Zn539   1.979   .     S
O535   Zn540   1.952   .     S
O536   Zn539   1.917   .     S
O537   Zn540   1.956   .     S
C541   O576    1.289   .     A
C541   C543    1.403   .     S
C541   O665    1.276   1_455 S
C542   C544    1.452   .     S
C542   C554    1.407   .     A
C542   C550    1.403   .     A
C543   C770    1.339   1_455 S
C543   H698    1.088   .     S
C544   O578    1.299   .     A
C544   O667    1.289   1_455 S
C545   C546    1.403   .     S
C546   O579    1.289   .     A
C546   O625    1.276   .     S
C547   O581    1.297   .     A
C547   C549    1.444   .     S
C547   O627    1.289   .     S
C548   C560    1.393   .     A
C549   C560    1.398   .     A
C549   C559    1.381   .     A
C550   C146    1.386   1_556 S
C550   H660    1.083   1_455 S
C551   C553    1.390   .     A
C551   H572    1.083   .     S
C552   C554    1.402   .     A
C552   C148    1.420   1_556 S
C552   C150    1.409   1_556 S
C553   H571    1.079   .     S
C554   C558    1.413   .     A
C555   C559    1.388   .     A
C556   C557    1.401   .     A
C556   C143    1.408   1_556 S
C556   C150    1.423   1_556 S
C557   O583    1.383   .     S
C557   C558    1.400   .     A
C558   H562    1.082   .     S
C559   H569    1.080   .     S
C560   H606    1.083   .     S
H561   C650    1.083   1_455 S
H564   O583    0.992   .     S
H565   C680    1.088   .     S
H566   N573    1.029   .     S
H567   N574    1.029   .     S
H568   C143    1.083   1_556 S
H570   C595    1.083   .     S
N573   Zn585   2.019   .     S
N573   N574    1.287   .     D
N574   Zn584   2.019   .     S
O575   Zn584   1.952   .     S
O575   C586    1.276   .     S
O576   Zn585   1.979   .     S
O577   Zn584   1.956   .     S
O577   C589    1.289   .     S
O578   Zn585   1.917   .     S
O579   Zn584   1.979   .     S
O580   Zn585   1.952   .     S
O580   C636    1.276   1_455 S
O581   Zn584   1.917   .     S
O582   Zn585   1.956   .     S
O582   C637    1.289   1_455 S
C586   O621    1.289   .     A
C586   C588    1.403   .     S
C587   C589    1.452   .     S
C587   C599    1.407   .     A
C587   C595    1.403   .     A
C588   C680    1.339   .     S
C588   H743    1.088   .     S
C589   O623    1.299   .     A
C590   C591    1.403   .     S
C591   O624    1.289   .     A
C591   O670    1.276   .     S
C592   O626    1.297   .     A
C592   C594    1.444   .     S
C592   O672    1.289   .     S
C593   C605    1.393   .     A
C594   C605    1.398   .     A
C594   C604    1.381   .     A
C595   C191    1.386   1_556 S
C596   C598    1.390   .     A
C596   H617    1.083   .     S
C597   C599    1.402   .     A
C597   C193    1.420   1_556 S
C597   C195    1.409   1_556 S
C598   H616    1.079   .     S
C599   C603    1.413   .     A
C600   C604    1.388   .     A
C601   C602    1.401   .     A
C601   C188    1.408   1_556 S
C601   C195    1.423   1_556 S
C602   O628    1.383   .     S
C602   C603    1.400   .     A
C603   H607    1.082   .     S
C604   H614    1.080   .     S
C605   H651    1.083   .     S
H609   O628    0.992   .     S
H610   C725    1.088   .     S
H611   N618    1.029   .     S
H612   N619    1.029   .     S
H613   C188    1.083   1_556 S
H615   C640    1.083   .     S
N618   Zn630   2.019   .     S
N618   N619    1.287   .     D
N619   Zn629   2.019   .     S
O620   Zn629   1.952   .     S
O620   C631    1.276   .     S
O621   Zn630   1.979   .     S
O622   Zn629   1.956   .     S
O622   C634    1.289   .     S
O623   Zn630   1.917   .     S
O624   Zn629   1.979   .     S
O625   Zn630   1.952   .     S
O626   Zn629   1.917   .     S
O627   Zn630   1.956   .     S
C631   O666    1.289   .     A
C631   C633    1.403   .     S
C632   C634    1.452   .     S
C632   C644    1.407   .     A
C632   C640    1.403   .     A
C633   C725    1.339   .     S
C633   H788    1.088   .     S
C634   O668    1.299   .     A
C635   C636    1.403   .     S
C635   C408    1.339   1_655 S
C636   O669    1.289   .     A
C636   O580    1.276   1_655 S
C637   O671    1.297   .     A
C637   C639    1.444   .     S
C637   O582    1.289   1_655 S
C638   C650    1.393   .     A
C639   C650    1.398   .     A
C639   C649    1.381   .     A
C640   C236    1.386   1_556 S
C641   C643    1.390   .     A
C641   H662    1.083   .     S
C642   C644    1.402   .     A
C642   C238    1.420   1_556 S
C642   C240    1.409   1_556 S
C643   H661    1.079   .     S
C644   C648    1.413   .     A
C645   C649    1.388   .     A
C646   C647    1.401   .     A
C646   C233    1.408   1_556 S
C646   C240    1.423   1_556 S
C647   O673    1.383   .     S
C647   C648    1.400   .     A
C648   H652    1.082   .     S
C649   H659    1.080   .     S
C650   H561    1.083   1_655 S
H654   O673    0.992   .     S
H655   C770    1.088   .     S
H656   N663    1.029   .     S
H657   N664    1.029   .     S
H658   C233    1.083   1_556 S
H660   C550    1.083   1_655 S
N663   Zn675   2.019   .     S
N663   N664    1.287   .     D
N664   Zn674   2.019   .     S
O665   Zn674   1.952   .     S
O665   C541    1.276   1_655 S
O666   Zn675   1.979   .     S
O667   Zn674   1.956   .     S
O667   C544    1.289   1_655 S
O668   Zn675   1.917   .     S
O669   Zn674   1.979   .     S
O670   Zn675   1.952   .     S
O671   Zn674   1.917   .     S
O672   Zn675   1.956   .     S
C676   O711    1.289   .     A
C676   C678    1.403   .     S
C676   O800    1.276   1_455 S
C677   C679    1.452   .     S
C677   C689    1.407   .     A
C677   C685    1.403   .     A
C678   C500    1.339   1_465 S
C678   H428    1.088   1_565 S
C679   O713    1.299   .     A
C679   O802    1.289   1_455 S
C680   C681    1.403   .     S
C681   O714    1.289   .     A
C681   O760    1.276   .     S
C682   O716    1.297   .     A
C682   C684    1.444   .     S
C682   O762    1.289   .     S
C683   C695    1.393   .     A
C684   C695    1.398   .     A
C684   C694    1.381   .     A
C685   C281    1.386   1_556 S
C685   H795    1.083   1_455 S
C686   C688    1.390   .     A
C686   H707    1.083   .     S
C687   C689    1.402   .     A
C687   C283    1.420   1_556 S
C687   C285    1.409   1_556 S
C688   H706    1.079   .     S
C689   C693    1.413   .     A
C690   C694    1.388   .     A
C691   C692    1.401   .     A
C691   C278    1.408   1_556 S
C691   C285    1.423   1_556 S
C692   O718    1.383   .     S
C692   C693    1.400   .     A
C693   H697    1.082   .     S
C694   H704    1.080   .     S
C695   H741    1.083   .     S
H696   C785    1.083   1_455 S
H699   O718    0.992   .     S
H700   C410    1.088   1_565 S
H701   N708    1.029   .     S
H702   N709    1.029   .     S
H703   C278    1.083   1_556 S
H705   C730    1.083   .     S
N708   Zn720   2.019   .     S
N708   N709    1.287   .     D
N709   Zn719   2.019   .     S
O710   Zn719   1.952   .     S
O710   C721    1.276   .     S
O711   Zn720   1.979   .     S
O712   Zn719   1.956   .     S
O712   C724    1.289   .     S
O713   Zn720   1.917   .     S
O714   Zn719   1.979   .     S
O715   Zn720   1.952   .     S
O715   C771    1.276   1_455 S
O716   Zn719   1.917   .     S
O717   Zn720   1.956   .     S
O717   C772    1.289   1_455 S
C721   O756    1.289   .     A
C721   C723    1.403   .     S
C722   C724    1.452   .     S
C722   C734    1.407   .     A
C722   C730    1.403   .     A
C723   C410    1.339   1_565 S
C723   H473    1.088   1_565 S
C724   O758    1.299   .     A
C725   C726    1.403   .     S
C726   O759    1.289   .     A
C726   O805    1.276   .     S
C727   O761    1.297   .     A
C727   C729    1.444   .     S
C727   O807    1.289   .     S
C728   C740    1.393   .     A
C729   C740    1.398   .     A
C729   C739    1.381   .     A
C730   C326    1.386   1_556 S
C731   C733    1.390   .     A
C731   H752    1.083   .     S
C732   C734    1.402   .     A
C732   C328    1.420   1_556 S
C732   C330    1.409   1_556 S
C733   H751    1.079   .     S
C734   C738    1.413   .     A
C735   C739    1.388   .     A
C736   C737    1.401   .     A
C736   C323    1.408   1_556 S
C736   C330    1.423   1_556 S
C737   O763    1.383   .     S
C737   C738    1.400   .     A
C738   H742    1.082   .     S
C739   H749    1.080   .     S
C740   H786    1.083   .     S
H744   O763    0.992   .     S
H745   C455    1.088   1_565 S
H746   N753    1.029   .     S
H747   N754    1.029   .     S
H748   C323    1.083   1_556 S
H750   C775    1.083   .     S
N753   Zn765   2.019   .     S
N753   N754    1.287   .     D
N754   Zn764   2.019   .     S
O755   Zn764   1.952   .     S
O755   C766    1.276   .     S
O756   Zn765   1.979   .     S
O757   Zn764   1.956   .     S
O757   C769    1.289   .     S
O758   Zn765   1.917   .     S
O759   Zn764   1.979   .     S
O760   Zn765   1.952   .     S
O761   Zn764   1.917   .     S
O762   Zn765   1.956   .     S
C766   O801    1.289   .     A
C766   C768    1.403   .     S
C767   C769    1.452   .     S
C767   C779    1.407   .     A
C767   C775    1.403   .     A
C768   C455    1.339   1_565 S
C768   H518    1.088   1_565 S
C769   O803    1.299   .     A
C770   C771    1.403   .     S
C770   C543    1.339   1_655 S
C771   O804    1.289   .     A
C771   O715    1.276   1_655 S
C772   O806    1.297   .     A
C772   C774    1.444   .     S
C772   O717    1.289   1_655 S
C773   C785    1.393   .     A
C774   C785    1.398   .     A
C774   C784    1.381   .     A
C775   C371    1.386   1_556 S
C776   C778    1.390   .     A
C776   H797    1.083   .     S
C777   C779    1.402   .     A
C777   C373    1.420   1_556 S
C777   C375    1.409   1_556 S
C778   H796    1.079   .     S
C779   C783    1.413   .     A
C780   C784    1.388   .     A
C781   C782    1.401   .     A
C781   C368    1.408   1_556 S
C781   C375    1.423   1_556 S
C782   O808    1.383   .     S
C782   C783    1.400   .     A
C783   H787    1.082   .     S
C784   H794    1.080   .     S
C785   H696    1.083   1_655 S
H789   O808    0.992   .     S
H790   C500    1.088   1_565 S
H791   N798    1.029   .     S
H792   N799    1.029   .     S
H793   C368    1.083   1_556 S
H795   C685    1.083   1_655 S
N798   Zn810   2.019   .     S
N798   N799    1.287   .     D
N799   Zn809   2.019   .     S
O800   Zn809   1.952   .     S
O800   C676    1.276   1_655 S
O801   Zn810   1.979   .     S
O802   Zn809   1.956   .     S
O802   C679    1.289   1_655 S
O803   Zn810   1.917   .     S
O804   Zn809   1.979   .     S
O805   Zn810   1.952   .     S
O806   Zn809   1.917   .     S
O807   Zn810   1.956   .     S
