data_str_m2_o2_o10_pcu_sym.169
_audit_creation_date              2020-01-03
_audit_creation_method            'Materials Studio'
_symmetry_space_group_name_H-M    'P1'
_symmetry_Int_Tables_number       1
_symmetry_cell_setting            triclinic
loop_
_symmetry_equiv_pos_as_xyz
  x,y,z
_cell_length_a                    26.1939
_cell_length_b                    30.2322
_cell_length_c                    27.8464
_cell_angle_alpha                 90.5996
_cell_angle_beta                  98.2688
_cell_angle_gamma                 90.7009
loop_
_atom_site_label
_atom_site_type_symbol
_atom_site_fract_x
_atom_site_fract_y
_atom_site_fract_z
_atom_site_U_iso_or_equiv
_atom_site_adp_type
_atom_site_occupancy
C1     C     0.16663   0.16502   0.24976   0.00000  Uiso   1.00
C2     C     0.16670   0.33502   0.25022   0.00000  Uiso   1.00
C3     C     0.19414   0.28259   0.05845   0.00000  Uiso   1.00
C4     C     0.12792   0.22715   0.44012   0.00000  Uiso   1.00
C5     C     0.19463   0.28116   0.10904   0.00000  Uiso   1.00
C6     C     0.12964   0.22675   0.38979   0.00000  Uiso   1.00
C7     C     0.13755   0.21961   0.10002   0.00000  Uiso   1.00
C8     C     0.20275   0.27421   0.40096   0.00000  Uiso   1.00
C9     C     0.13782   0.21890   0.04957   0.00000  Uiso   1.00
C10    C     0.20351   0.27386   0.45153   0.00000  Uiso   1.00
C11    C     0.16591   0.25076   0.02728   0.00000  Uiso   1.00
C12    C     0.16567   0.25055   0.47253   0.00000  Uiso   1.00
C13    C     0.06791   0.24994   0.23751   0.00000  Uiso   1.00
C14    C     0.26543   0.25002   0.26249   0.00000  Uiso   1.00
C15    C     0.01254   0.24991   0.23070   0.00000  Uiso   1.00
C16    C     0.32080   0.25001   0.26930   0.00000  Uiso   1.00
C17    C     0.14430   0.04742   0.28320   0.00000  Uiso   1.00
C18    C     0.14806   0.45218   0.20916   0.00000  Uiso   1.00
C19    C     0.14363   0.09334   0.28342   0.00000  Uiso   1.00
C20    C     0.14739   0.40624   0.20886   0.00000  Uiso   1.00
C21    C     0.16713   0.11685   0.24931   0.00000  Uiso   1.00
C22    C     0.16718   0.38331   0.25071   0.00000  Uiso   1.00
C23    C     0.19173   0.09418   0.21517   0.00000  Uiso   1.00
C24    C     0.18806   0.40671   0.29282   0.00000  Uiso   1.00
C25    C     0.19375   0.04810   0.21554   0.00000  Uiso   1.00
C26    C     0.19008   0.45283   0.29303   0.00000  Uiso   1.00
C27    C     0.16969   0.02446   0.24978   0.00000  Uiso   1.00
C28    C     0.16974   0.47583   0.25086   0.00000  Uiso   1.00
Cu29   Cu    0.16667   0.24999   0.29821   0.00000  Uiso   1.00
Cu30   Cu    0.16667   0.25000   0.20178   0.00000  Uiso   1.00
H31    H     0.21043   0.11244   0.18908   0.00000  Uiso   1.00
H32    H     0.20377   0.38907   0.32518   0.00000  Uiso   1.00
H33    H     0.11596   0.19308   0.02837   0.00000  Uiso   1.00
H34    H     0.23416   0.29190   0.47387   0.00000  Uiso   1.00
N35    N     0.16667   0.25001   0.12934   0.00000  Uiso   1.00
N36    N     0.16667   0.24999   0.37065   0.00000  Uiso   1.00
O37    O     0.16667   0.18572   0.29071   0.00000  Uiso   1.00
O38    O     0.16666   0.31427   0.20928   0.00000  Uiso   1.00
O39    O     0.16667   0.18573   0.20928   0.00000  Uiso   1.00
O40    O     0.16666   0.31427   0.29072   0.00000  Uiso   1.00
O41    O     0.09161   0.24999   0.28132   0.00000  Uiso   1.00
O42    O     0.24172   0.25000   0.21868   0.00000  Uiso   1.00
O43    O     0.09161   0.25000   0.19988   0.00000  Uiso   1.00
O44    O     0.24172   0.25000   0.30011   0.00000  Uiso   1.00
H45    H     0.32567   0.24982   0.19375   0.00000  Uiso   1.00
H46    H     0.00766   0.25010   0.30626   0.00000  Uiso   1.00
H47    H     0.12501   0.02968   0.30920   0.00000  Uiso   1.00
H48    H     0.13162   0.46941   0.17677   0.00000  Uiso   1.00
H49    H     0.12413   0.11048   0.30976   0.00000  Uiso   1.00
H50    H     0.13075   0.38865   0.17612   0.00000  Uiso   1.00
C51    C     0.22206   0.02601   0.18165   0.00000  Uiso   1.00
N52    N     0.24476   0.00831   0.15451   0.00000  Uiso   1.00
C53    C     0.21455   0.47566   0.33627   0.00000  Uiso   1.00
N54    N     0.23415   0.49395   0.37091   0.00000  Uiso   1.00
H55    H     0.21549   0.30911   0.04451   0.00000  Uiso   1.00
H56    H     0.09649   0.20945   0.45277   0.00000  Uiso   1.00
H57    H     0.21698   0.30559   0.13204   0.00000  Uiso   1.00
H58    H     0.10067   0.20815   0.36593   0.00000  Uiso   1.00
C59    C     0.10471   0.18820   0.11976   0.00000  Uiso   1.00
N60    N     0.07804   0.16287   0.13522   0.00000  Uiso   1.00
C61    C     0.24036   0.30157   0.38206   0.00000  Uiso   1.00
N62    N     0.27082   0.32375   0.36737   0.00000  Uiso   1.00
C63    C     0.49996   0.16502   0.24976   0.00000  Uiso   1.00
C64    C     0.50004   0.33502   0.25022   0.00000  Uiso   1.00
C65    C     0.52747   0.28259   0.05845   0.00000  Uiso   1.00
C66    C     0.46126   0.22715   0.44012   0.00000  Uiso   1.00
C67    C     0.52796   0.28116   0.10904   0.00000  Uiso   1.00
C68    C     0.46298   0.22675   0.38979   0.00000  Uiso   1.00
C69    C     0.47089   0.21961   0.10002   0.00000  Uiso   1.00
C70    C     0.53608   0.27421   0.40096   0.00000  Uiso   1.00
C71    C     0.47116   0.21890   0.04957   0.00000  Uiso   1.00
C72    C     0.53685   0.27386   0.45153   0.00000  Uiso   1.00
C73    C     0.49925   0.25076   0.02728   0.00000  Uiso   1.00
C74    C     0.49900   0.25055   0.47253   0.00000  Uiso   1.00
C75    C     0.40124   0.24994   0.23751   0.00000  Uiso   1.00
C76    C     0.59876   0.25002   0.26249   0.00000  Uiso   1.00
C77    C     0.34587   0.24991   0.23070   0.00000  Uiso   1.00
C78    C     0.65413   0.25001   0.26930   0.00000  Uiso   1.00
C79    C     0.47764   0.04742   0.28320   0.00000  Uiso   1.00
C80    C     0.48140   0.45218   0.20916   0.00000  Uiso   1.00
C81    C     0.47697   0.09334   0.28342   0.00000  Uiso   1.00
C82    C     0.48072   0.40624   0.20886   0.00000  Uiso   1.00
C83    C     0.50046   0.11685   0.24931   0.00000  Uiso   1.00
C84    C     0.50052   0.38331   0.25071   0.00000  Uiso   1.00
C85    C     0.52506   0.09418   0.21517   0.00000  Uiso   1.00
C86    C     0.52139   0.40671   0.29282   0.00000  Uiso   1.00
C87    C     0.52708   0.04810   0.21554   0.00000  Uiso   1.00
C88    C     0.52342   0.45283   0.29303   0.00000  Uiso   1.00
C89    C     0.50302   0.02446   0.24978   0.00000  Uiso   1.00
C90    C     0.50307   0.47583   0.25086   0.00000  Uiso   1.00
Cu91   Cu    0.50000   0.24999   0.29821   0.00000  Uiso   1.00
Cu92   Cu    0.50000   0.25000   0.20178   0.00000  Uiso   1.00
H93    H     0.54377   0.11244   0.18908   0.00000  Uiso   1.00
H94    H     0.53711   0.38907   0.32518   0.00000  Uiso   1.00
H95    H     0.44929   0.19308   0.02837   0.00000  Uiso   1.00
H96    H     0.56750   0.29190   0.47387   0.00000  Uiso   1.00
N97    N     0.50000   0.25001   0.12934   0.00000  Uiso   1.00
N98    N     0.50000   0.24999   0.37065   0.00000  Uiso   1.00
O99    O     0.50000   0.18572   0.29071   0.00000  Uiso   1.00
O100   O     0.50000   0.31427   0.20928   0.00000  Uiso   1.00
O101   O     0.50000   0.18573   0.20928   0.00000  Uiso   1.00
O102   O     0.50000   0.31427   0.29072   0.00000  Uiso   1.00
O103   O     0.42495   0.24999   0.28132   0.00000  Uiso   1.00
O104   O     0.57505   0.25000   0.21868   0.00000  Uiso   1.00
O105   O     0.42495   0.25000   0.19988   0.00000  Uiso   1.00
O106   O     0.57505   0.25000   0.30011   0.00000  Uiso   1.00
H107   H     0.65900   0.24982   0.19375   0.00000  Uiso   1.00
H108   H     0.34099   0.25010   0.30626   0.00000  Uiso   1.00
H109   H     0.45834   0.02968   0.30920   0.00000  Uiso   1.00
H110   H     0.46495   0.46941   0.17677   0.00000  Uiso   1.00
H111   H     0.45746   0.11048   0.30976   0.00000  Uiso   1.00
H112   H     0.46408   0.38865   0.17612   0.00000  Uiso   1.00
C113   C     0.55540   0.02601   0.18165   0.00000  Uiso   1.00
N114   N     0.57809   0.00831   0.15451   0.00000  Uiso   1.00
C115   C     0.54788   0.47566   0.33627   0.00000  Uiso   1.00
N116   N     0.56748   0.49395   0.37091   0.00000  Uiso   1.00
H117   H     0.54883   0.30911   0.04451   0.00000  Uiso   1.00
H118   H     0.42983   0.20945   0.45277   0.00000  Uiso   1.00
H119   H     0.55032   0.30559   0.13204   0.00000  Uiso   1.00
H120   H     0.43400   0.20815   0.36593   0.00000  Uiso   1.00
C121   C     0.43804   0.18820   0.11976   0.00000  Uiso   1.00
N122   N     0.41137   0.16287   0.13522   0.00000  Uiso   1.00
C123   C     0.57369   0.30157   0.38206   0.00000  Uiso   1.00
N124   N     0.60415   0.32375   0.36737   0.00000  Uiso   1.00
C125   C     0.83329   0.16502   0.24976   0.00000  Uiso   1.00
C126   C     0.83337   0.33502   0.25022   0.00000  Uiso   1.00
C127   C     0.86081   0.28259   0.05845   0.00000  Uiso   1.00
C128   C     0.79459   0.22715   0.44012   0.00000  Uiso   1.00
C129   C     0.86129   0.28116   0.10904   0.00000  Uiso   1.00
C130   C     0.79631   0.22675   0.38979   0.00000  Uiso   1.00
C131   C     0.80422   0.21961   0.10002   0.00000  Uiso   1.00
C132   C     0.86941   0.27421   0.40096   0.00000  Uiso   1.00
C133   C     0.80449   0.21890   0.04957   0.00000  Uiso   1.00
C134   C     0.87018   0.27386   0.45153   0.00000  Uiso   1.00
C135   C     0.83258   0.25076   0.02728   0.00000  Uiso   1.00
C136   C     0.83233   0.25055   0.47253   0.00000  Uiso   1.00
C137   C     0.73457   0.24994   0.23751   0.00000  Uiso   1.00
C138   C     0.93209   0.25002   0.26249   0.00000  Uiso   1.00
C139   C     0.67920   0.24991   0.23070   0.00000  Uiso   1.00
C140   C     0.98747   0.25001   0.26930   0.00000  Uiso   1.00
C141   C     0.81097   0.04742   0.28320   0.00000  Uiso   1.00
C142   C     0.81473   0.45218   0.20916   0.00000  Uiso   1.00
C143   C     0.81030   0.09334   0.28342   0.00000  Uiso   1.00
C144   C     0.81405   0.40624   0.20886   0.00000  Uiso   1.00
C145   C     0.83380   0.11685   0.24931   0.00000  Uiso   1.00
C146   C     0.83385   0.38331   0.25071   0.00000  Uiso   1.00
C147   C     0.85839   0.09418   0.21517   0.00000  Uiso   1.00
C148   C     0.85473   0.40671   0.29282   0.00000  Uiso   1.00
C149   C     0.86042   0.04810   0.21554   0.00000  Uiso   1.00
C150   C     0.85675   0.45283   0.29303   0.00000  Uiso   1.00
C151   C     0.83636   0.02446   0.24978   0.00000  Uiso   1.00
C152   C     0.83640   0.47583   0.25086   0.00000  Uiso   1.00
Cu153  Cu    0.83333   0.24999   0.29821   0.00000  Uiso   1.00
Cu154  Cu    0.83333   0.25000   0.20178   0.00000  Uiso   1.00
H155   H     0.87710   0.11244   0.18908   0.00000  Uiso   1.00
H156   H     0.87044   0.38907   0.32518   0.00000  Uiso   1.00
H157   H     0.78263   0.19308   0.02837   0.00000  Uiso   1.00
H158   H     0.90083   0.29190   0.47387   0.00000  Uiso   1.00
N159   N     0.83333   0.25001   0.12934   0.00000  Uiso   1.00
N160   N     0.83333   0.24999   0.37065   0.00000  Uiso   1.00
O161   O     0.83334   0.18572   0.29071   0.00000  Uiso   1.00
O162   O     0.83333   0.31427   0.20928   0.00000  Uiso   1.00
O163   O     0.83334   0.18573   0.20928   0.00000  Uiso   1.00
O164   O     0.83333   0.31427   0.29072   0.00000  Uiso   1.00
O165   O     0.75828   0.24999   0.28132   0.00000  Uiso   1.00
O166   O     0.90839   0.25000   0.21868   0.00000  Uiso   1.00
O167   O     0.75828   0.25000   0.19988   0.00000  Uiso   1.00
O168   O     0.90839   0.25000   0.30011   0.00000  Uiso   1.00
H169   H     0.99234   0.24982   0.19375   0.00000  Uiso   1.00
H170   H     0.67433   0.25010   0.30626   0.00000  Uiso   1.00
H171   H     0.79168   0.02968   0.30920   0.00000  Uiso   1.00
H172   H     0.79829   0.46941   0.17677   0.00000  Uiso   1.00
H173   H     0.79079   0.11048   0.30976   0.00000  Uiso   1.00
H174   H     0.79741   0.38865   0.17612   0.00000  Uiso   1.00
C175   C     0.88873   0.02601   0.18165   0.00000  Uiso   1.00
N176   N     0.91142   0.00831   0.15451   0.00000  Uiso   1.00
C177   C     0.88121   0.47566   0.33627   0.00000  Uiso   1.00
N178   N     0.90081   0.49395   0.37091   0.00000  Uiso   1.00
H179   H     0.88216   0.30911   0.04451   0.00000  Uiso   1.00
H180   H     0.76316   0.20945   0.45277   0.00000  Uiso   1.00
H181   H     0.88365   0.30559   0.13204   0.00000  Uiso   1.00
H182   H     0.76733   0.20815   0.36593   0.00000  Uiso   1.00
C183   C     0.77137   0.18820   0.11976   0.00000  Uiso   1.00
N184   N     0.74470   0.16287   0.13522   0.00000  Uiso   1.00
C185   C     0.90702   0.30157   0.38206   0.00000  Uiso   1.00
N186   N     0.93749   0.32375   0.36737   0.00000  Uiso   1.00
C187   C     0.16663   0.66502   0.24976   0.00000  Uiso   1.00
C188   C     0.16670   0.83502   0.25022   0.00000  Uiso   1.00
C189   C     0.19414   0.78259   0.05845   0.00000  Uiso   1.00
C190   C     0.12792   0.72715   0.44012   0.00000  Uiso   1.00
C191   C     0.19463   0.78116   0.10904   0.00000  Uiso   1.00
C192   C     0.12964   0.72675   0.38979   0.00000  Uiso   1.00
C193   C     0.13755   0.71961   0.10002   0.00000  Uiso   1.00
C194   C     0.20275   0.77421   0.40096   0.00000  Uiso   1.00
C195   C     0.13782   0.71890   0.04957   0.00000  Uiso   1.00
C196   C     0.20351   0.77386   0.45153   0.00000  Uiso   1.00
C197   C     0.16591   0.75076   0.02728   0.00000  Uiso   1.00
C198   C     0.16567   0.75055   0.47253   0.00000  Uiso   1.00
C199   C     0.06791   0.74994   0.23751   0.00000  Uiso   1.00
C200   C     0.26543   0.75002   0.26249   0.00000  Uiso   1.00
C201   C     0.01254   0.74991   0.23070   0.00000  Uiso   1.00
C202   C     0.32080   0.75001   0.26930   0.00000  Uiso   1.00
C203   C     0.14430   0.54742   0.28320   0.00000  Uiso   1.00
C204   C     0.14806   0.95218   0.20916   0.00000  Uiso   1.00
C205   C     0.14363   0.59334   0.28342   0.00000  Uiso   1.00
C206   C     0.14739   0.90624   0.20886   0.00000  Uiso   1.00
C207   C     0.16713   0.61685   0.24931   0.00000  Uiso   1.00
C208   C     0.16718   0.88331   0.25071   0.00000  Uiso   1.00
C209   C     0.19173   0.59418   0.21517   0.00000  Uiso   1.00
C210   C     0.18806   0.90671   0.29282   0.00000  Uiso   1.00
C211   C     0.19375   0.54810   0.21554   0.00000  Uiso   1.00
C212   C     0.19008   0.95283   0.29303   0.00000  Uiso   1.00
C213   C     0.16969   0.52446   0.24978   0.00000  Uiso   1.00
C214   C     0.16974   0.97583   0.25086   0.00000  Uiso   1.00
Cu215  Cu    0.16667   0.74999   0.29821   0.00000  Uiso   1.00
Cu216  Cu    0.16667   0.75000   0.20178   0.00000  Uiso   1.00
H217   H     0.21043   0.61244   0.18908   0.00000  Uiso   1.00
H218   H     0.20377   0.88907   0.32518   0.00000  Uiso   1.00
H219   H     0.11596   0.69308   0.02837   0.00000  Uiso   1.00
H220   H     0.23416   0.79190   0.47387   0.00000  Uiso   1.00
N221   N     0.16667   0.75001   0.12934   0.00000  Uiso   1.00
N222   N     0.16667   0.74999   0.37065   0.00000  Uiso   1.00
O223   O     0.16667   0.68572   0.29071   0.00000  Uiso   1.00
O224   O     0.16666   0.81427   0.20928   0.00000  Uiso   1.00
O225   O     0.16667   0.68573   0.20928   0.00000  Uiso   1.00
O226   O     0.16666   0.81427   0.29072   0.00000  Uiso   1.00
O227   O     0.09161   0.74999   0.28132   0.00000  Uiso   1.00
O228   O     0.24172   0.75000   0.21868   0.00000  Uiso   1.00
O229   O     0.09161   0.75000   0.19988   0.00000  Uiso   1.00
O230   O     0.24172   0.75000   0.30011   0.00000  Uiso   1.00
H231   H     0.32567   0.74982   0.19375   0.00000  Uiso   1.00
H232   H     0.00766   0.75010   0.30626   0.00000  Uiso   1.00
H233   H     0.12501   0.52968   0.30920   0.00000  Uiso   1.00
H234   H     0.13162   0.96941   0.17677   0.00000  Uiso   1.00
H235   H     0.12413   0.61048   0.30976   0.00000  Uiso   1.00
H236   H     0.13075   0.88865   0.17612   0.00000  Uiso   1.00
C237   C     0.22206   0.52601   0.18165   0.00000  Uiso   1.00
N238   N     0.24476   0.50831   0.15451   0.00000  Uiso   1.00
C239   C     0.21455   0.97566   0.33627   0.00000  Uiso   1.00
N240   N     0.23415   0.99395   0.37091   0.00000  Uiso   1.00
H241   H     0.21549   0.80911   0.04451   0.00000  Uiso   1.00
H242   H     0.09649   0.70945   0.45277   0.00000  Uiso   1.00
H243   H     0.21698   0.80559   0.13204   0.00000  Uiso   1.00
H244   H     0.10067   0.70815   0.36593   0.00000  Uiso   1.00
C245   C     0.10471   0.68820   0.11976   0.00000  Uiso   1.00
N246   N     0.07804   0.66287   0.13522   0.00000  Uiso   1.00
C247   C     0.24036   0.80157   0.38206   0.00000  Uiso   1.00
N248   N     0.27082   0.82375   0.36737   0.00000  Uiso   1.00
C249   C     0.49996   0.66502   0.24976   0.00000  Uiso   1.00
C250   C     0.50004   0.83502   0.25022   0.00000  Uiso   1.00
C251   C     0.52747   0.78259   0.05845   0.00000  Uiso   1.00
C252   C     0.46126   0.72715   0.44012   0.00000  Uiso   1.00
C253   C     0.52796   0.78116   0.10904   0.00000  Uiso   1.00
C254   C     0.46298   0.72675   0.38979   0.00000  Uiso   1.00
C255   C     0.47089   0.71961   0.10002   0.00000  Uiso   1.00
C256   C     0.53608   0.77421   0.40096   0.00000  Uiso   1.00
C257   C     0.47116   0.71890   0.04957   0.00000  Uiso   1.00
C258   C     0.53685   0.77386   0.45153   0.00000  Uiso   1.00
C259   C     0.49925   0.75076   0.02728   0.00000  Uiso   1.00
C260   C     0.49900   0.75055   0.47253   0.00000  Uiso   1.00
C261   C     0.40124   0.74994   0.23751   0.00000  Uiso   1.00
C262   C     0.59876   0.75002   0.26249   0.00000  Uiso   1.00
C263   C     0.34587   0.74991   0.23070   0.00000  Uiso   1.00
C264   C     0.65413   0.75001   0.26930   0.00000  Uiso   1.00
C265   C     0.47764   0.54742   0.28320   0.00000  Uiso   1.00
C266   C     0.48140   0.95218   0.20916   0.00000  Uiso   1.00
C267   C     0.47697   0.59334   0.28342   0.00000  Uiso   1.00
C268   C     0.48072   0.90624   0.20886   0.00000  Uiso   1.00
C269   C     0.50046   0.61685   0.24931   0.00000  Uiso   1.00
C270   C     0.50052   0.88331   0.25071   0.00000  Uiso   1.00
C271   C     0.52506   0.59418   0.21517   0.00000  Uiso   1.00
C272   C     0.52139   0.90671   0.29282   0.00000  Uiso   1.00
C273   C     0.52708   0.54810   0.21554   0.00000  Uiso   1.00
C274   C     0.52342   0.95283   0.29303   0.00000  Uiso   1.00
C275   C     0.50302   0.52446   0.24978   0.00000  Uiso   1.00
C276   C     0.50307   0.97583   0.25086   0.00000  Uiso   1.00
Cu277  Cu    0.50000   0.74999   0.29821   0.00000  Uiso   1.00
Cu278  Cu    0.50000   0.75000   0.20178   0.00000  Uiso   1.00
H279   H     0.54377   0.61244   0.18908   0.00000  Uiso   1.00
H280   H     0.53711   0.88907   0.32518   0.00000  Uiso   1.00
H281   H     0.44929   0.69308   0.02837   0.00000  Uiso   1.00
H282   H     0.56750   0.79190   0.47387   0.00000  Uiso   1.00
N283   N     0.50000   0.75001   0.12934   0.00000  Uiso   1.00
N284   N     0.50000   0.74999   0.37065   0.00000  Uiso   1.00
O285   O     0.50000   0.68572   0.29071   0.00000  Uiso   1.00
O286   O     0.50000   0.81427   0.20928   0.00000  Uiso   1.00
O287   O     0.50000   0.68573   0.20928   0.00000  Uiso   1.00
O288   O     0.50000   0.81427   0.29072   0.00000  Uiso   1.00
O289   O     0.42495   0.74999   0.28132   0.00000  Uiso   1.00
O290   O     0.57505   0.75000   0.21868   0.00000  Uiso   1.00
O291   O     0.42495   0.75000   0.19988   0.00000  Uiso   1.00
O292   O     0.57505   0.75000   0.30011   0.00000  Uiso   1.00
H293   H     0.65900   0.74982   0.19375   0.00000  Uiso   1.00
H294   H     0.34099   0.75010   0.30626   0.00000  Uiso   1.00
H295   H     0.45834   0.52968   0.30920   0.00000  Uiso   1.00
H296   H     0.46495   0.96941   0.17677   0.00000  Uiso   1.00
H297   H     0.45746   0.61048   0.30976   0.00000  Uiso   1.00
H298   H     0.46408   0.88865   0.17612   0.00000  Uiso   1.00
C299   C     0.55540   0.52601   0.18165   0.00000  Uiso   1.00
N300   N     0.57809   0.50831   0.15451   0.00000  Uiso   1.00
C301   C     0.54788   0.97566   0.33627   0.00000  Uiso   1.00
N302   N     0.56748   0.99395   0.37091   0.00000  Uiso   1.00
H303   H     0.54883   0.80911   0.04451   0.00000  Uiso   1.00
H304   H     0.42983   0.70945   0.45277   0.00000  Uiso   1.00
H305   H     0.55032   0.80559   0.13204   0.00000  Uiso   1.00
H306   H     0.43400   0.70815   0.36593   0.00000  Uiso   1.00
C307   C     0.43804   0.68820   0.11976   0.00000  Uiso   1.00
N308   N     0.41137   0.66287   0.13522   0.00000  Uiso   1.00
C309   C     0.57369   0.80157   0.38206   0.00000  Uiso   1.00
N310   N     0.60415   0.82375   0.36737   0.00000  Uiso   1.00
C311   C     0.83329   0.66502   0.24976   0.00000  Uiso   1.00
C312   C     0.83337   0.83502   0.25022   0.00000  Uiso   1.00
C313   C     0.86081   0.78259   0.05845   0.00000  Uiso   1.00
C314   C     0.79459   0.72715   0.44012   0.00000  Uiso   1.00
C315   C     0.86129   0.78116   0.10904   0.00000  Uiso   1.00
C316   C     0.79631   0.72675   0.38979   0.00000  Uiso   1.00
C317   C     0.80422   0.71961   0.10002   0.00000  Uiso   1.00
C318   C     0.86941   0.77421   0.40096   0.00000  Uiso   1.00
C319   C     0.80449   0.71890   0.04957   0.00000  Uiso   1.00
C320   C     0.87018   0.77386   0.45153   0.00000  Uiso   1.00
C321   C     0.83258   0.75076   0.02728   0.00000  Uiso   1.00
C322   C     0.83233   0.75055   0.47253   0.00000  Uiso   1.00
C323   C     0.73457   0.74994   0.23751   0.00000  Uiso   1.00
C324   C     0.93209   0.75002   0.26249   0.00000  Uiso   1.00
C325   C     0.67920   0.74991   0.23070   0.00000  Uiso   1.00
C326   C     0.98747   0.75001   0.26930   0.00000  Uiso   1.00
C327   C     0.81097   0.54742   0.28320   0.00000  Uiso   1.00
C328   C     0.81473   0.95218   0.20916   0.00000  Uiso   1.00
C329   C     0.81030   0.59334   0.28342   0.00000  Uiso   1.00
C330   C     0.81405   0.90624   0.20886   0.00000  Uiso   1.00
C331   C     0.83380   0.61685   0.24931   0.00000  Uiso   1.00
C332   C     0.83385   0.88331   0.25071   0.00000  Uiso   1.00
C333   C     0.85839   0.59418   0.21517   0.00000  Uiso   1.00
C334   C     0.85473   0.90671   0.29282   0.00000  Uiso   1.00
C335   C     0.86042   0.54810   0.21554   0.00000  Uiso   1.00
C336   C     0.85675   0.95283   0.29303   0.00000  Uiso   1.00
C337   C     0.83636   0.52446   0.24978   0.00000  Uiso   1.00
C338   C     0.83640   0.97583   0.25086   0.00000  Uiso   1.00
Cu339  Cu    0.83333   0.74999   0.29821   0.00000  Uiso   1.00
Cu340  Cu    0.83333   0.75000   0.20178   0.00000  Uiso   1.00
H341   H     0.87710   0.61244   0.18908   0.00000  Uiso   1.00
H342   H     0.87044   0.88907   0.32518   0.00000  Uiso   1.00
H343   H     0.78263   0.69308   0.02837   0.00000  Uiso   1.00
H344   H     0.90083   0.79190   0.47387   0.00000  Uiso   1.00
N345   N     0.83333   0.75001   0.12934   0.00000  Uiso   1.00
N346   N     0.83333   0.74999   0.37065   0.00000  Uiso   1.00
O347   O     0.83334   0.68572   0.29071   0.00000  Uiso   1.00
O348   O     0.83333   0.81427   0.20928   0.00000  Uiso   1.00
O349   O     0.83334   0.68573   0.20928   0.00000  Uiso   1.00
O350   O     0.83333   0.81427   0.29072   0.00000  Uiso   1.00
O351   O     0.75828   0.74999   0.28132   0.00000  Uiso   1.00
O352   O     0.90839   0.75000   0.21868   0.00000  Uiso   1.00
O353   O     0.75828   0.75000   0.19988   0.00000  Uiso   1.00
O354   O     0.90839   0.75000   0.30011   0.00000  Uiso   1.00
H355   H     0.99234   0.74982   0.19375   0.00000  Uiso   1.00
H356   H     0.67433   0.75010   0.30626   0.00000  Uiso   1.00
H357   H     0.79168   0.52968   0.30920   0.00000  Uiso   1.00
H358   H     0.79829   0.96941   0.17677   0.00000  Uiso   1.00
H359   H     0.79079   0.61048   0.30976   0.00000  Uiso   1.00
H360   H     0.79741   0.88865   0.17612   0.00000  Uiso   1.00
C361   C     0.88873   0.52601   0.18165   0.00000  Uiso   1.00
N362   N     0.91142   0.50831   0.15451   0.00000  Uiso   1.00
C363   C     0.88121   0.97566   0.33627   0.00000  Uiso   1.00
N364   N     0.90081   0.99395   0.37091   0.00000  Uiso   1.00
H365   H     0.88216   0.80911   0.04451   0.00000  Uiso   1.00
H366   H     0.76316   0.70945   0.45277   0.00000  Uiso   1.00
H367   H     0.88365   0.80559   0.13204   0.00000  Uiso   1.00
H368   H     0.76733   0.70815   0.36593   0.00000  Uiso   1.00
C369   C     0.77137   0.68820   0.11976   0.00000  Uiso   1.00
N370   N     0.74470   0.66287   0.13522   0.00000  Uiso   1.00
C371   C     0.90702   0.80157   0.38206   0.00000  Uiso   1.00
N372   N     0.93749   0.82375   0.36737   0.00000  Uiso   1.00
C373   C     0.16663   0.16502   0.74976   0.00000  Uiso   1.00
C374   C     0.16670   0.33502   0.75022   0.00000  Uiso   1.00
C375   C     0.19414   0.28259   0.55845   0.00000  Uiso   1.00
C376   C     0.12792   0.22715   0.94012   0.00000  Uiso   1.00
C377   C     0.19463   0.28116   0.60904   0.00000  Uiso   1.00
C378   C     0.12964   0.22675   0.88979   0.00000  Uiso   1.00
C379   C     0.13755   0.21961   0.60002   0.00000  Uiso   1.00
C380   C     0.20275   0.27421   0.90096   0.00000  Uiso   1.00
C381   C     0.13782   0.21890   0.54957   0.00000  Uiso   1.00
C382   C     0.20351   0.27386   0.95153   0.00000  Uiso   1.00
C383   C     0.16591   0.25076   0.52728   0.00000  Uiso   1.00
C384   C     0.16567   0.25055   0.97253   0.00000  Uiso   1.00
C385   C     0.06791   0.24994   0.73751   0.00000  Uiso   1.00
C386   C     0.26543   0.25002   0.76249   0.00000  Uiso   1.00
C387   C     0.01254   0.24991   0.73070   0.00000  Uiso   1.00
C388   C     0.32080   0.25001   0.76930   0.00000  Uiso   1.00
C389   C     0.14430   0.04742   0.78320   0.00000  Uiso   1.00
C390   C     0.14806   0.45218   0.70916   0.00000  Uiso   1.00
C391   C     0.14363   0.09334   0.78342   0.00000  Uiso   1.00
C392   C     0.14739   0.40624   0.70886   0.00000  Uiso   1.00
C393   C     0.16713   0.11685   0.74931   0.00000  Uiso   1.00
C394   C     0.16718   0.38331   0.75071   0.00000  Uiso   1.00
C395   C     0.19173   0.09418   0.71517   0.00000  Uiso   1.00
C396   C     0.18806   0.40671   0.79282   0.00000  Uiso   1.00
C397   C     0.19375   0.04810   0.71554   0.00000  Uiso   1.00
C398   C     0.19008   0.45283   0.79303   0.00000  Uiso   1.00
C399   C     0.16969   0.02446   0.74978   0.00000  Uiso   1.00
C400   C     0.16974   0.47583   0.75086   0.00000  Uiso   1.00
Cu401  Cu    0.16667   0.24999   0.79821   0.00000  Uiso   1.00
Cu402  Cu    0.16667   0.25000   0.70178   0.00000  Uiso   1.00
H403   H     0.21043   0.11244   0.68908   0.00000  Uiso   1.00
H404   H     0.20377   0.38907   0.82518   0.00000  Uiso   1.00
H405   H     0.11596   0.19308   0.52837   0.00000  Uiso   1.00
H406   H     0.23416   0.29190   0.97387   0.00000  Uiso   1.00
N407   N     0.16667   0.25001   0.62934   0.00000  Uiso   1.00
N408   N     0.16667   0.24999   0.87065   0.00000  Uiso   1.00
O409   O     0.16667   0.18572   0.79071   0.00000  Uiso   1.00
O410   O     0.16666   0.31427   0.70928   0.00000  Uiso   1.00
O411   O     0.16667   0.18573   0.70928   0.00000  Uiso   1.00
O412   O     0.16666   0.31427   0.79072   0.00000  Uiso   1.00
O413   O     0.09161   0.24999   0.78132   0.00000  Uiso   1.00
O414   O     0.24172   0.25000   0.71868   0.00000  Uiso   1.00
O415   O     0.09161   0.25000   0.69988   0.00000  Uiso   1.00
O416   O     0.24172   0.25000   0.80011   0.00000  Uiso   1.00
H417   H     0.32567   0.24982   0.69375   0.00000  Uiso   1.00
H418   H     0.00766   0.25010   0.80626   0.00000  Uiso   1.00
H419   H     0.12501   0.02968   0.80920   0.00000  Uiso   1.00
H420   H     0.13162   0.46941   0.67677   0.00000  Uiso   1.00
H421   H     0.12413   0.11048   0.80976   0.00000  Uiso   1.00
H422   H     0.13075   0.38865   0.67612   0.00000  Uiso   1.00
C423   C     0.22206   0.02601   0.68165   0.00000  Uiso   1.00
N424   N     0.24476   0.00831   0.65451   0.00000  Uiso   1.00
C425   C     0.21455   0.47566   0.83627   0.00000  Uiso   1.00
N426   N     0.23415   0.49395   0.87091   0.00000  Uiso   1.00
H427   H     0.21549   0.30911   0.54451   0.00000  Uiso   1.00
H428   H     0.09649   0.20945   0.95277   0.00000  Uiso   1.00
H429   H     0.21698   0.30559   0.63204   0.00000  Uiso   1.00
H430   H     0.10067   0.20815   0.86593   0.00000  Uiso   1.00
C431   C     0.10471   0.18820   0.61976   0.00000  Uiso   1.00
N432   N     0.07804   0.16287   0.63522   0.00000  Uiso   1.00
C433   C     0.24036   0.30157   0.88206   0.00000  Uiso   1.00
N434   N     0.27082   0.32375   0.86737   0.00000  Uiso   1.00
C435   C     0.49996   0.16502   0.74976   0.00000  Uiso   1.00
C436   C     0.50004   0.33502   0.75022   0.00000  Uiso   1.00
C437   C     0.52747   0.28259   0.55845   0.00000  Uiso   1.00
C438   C     0.46126   0.22715   0.94012   0.00000  Uiso   1.00
C439   C     0.52796   0.28116   0.60904   0.00000  Uiso   1.00
C440   C     0.46298   0.22675   0.88979   0.00000  Uiso   1.00
C441   C     0.47089   0.21961   0.60002   0.00000  Uiso   1.00
C442   C     0.53608   0.27421   0.90096   0.00000  Uiso   1.00
C443   C     0.47116   0.21890   0.54957   0.00000  Uiso   1.00
C444   C     0.53685   0.27386   0.95153   0.00000  Uiso   1.00
C445   C     0.49925   0.25076   0.52728   0.00000  Uiso   1.00
C446   C     0.49900   0.25055   0.97253   0.00000  Uiso   1.00
C447   C     0.40124   0.24994   0.73751   0.00000  Uiso   1.00
C448   C     0.59876   0.25002   0.76249   0.00000  Uiso   1.00
C449   C     0.34587   0.24991   0.73070   0.00000  Uiso   1.00
C450   C     0.65413   0.25001   0.76930   0.00000  Uiso   1.00
C451   C     0.47764   0.04742   0.78320   0.00000  Uiso   1.00
C452   C     0.48140   0.45218   0.70916   0.00000  Uiso   1.00
C453   C     0.47697   0.09334   0.78342   0.00000  Uiso   1.00
C454   C     0.48072   0.40624   0.70886   0.00000  Uiso   1.00
C455   C     0.50046   0.11685   0.74931   0.00000  Uiso   1.00
C456   C     0.50052   0.38331   0.75071   0.00000  Uiso   1.00
C457   C     0.52506   0.09418   0.71517   0.00000  Uiso   1.00
C458   C     0.52139   0.40671   0.79282   0.00000  Uiso   1.00
C459   C     0.52708   0.04810   0.71554   0.00000  Uiso   1.00
C460   C     0.52342   0.45283   0.79303   0.00000  Uiso   1.00
C461   C     0.50302   0.02446   0.74978   0.00000  Uiso   1.00
C462   C     0.50307   0.47583   0.75086   0.00000  Uiso   1.00
Cu463  Cu    0.50000   0.24999   0.79821   0.00000  Uiso   1.00
Cu464  Cu    0.50000   0.25000   0.70178   0.00000  Uiso   1.00
H465   H     0.54377   0.11244   0.68908   0.00000  Uiso   1.00
H466   H     0.53711   0.38907   0.82518   0.00000  Uiso   1.00
H467   H     0.44929   0.19308   0.52837   0.00000  Uiso   1.00
H468   H     0.56750   0.29190   0.97387   0.00000  Uiso   1.00
N469   N     0.50000   0.25001   0.62934   0.00000  Uiso   1.00
N470   N     0.50000   0.24999   0.87065   0.00000  Uiso   1.00
O471   O     0.50000   0.18572   0.79071   0.00000  Uiso   1.00
O472   O     0.50000   0.31427   0.70928   0.00000  Uiso   1.00
O473   O     0.50000   0.18573   0.70928   0.00000  Uiso   1.00
O474   O     0.50000   0.31427   0.79072   0.00000  Uiso   1.00
O475   O     0.42495   0.24999   0.78132   0.00000  Uiso   1.00
O476   O     0.57505   0.25000   0.71868   0.00000  Uiso   1.00
O477   O     0.42495   0.25000   0.69988   0.00000  Uiso   1.00
O478   O     0.57505   0.25000   0.80011   0.00000  Uiso   1.00
H479   H     0.65900   0.24982   0.69375   0.00000  Uiso   1.00
H480   H     0.34099   0.25010   0.80626   0.00000  Uiso   1.00
H481   H     0.45834   0.02968   0.80920   0.00000  Uiso   1.00
H482   H     0.46495   0.46941   0.67677   0.00000  Uiso   1.00
H483   H     0.45746   0.11048   0.80976   0.00000  Uiso   1.00
H484   H     0.46408   0.38865   0.67612   0.00000  Uiso   1.00
C485   C     0.55540   0.02601   0.68165   0.00000  Uiso   1.00
N486   N     0.57809   0.00831   0.65451   0.00000  Uiso   1.00
C487   C     0.54788   0.47566   0.83627   0.00000  Uiso   1.00
N488   N     0.56748   0.49395   0.87091   0.00000  Uiso   1.00
H489   H     0.54883   0.30911   0.54451   0.00000  Uiso   1.00
H490   H     0.42983   0.20945   0.95277   0.00000  Uiso   1.00
H491   H     0.55032   0.30559   0.63204   0.00000  Uiso   1.00
H492   H     0.43400   0.20815   0.86593   0.00000  Uiso   1.00
C493   C     0.43804   0.18820   0.61976   0.00000  Uiso   1.00
N494   N     0.41137   0.16287   0.63522   0.00000  Uiso   1.00
C495   C     0.57369   0.30157   0.88206   0.00000  Uiso   1.00
N496   N     0.60415   0.32375   0.86737   0.00000  Uiso   1.00
C497   C     0.83329   0.16502   0.74976   0.00000  Uiso   1.00
C498   C     0.83337   0.33502   0.75022   0.00000  Uiso   1.00
C499   C     0.86081   0.28259   0.55845   0.00000  Uiso   1.00
C500   C     0.79459   0.22715   0.94012   0.00000  Uiso   1.00
C501   C     0.86129   0.28116   0.60904   0.00000  Uiso   1.00
C502   C     0.79631   0.22675   0.88979   0.00000  Uiso   1.00
C503   C     0.80422   0.21961   0.60002   0.00000  Uiso   1.00
C504   C     0.86941   0.27421   0.90096   0.00000  Uiso   1.00
C505   C     0.80449   0.21890   0.54957   0.00000  Uiso   1.00
C506   C     0.87018   0.27386   0.95153   0.00000  Uiso   1.00
C507   C     0.83258   0.25076   0.52728   0.00000  Uiso   1.00
C508   C     0.83233   0.25055   0.97253   0.00000  Uiso   1.00
C509   C     0.73457   0.24994   0.73751   0.00000  Uiso   1.00
C510   C     0.93209   0.25002   0.76249   0.00000  Uiso   1.00
C511   C     0.67920   0.24991   0.73070   0.00000  Uiso   1.00
C512   C     0.98747   0.25001   0.76930   0.00000  Uiso   1.00
C513   C     0.81097   0.04742   0.78320   0.00000  Uiso   1.00
C514   C     0.81473   0.45218   0.70916   0.00000  Uiso   1.00
C515   C     0.81030   0.09334   0.78342   0.00000  Uiso   1.00
C516   C     0.81405   0.40624   0.70886   0.00000  Uiso   1.00
C517   C     0.83380   0.11685   0.74931   0.00000  Uiso   1.00
C518   C     0.83385   0.38331   0.75071   0.00000  Uiso   1.00
C519   C     0.85839   0.09418   0.71517   0.00000  Uiso   1.00
C520   C     0.85473   0.40671   0.79282   0.00000  Uiso   1.00
C521   C     0.86042   0.04810   0.71554   0.00000  Uiso   1.00
C522   C     0.85675   0.45283   0.79303   0.00000  Uiso   1.00
C523   C     0.83636   0.02446   0.74978   0.00000  Uiso   1.00
C524   C     0.83640   0.47583   0.75086   0.00000  Uiso   1.00
Cu525  Cu    0.83333   0.24999   0.79821   0.00000  Uiso   1.00
Cu526  Cu    0.83333   0.25000   0.70178   0.00000  Uiso   1.00
H527   H     0.87710   0.11244   0.68908   0.00000  Uiso   1.00
H528   H     0.87044   0.38907   0.82518   0.00000  Uiso   1.00
H529   H     0.78263   0.19308   0.52837   0.00000  Uiso   1.00
H530   H     0.90083   0.29190   0.97387   0.00000  Uiso   1.00
N531   N     0.83333   0.25001   0.62934   0.00000  Uiso   1.00
N532   N     0.83333   0.24999   0.87065   0.00000  Uiso   1.00
O533   O     0.83334   0.18572   0.79071   0.00000  Uiso   1.00
O534   O     0.83333   0.31427   0.70928   0.00000  Uiso   1.00
O535   O     0.83334   0.18573   0.70928   0.00000  Uiso   1.00
O536   O     0.83333   0.31427   0.79072   0.00000  Uiso   1.00
O537   O     0.75828   0.24999   0.78132   0.00000  Uiso   1.00
O538   O     0.90839   0.25000   0.71868   0.00000  Uiso   1.00
O539   O     0.75828   0.25000   0.69988   0.00000  Uiso   1.00
O540   O     0.90839   0.25000   0.80011   0.00000  Uiso   1.00
H541   H     0.99234   0.24982   0.69375   0.00000  Uiso   1.00
H542   H     0.67433   0.25010   0.80626   0.00000  Uiso   1.00
H543   H     0.79168   0.02968   0.80920   0.00000  Uiso   1.00
H544   H     0.79829   0.46941   0.67677   0.00000  Uiso   1.00
H545   H     0.79079   0.11048   0.80976   0.00000  Uiso   1.00
H546   H     0.79741   0.38865   0.67612   0.00000  Uiso   1.00
C547   C     0.88873   0.02601   0.68165   0.00000  Uiso   1.00
N548   N     0.91142   0.00831   0.65451   0.00000  Uiso   1.00
C549   C     0.88121   0.47566   0.83627   0.00000  Uiso   1.00
N550   N     0.90081   0.49395   0.87091   0.00000  Uiso   1.00
H551   H     0.88216   0.30911   0.54451   0.00000  Uiso   1.00
H552   H     0.76316   0.20945   0.95277   0.00000  Uiso   1.00
H553   H     0.88365   0.30559   0.63204   0.00000  Uiso   1.00
H554   H     0.76733   0.20815   0.86593   0.00000  Uiso   1.00
C555   C     0.77137   0.18820   0.61976   0.00000  Uiso   1.00
N556   N     0.74470   0.16287   0.63522   0.00000  Uiso   1.00
C557   C     0.90702   0.30157   0.88206   0.00000  Uiso   1.00
N558   N     0.93749   0.32375   0.86737   0.00000  Uiso   1.00
C559   C     0.16663   0.66502   0.74976   0.00000  Uiso   1.00
C560   C     0.16670   0.83502   0.75022   0.00000  Uiso   1.00
C561   C     0.19414   0.78259   0.55845   0.00000  Uiso   1.00
C562   C     0.12792   0.72715   0.94012   0.00000  Uiso   1.00
C563   C     0.19463   0.78116   0.60904   0.00000  Uiso   1.00
C564   C     0.12964   0.72675   0.88979   0.00000  Uiso   1.00
C565   C     0.13755   0.71961   0.60002   0.00000  Uiso   1.00
C566   C     0.20275   0.77421   0.90096   0.00000  Uiso   1.00
C567   C     0.13782   0.71890   0.54957   0.00000  Uiso   1.00
C568   C     0.20351   0.77386   0.95153   0.00000  Uiso   1.00
C569   C     0.16591   0.75076   0.52728   0.00000  Uiso   1.00
C570   C     0.16567   0.75055   0.97253   0.00000  Uiso   1.00
C571   C     0.06791   0.74994   0.73751   0.00000  Uiso   1.00
C572   C     0.26543   0.75002   0.76249   0.00000  Uiso   1.00
C573   C     0.01254   0.74991   0.73070   0.00000  Uiso   1.00
C574   C     0.32080   0.75001   0.76930   0.00000  Uiso   1.00
C575   C     0.14430   0.54742   0.78320   0.00000  Uiso   1.00
C576   C     0.14806   0.95218   0.70916   0.00000  Uiso   1.00
C577   C     0.14363   0.59334   0.78342   0.00000  Uiso   1.00
C578   C     0.14739   0.90624   0.70886   0.00000  Uiso   1.00
C579   C     0.16713   0.61685   0.74931   0.00000  Uiso   1.00
C580   C     0.16718   0.88331   0.75071   0.00000  Uiso   1.00
C581   C     0.19173   0.59418   0.71517   0.00000  Uiso   1.00
C582   C     0.18806   0.90671   0.79282   0.00000  Uiso   1.00
C583   C     0.19375   0.54810   0.71554   0.00000  Uiso   1.00
C584   C     0.19008   0.95283   0.79303   0.00000  Uiso   1.00
C585   C     0.16969   0.52446   0.74978   0.00000  Uiso   1.00
C586   C     0.16974   0.97583   0.75086   0.00000  Uiso   1.00
Cu587  Cu    0.16667   0.74999   0.79821   0.00000  Uiso   1.00
Cu588  Cu    0.16667   0.75000   0.70178   0.00000  Uiso   1.00
H589   H     0.21043   0.61244   0.68908   0.00000  Uiso   1.00
H590   H     0.20377   0.88907   0.82518   0.00000  Uiso   1.00
H591   H     0.11596   0.69308   0.52837   0.00000  Uiso   1.00
H592   H     0.23416   0.79190   0.97387   0.00000  Uiso   1.00
N593   N     0.16667   0.75001   0.62934   0.00000  Uiso   1.00
N594   N     0.16667   0.74999   0.87065   0.00000  Uiso   1.00
O595   O     0.16667   0.68572   0.79071   0.00000  Uiso   1.00
O596   O     0.16666   0.81427   0.70928   0.00000  Uiso   1.00
O597   O     0.16667   0.68573   0.70928   0.00000  Uiso   1.00
O598   O     0.16666   0.81427   0.79072   0.00000  Uiso   1.00
O599   O     0.09161   0.74999   0.78132   0.00000  Uiso   1.00
O600   O     0.24172   0.75000   0.71868   0.00000  Uiso   1.00
O601   O     0.09161   0.75000   0.69988   0.00000  Uiso   1.00
O602   O     0.24172   0.75000   0.80011   0.00000  Uiso   1.00
H603   H     0.32567   0.74982   0.69375   0.00000  Uiso   1.00
H604   H     0.00766   0.75010   0.80626   0.00000  Uiso   1.00
H605   H     0.12501   0.52968   0.80920   0.00000  Uiso   1.00
H606   H     0.13162   0.96941   0.67677   0.00000  Uiso   1.00
H607   H     0.12413   0.61048   0.80976   0.00000  Uiso   1.00
H608   H     0.13075   0.88865   0.67612   0.00000  Uiso   1.00
C609   C     0.22206   0.52601   0.68165   0.00000  Uiso   1.00
N610   N     0.24476   0.50831   0.65451   0.00000  Uiso   1.00
C611   C     0.21455   0.97566   0.83627   0.00000  Uiso   1.00
N612   N     0.23415   0.99395   0.87091   0.00000  Uiso   1.00
H613   H     0.21549   0.80911   0.54451   0.00000  Uiso   1.00
H614   H     0.09649   0.70945   0.95277   0.00000  Uiso   1.00
H615   H     0.21698   0.80559   0.63204   0.00000  Uiso   1.00
H616   H     0.10067   0.70815   0.86593   0.00000  Uiso   1.00
C617   C     0.10471   0.68820   0.61976   0.00000  Uiso   1.00
N618   N     0.07804   0.66287   0.63522   0.00000  Uiso   1.00
C619   C     0.24036   0.80157   0.88206   0.00000  Uiso   1.00
N620   N     0.27082   0.82375   0.86737   0.00000  Uiso   1.00
C621   C     0.49996   0.66502   0.74976   0.00000  Uiso   1.00
C622   C     0.50004   0.83502   0.75022   0.00000  Uiso   1.00
C623   C     0.52747   0.78259   0.55845   0.00000  Uiso   1.00
C624   C     0.46126   0.72715   0.94012   0.00000  Uiso   1.00
C625   C     0.52796   0.78116   0.60904   0.00000  Uiso   1.00
C626   C     0.46298   0.72675   0.88979   0.00000  Uiso   1.00
C627   C     0.47089   0.71961   0.60002   0.00000  Uiso   1.00
C628   C     0.53608   0.77421   0.90096   0.00000  Uiso   1.00
C629   C     0.47116   0.71890   0.54957   0.00000  Uiso   1.00
C630   C     0.53685   0.77386   0.95153   0.00000  Uiso   1.00
C631   C     0.49925   0.75076   0.52728   0.00000  Uiso   1.00
C632   C     0.49900   0.75055   0.97253   0.00000  Uiso   1.00
C633   C     0.40124   0.74994   0.73751   0.00000  Uiso   1.00
C634   C     0.59876   0.75002   0.76249   0.00000  Uiso   1.00
C635   C     0.34587   0.74991   0.73070   0.00000  Uiso   1.00
C636   C     0.65413   0.75001   0.76930   0.00000  Uiso   1.00
C637   C     0.47764   0.54742   0.78320   0.00000  Uiso   1.00
C638   C     0.48140   0.95218   0.70916   0.00000  Uiso   1.00
C639   C     0.47697   0.59334   0.78342   0.00000  Uiso   1.00
C640   C     0.48072   0.90624   0.70886   0.00000  Uiso   1.00
C641   C     0.50046   0.61685   0.74931   0.00000  Uiso   1.00
C642   C     0.50052   0.88331   0.75071   0.00000  Uiso   1.00
C643   C     0.52506   0.59418   0.71517   0.00000  Uiso   1.00
C644   C     0.52139   0.90671   0.79282   0.00000  Uiso   1.00
C645   C     0.52708   0.54810   0.71554   0.00000  Uiso   1.00
C646   C     0.52342   0.95283   0.79303   0.00000  Uiso   1.00
C647   C     0.50302   0.52446   0.74978   0.00000  Uiso   1.00
C648   C     0.50307   0.97583   0.75086   0.00000  Uiso   1.00
Cu649  Cu    0.50000   0.74999   0.79821   0.00000  Uiso   1.00
Cu650  Cu    0.50000   0.75000   0.70178   0.00000  Uiso   1.00
H651   H     0.54377   0.61244   0.68908   0.00000  Uiso   1.00
H652   H     0.53711   0.88907   0.82518   0.00000  Uiso   1.00
H653   H     0.44929   0.69308   0.52837   0.00000  Uiso   1.00
H654   H     0.56750   0.79190   0.97387   0.00000  Uiso   1.00
N655   N     0.50000   0.75001   0.62934   0.00000  Uiso   1.00
N656   N     0.50000   0.74999   0.87065   0.00000  Uiso   1.00
O657   O     0.50000   0.68572   0.79071   0.00000  Uiso   1.00
O658   O     0.50000   0.81427   0.70928   0.00000  Uiso   1.00
O659   O     0.50000   0.68573   0.70928   0.00000  Uiso   1.00
O660   O     0.50000   0.81427   0.79072   0.00000  Uiso   1.00
O661   O     0.42495   0.74999   0.78132   0.00000  Uiso   1.00
O662   O     0.57505   0.75000   0.71868   0.00000  Uiso   1.00
O663   O     0.42495   0.75000   0.69988   0.00000  Uiso   1.00
O664   O     0.57505   0.75000   0.80011   0.00000  Uiso   1.00
H665   H     0.65900   0.74982   0.69375   0.00000  Uiso   1.00
H666   H     0.34099   0.75010   0.80626   0.00000  Uiso   1.00
H667   H     0.45834   0.52968   0.80920   0.00000  Uiso   1.00
H668   H     0.46495   0.96941   0.67677   0.00000  Uiso   1.00
H669   H     0.45746   0.61048   0.80976   0.00000  Uiso   1.00
H670   H     0.46408   0.88865   0.67612   0.00000  Uiso   1.00
C671   C     0.55540   0.52601   0.68165   0.00000  Uiso   1.00
N672   N     0.57809   0.50831   0.65451   0.00000  Uiso   1.00
C673   C     0.54788   0.97566   0.83627   0.00000  Uiso   1.00
N674   N     0.56748   0.99395   0.87091   0.00000  Uiso   1.00
H675   H     0.54883   0.80911   0.54451   0.00000  Uiso   1.00
H676   H     0.42983   0.70945   0.95277   0.00000  Uiso   1.00
H677   H     0.55032   0.80559   0.63204   0.00000  Uiso   1.00
H678   H     0.43400   0.70815   0.86593   0.00000  Uiso   1.00
C679   C     0.43804   0.68820   0.61976   0.00000  Uiso   1.00
N680   N     0.41137   0.66287   0.63522   0.00000  Uiso   1.00
C681   C     0.57369   0.80157   0.88206   0.00000  Uiso   1.00
N682   N     0.60415   0.82375   0.86737   0.00000  Uiso   1.00
C683   C     0.83329   0.66502   0.74976   0.00000  Uiso   1.00
C684   C     0.83337   0.83502   0.75022   0.00000  Uiso   1.00
C685   C     0.86081   0.78259   0.55845   0.00000  Uiso   1.00
C686   C     0.79459   0.72715   0.94012   0.00000  Uiso   1.00
C687   C     0.86129   0.78116   0.60904   0.00000  Uiso   1.00
C688   C     0.79631   0.72675   0.88979   0.00000  Uiso   1.00
C689   C     0.80422   0.71961   0.60002   0.00000  Uiso   1.00
C690   C     0.86941   0.77421   0.90096   0.00000  Uiso   1.00
C691   C     0.80449   0.71890   0.54957   0.00000  Uiso   1.00
C692   C     0.87018   0.77386   0.95153   0.00000  Uiso   1.00
C693   C     0.83258   0.75076   0.52728   0.00000  Uiso   1.00
C694   C     0.83233   0.75055   0.97253   0.00000  Uiso   1.00
C695   C     0.73457   0.74994   0.73751   0.00000  Uiso   1.00
C696   C     0.93209   0.75002   0.76249   0.00000  Uiso   1.00
C697   C     0.67920   0.74991   0.73070   0.00000  Uiso   1.00
C698   C     0.98747   0.75001   0.76930   0.00000  Uiso   1.00
C699   C     0.81097   0.54742   0.78320   0.00000  Uiso   1.00
C700   C     0.81473   0.95218   0.70916   0.00000  Uiso   1.00
C701   C     0.81030   0.59334   0.78342   0.00000  Uiso   1.00
C702   C     0.81405   0.90624   0.70886   0.00000  Uiso   1.00
C703   C     0.83380   0.61685   0.74931   0.00000  Uiso   1.00
C704   C     0.83385   0.88331   0.75071   0.00000  Uiso   1.00
C705   C     0.85839   0.59418   0.71517   0.00000  Uiso   1.00
C706   C     0.85473   0.90671   0.79282   0.00000  Uiso   1.00
C707   C     0.86042   0.54810   0.71554   0.00000  Uiso   1.00
C708   C     0.85675   0.95283   0.79303   0.00000  Uiso   1.00
C709   C     0.83636   0.52446   0.74978   0.00000  Uiso   1.00
C710   C     0.83640   0.97583   0.75086   0.00000  Uiso   1.00
Cu711  Cu    0.83333   0.74999   0.79821   0.00000  Uiso   1.00
Cu712  Cu    0.83333   0.75000   0.70178   0.00000  Uiso   1.00
H713   H     0.87710   0.61244   0.68908   0.00000  Uiso   1.00
H714   H     0.87044   0.88907   0.82518   0.00000  Uiso   1.00
H715   H     0.78263   0.69308   0.52837   0.00000  Uiso   1.00
H716   H     0.90083   0.79190   0.97387   0.00000  Uiso   1.00
N717   N     0.83333   0.75001   0.62934   0.00000  Uiso   1.00
N718   N     0.83333   0.74999   0.87065   0.00000  Uiso   1.00
O719   O     0.83334   0.68572   0.79071   0.00000  Uiso   1.00
O720   O     0.83333   0.81427   0.70928   0.00000  Uiso   1.00
O721   O     0.83334   0.68573   0.70928   0.00000  Uiso   1.00
O722   O     0.83333   0.81427   0.79072   0.00000  Uiso   1.00
O723   O     0.75828   0.74999   0.78132   0.00000  Uiso   1.00
O724   O     0.90839   0.75000   0.71868   0.00000  Uiso   1.00
O725   O     0.75828   0.75000   0.69988   0.00000  Uiso   1.00
O726   O     0.90839   0.75000   0.80011   0.00000  Uiso   1.00
H727   H     0.99234   0.74982   0.69375   0.00000  Uiso   1.00
H728   H     0.67433   0.75010   0.80626   0.00000  Uiso   1.00
H729   H     0.79168   0.52968   0.80920   0.00000  Uiso   1.00
H730   H     0.79829   0.96941   0.67677   0.00000  Uiso   1.00
H731   H     0.79079   0.61048   0.80976   0.00000  Uiso   1.00
H732   H     0.79741   0.88865   0.67612   0.00000  Uiso   1.00
C733   C     0.88873   0.52601   0.68165   0.00000  Uiso   1.00
N734   N     0.91142   0.50831   0.65451   0.00000  Uiso   1.00
C735   C     0.88121   0.97566   0.83627   0.00000  Uiso   1.00
N736   N     0.90081   0.99395   0.87091   0.00000  Uiso   1.00
H737   H     0.88216   0.80911   0.54451   0.00000  Uiso   1.00
H738   H     0.76316   0.70945   0.95277   0.00000  Uiso   1.00
H739   H     0.88365   0.80559   0.63204   0.00000  Uiso   1.00
H740   H     0.76733   0.70815   0.86593   0.00000  Uiso   1.00
C741   C     0.77137   0.68820   0.61976   0.00000  Uiso   1.00
N742   N     0.74470   0.66287   0.63522   0.00000  Uiso   1.00
C743   C     0.90702   0.80157   0.88206   0.00000  Uiso   1.00
N744   N     0.93749   0.82375   0.86737   0.00000  Uiso   1.00
loop_
_geom_bond_atom_site_label_1
_geom_bond_atom_site_label_2
_geom_bond_distance
_geom_bond_site_symmetry_2
_ccdc_geom_bond_type
C1     C21     1.457   .     S
C1     O37     1.295   .     A
C1     O39     1.295   .     A
C2     C22     1.460   .     S
C2     O38     1.295   .     A
C2     O40     1.296   .     A
C3     C11     1.416   .     A
C3     H55     1.079   .     S
C3     C5      1.408   .     A
C4     H56     1.079   .     S
C4     C12     1.416   .     A
C4     C6      1.409   .     A
C5     H57     1.082   .     S
C5     N35     1.363   .     A
C6     H58     1.082   .     S
C6     N36     1.363   .     A
C7     C59     1.439   .     S
C7     C9      1.406   .     A
C7     N35     1.371   .     A
C8     C61     1.439   .     S
C8     N36     1.372   .     A
C8     C10     1.406   .     A
C9     H33     1.081   .     S
C9     C11     1.407   .     A
C10    H34     1.080   .     S
C10    C12     1.407   .     A
C11    C384    1.524   1_554 S
C12    C383    1.524   .     S
C13    O41     1.287   .     A
C13    C15     1.435   .     S
C13    O43     1.292   .     A
C14    O44     1.292   .     A
C14    O42     1.287   .     A
C14    C16     1.435   .     S
C15    C140    1.338   1_455 S
C15    H169    1.087   1_455 S
C16    C77     1.338   .     S
C16    H108    1.087   .     S
C17    C27     1.402   .     A
C17    C19     1.389   .     A
C17    H47     1.084   .     S
C18    H48     1.083   .     S
C18    C28     1.402   .     A
C18    C20     1.389   .     A
C19    H49     1.083   .     S
C19    C21     1.399   .     A
C20    C22     1.400   .     A
C20    H50     1.083   .     S
C21    C23     1.401   .     A
C22    C24     1.401   .     A
C23    C25     1.395   .     A
C23    H31     1.085   .     S
C24    H32     1.084   .     S
C24    C26     1.394   .     A
C25    C51     1.445   .     S
C25    C27     1.412   .     A
C26    C28     1.412   .     A
C26    C53     1.445   .     S
C27    C214    1.471   1_545 S
C28    C213    1.471   .     S
Cu29   Cu30    2.685   .     S
Cu29   O41     1.955   .     S
Cu29   N36     2.017   .     S
Cu29   O40     1.957   .     S
Cu29   O44     1.959   .     S
Cu29   O37     1.952   .     S
Cu30   N35     2.017   .     S
Cu30   O39     1.957   .     S
Cu30   O43     1.959   .     S
Cu30   O38     1.952   .     S
Cu30   O42     1.955   .     S
H45    C77     1.087   .     S
H46    C140    1.087   1_455 S
C51    N52     1.157   .     T
C53    N54     1.157   .     T
C59    N60     1.158   .     T
C61    N62     1.158   .     T
C63    C83     1.457   .     S
C63    O99     1.295   .     A
C63    O101    1.295   .     A
C64    C84     1.460   .     S
C64    O100    1.295   .     A
C64    O102    1.296   .     A
C65    C73     1.416   .     A
C65    H117    1.079   .     S
C65    C67     1.408   .     A
C66    H118    1.079   .     S
C66    C74     1.416   .     A
C66    C68     1.409   .     A
C67    H119    1.082   .     S
C67    N97     1.363   .     A
C68    H120    1.082   .     S
C68    N98     1.363   .     A
C69    C121    1.439   .     S
C69    C71     1.406   .     A
C69    N97     1.371   .     A
C70    C123    1.439   .     S
C70    N98     1.372   .     A
C70    C72     1.406   .     A
C71    H95     1.081   .     S
C71    C73     1.407   .     A
C72    H96     1.080   .     S
C72    C74     1.407   .     A
C73    C446    1.524   1_554 S
C74    C445    1.524   .     S
C75    O103    1.287   .     A
C75    C77     1.435   .     S
C75    O105    1.292   .     A
C76    O106    1.292   .     A
C76    O104    1.287   .     A
C76    C78     1.435   .     S
C78    C139    1.338   .     S
C78    H170    1.087   .     S
C79    C89     1.402   .     A
C79    C81     1.389   .     A
C79    H109    1.084   .     S
C80    H110    1.083   .     S
C80    C90     1.402   .     A
C80    C82     1.389   .     A
C81    H111    1.083   .     S
C81    C83     1.399   .     A
C82    C84     1.400   .     A
C82    H112    1.083   .     S
C83    C85     1.401   .     A
C84    C86     1.401   .     A
C85    C87     1.395   .     A
C85    H93     1.085   .     S
C86    H94     1.084   .     S
C86    C88     1.394   .     A
C87    C113    1.445   .     S
C87    C89     1.412   .     A
C88    C90     1.412   .     A
C88    C115    1.445   .     S
C89    C276    1.471   1_545 S
C90    C275    1.471   .     S
Cu91   Cu92    2.685   .     S
Cu91   O103    1.955   .     S
Cu91   N98     2.017   .     S
Cu91   O102    1.957   .     S
Cu91   O106    1.959   .     S
Cu91   O99     1.952   .     S
Cu92   N97     2.017   .     S
Cu92   O101    1.957   .     S
Cu92   O105    1.959   .     S
Cu92   O100    1.952   .     S
Cu92   O104    1.955   .     S
H107   C139    1.087   .     S
C113   N114    1.157   .     T
C115   N116    1.157   .     T
C121   N122    1.158   .     T
C123   N124    1.158   .     T
C125   C145    1.457   .     S
C125   O161    1.295   .     A
C125   O163    1.295   .     A
C126   C146    1.460   .     S
C126   O162    1.295   .     A
C126   O164    1.296   .     A
C127   C135    1.416   .     A
C127   H179    1.079   .     S
C127   C129    1.408   .     A
C128   H180    1.079   .     S
C128   C136    1.416   .     A
C128   C130    1.409   .     A
C129   H181    1.082   .     S
C129   N159    1.363   .     A
C130   H182    1.082   .     S
C130   N160    1.363   .     A
C131   C183    1.439   .     S
C131   C133    1.406   .     A
C131   N159    1.371   .     A
C132   C185    1.439   .     S
C132   N160    1.372   .     A
C132   C134    1.406   .     A
C133   H157    1.081   .     S
C133   C135    1.407   .     A
C134   H158    1.080   .     S
C134   C136    1.407   .     A
C135   C508    1.524   1_554 S
C136   C507    1.524   .     S
C137   O165    1.287   .     A
C137   C139    1.435   .     S
C137   O167    1.292   .     A
C138   O168    1.292   .     A
C138   O166    1.287   .     A
C138   C140    1.435   .     S
C140   C15     1.338   1_655 S
C140   H46     1.087   1_655 S
C141   C151    1.402   .     A
C141   C143    1.389   .     A
C141   H171    1.084   .     S
C142   H172    1.083   .     S
C142   C152    1.402   .     A
C142   C144    1.389   .     A
C143   H173    1.083   .     S
C143   C145    1.399   .     A
C144   C146    1.400   .     A
C144   H174    1.083   .     S
C145   C147    1.401   .     A
C146   C148    1.401   .     A
C147   C149    1.395   .     A
C147   H155    1.085   .     S
C148   H156    1.084   .     S
C148   C150    1.394   .     A
C149   C175    1.445   .     S
C149   C151    1.412   .     A
C150   C152    1.412   .     A
C150   C177    1.445   .     S
C151   C338    1.471   1_545 S
C152   C337    1.471   .     S
Cu153  Cu154   2.685   .     S
Cu153  O165    1.955   .     S
Cu153  N160    2.017   .     S
Cu153  O164    1.957   .     S
Cu153  O168    1.959   .     S
Cu153  O161    1.952   .     S
Cu154  N159    2.017   .     S
Cu154  O163    1.957   .     S
Cu154  O167    1.959   .     S
Cu154  O162    1.952   .     S
Cu154  O166    1.955   .     S
H169   C15     1.087   1_655 S
C175   N176    1.157   .     T
C177   N178    1.157   .     T
C183   N184    1.158   .     T
C185   N186    1.158   .     T
C187   C207    1.457   .     S
C187   O223    1.295   .     A
C187   O225    1.295   .     A
C188   C208    1.460   .     S
C188   O224    1.295   .     A
C188   O226    1.296   .     A
C189   C197    1.416   .     A
C189   H241    1.079   .     S
C189   C191    1.408   .     A
C190   H242    1.079   .     S
C190   C198    1.416   .     A
C190   C192    1.409   .     A
C191   H243    1.082   .     S
C191   N221    1.363   .     A
C192   H244    1.082   .     S
C192   N222    1.363   .     A
C193   C245    1.439   .     S
C193   C195    1.406   .     A
C193   N221    1.371   .     A
C194   C247    1.439   .     S
C194   N222    1.372   .     A
C194   C196    1.406   .     A
C195   H219    1.081   .     S
C195   C197    1.407   .     A
C196   H220    1.080   .     S
C196   C198    1.407   .     A
C197   C570    1.524   1_554 S
C198   C569    1.524   .     S
C199   O227    1.287   .     A
C199   C201    1.435   .     S
C199   O229    1.292   .     A
C200   O230    1.292   .     A
C200   O228    1.287   .     A
C200   C202    1.435   .     S
C201   C326    1.338   1_455 S
C201   H355    1.087   1_455 S
C202   C263    1.338   .     S
C202   H294    1.087   .     S
C203   C213    1.402   .     A
C203   C205    1.389   .     A
C203   H233    1.084   .     S
C204   H234    1.083   .     S
C204   C214    1.402   .     A
C204   C206    1.389   .     A
C205   H235    1.083   .     S
C205   C207    1.399   .     A
C206   C208    1.400   .     A
C206   H236    1.083   .     S
C207   C209    1.401   .     A
C208   C210    1.401   .     A
C209   C211    1.395   .     A
C209   H217    1.085   .     S
C210   H218    1.084   .     S
C210   C212    1.394   .     A
C211   C237    1.445   .     S
C211   C213    1.412   .     A
C212   C214    1.412   .     A
C212   C239    1.445   .     S
C214   C27     1.471   1_565 S
Cu215  Cu216   2.685   .     S
Cu215  O227    1.955   .     S
Cu215  N222    2.017   .     S
Cu215  O226    1.957   .     S
Cu215  O230    1.959   .     S
Cu215  O223    1.952   .     S
Cu216  N221    2.017   .     S
Cu216  O225    1.957   .     S
Cu216  O229    1.959   .     S
Cu216  O224    1.952   .     S
Cu216  O228    1.955   .     S
H231   C263    1.087   .     S
H232   C326    1.087   1_455 S
C237   N238    1.157   .     T
C239   N240    1.157   .     T
C245   N246    1.158   .     T
C247   N248    1.158   .     T
C249   C269    1.457   .     S
C249   O285    1.295   .     A
C249   O287    1.295   .     A
C250   C270    1.460   .     S
C250   O286    1.295   .     A
C250   O288    1.296   .     A
C251   C259    1.416   .     A
C251   H303    1.079   .     S
C251   C253    1.408   .     A
C252   H304    1.079   .     S
C252   C260    1.416   .     A
C252   C254    1.409   .     A
C253   H305    1.082   .     S
C253   N283    1.363   .     A
C254   H306    1.082   .     S
C254   N284    1.363   .     A
C255   C307    1.439   .     S
C255   C257    1.406   .     A
C255   N283    1.371   .     A
C256   C309    1.439   .     S
C256   N284    1.372   .     A
C256   C258    1.406   .     A
C257   H281    1.081   .     S
C257   C259    1.407   .     A
C258   H282    1.080   .     S
C258   C260    1.407   .     A
C259   C632    1.524   1_554 S
C260   C631    1.524   .     S
C261   O289    1.287   .     A
C261   C263    1.435   .     S
C261   O291    1.292   .     A
C262   O292    1.292   .     A
C262   O290    1.287   .     A
C262   C264    1.435   .     S
C264   C325    1.338   .     S
C264   H356    1.087   .     S
C265   C275    1.402   .     A
C265   C267    1.389   .     A
C265   H295    1.084   .     S
C266   H296    1.083   .     S
C266   C276    1.402   .     A
C266   C268    1.389   .     A
C267   H297    1.083   .     S
C267   C269    1.399   .     A
C268   C270    1.400   .     A
C268   H298    1.083   .     S
C269   C271    1.401   .     A
C270   C272    1.401   .     A
C271   C273    1.395   .     A
C271   H279    1.085   .     S
C272   H280    1.084   .     S
C272   C274    1.394   .     A
C273   C299    1.445   .     S
C273   C275    1.412   .     A
C274   C276    1.412   .     A
C274   C301    1.445   .     S
C276   C89     1.471   1_565 S
Cu277  Cu278   2.685   .     S
Cu277  O289    1.955   .     S
Cu277  N284    2.017   .     S
Cu277  O288    1.957   .     S
Cu277  O292    1.959   .     S
Cu277  O285    1.952   .     S
Cu278  N283    2.017   .     S
Cu278  O287    1.957   .     S
Cu278  O291    1.959   .     S
Cu278  O286    1.952   .     S
Cu278  O290    1.955   .     S
H293   C325    1.087   .     S
C299   N300    1.157   .     T
C301   N302    1.157   .     T
C307   N308    1.158   .     T
C309   N310    1.158   .     T
C311   C331    1.457   .     S
C311   O347    1.295   .     A
C311   O349    1.295   .     A
C312   C332    1.460   .     S
C312   O348    1.295   .     A
C312   O350    1.296   .     A
C313   C321    1.416   .     A
C313   H365    1.079   .     S
C313   C315    1.408   .     A
C314   H366    1.079   .     S
C314   C322    1.416   .     A
C314   C316    1.409   .     A
C315   H367    1.082   .     S
C315   N345    1.363   .     A
C316   H368    1.082   .     S
C316   N346    1.363   .     A
C317   C369    1.439   .     S
C317   C319    1.406   .     A
C317   N345    1.371   .     A
C318   C371    1.439   .     S
C318   N346    1.372   .     A
C318   C320    1.406   .     A
C319   H343    1.081   .     S
C319   C321    1.407   .     A
C320   H344    1.080   .     S
C320   C322    1.407   .     A
C321   C694    1.524   1_554 S
C322   C693    1.524   .     S
C323   O351    1.287   .     A
C323   C325    1.435   .     S
C323   O353    1.292   .     A
C324   O354    1.292   .     A
C324   O352    1.287   .     A
C324   C326    1.435   .     S
C326   C201    1.338   1_655 S
C326   H232    1.087   1_655 S
C327   C337    1.402   .     A
C327   C329    1.389   .     A
C327   H357    1.084   .     S
C328   H358    1.083   .     S
C328   C338    1.402   .     A
C328   C330    1.389   .     A
C329   H359    1.083   .     S
C329   C331    1.399   .     A
C330   C332    1.400   .     A
C330   H360    1.083   .     S
C331   C333    1.401   .     A
C332   C334    1.401   .     A
C333   C335    1.395   .     A
C333   H341    1.085   .     S
C334   H342    1.084   .     S
C334   C336    1.394   .     A
C335   C361    1.445   .     S
C335   C337    1.412   .     A
C336   C338    1.412   .     A
C336   C363    1.445   .     S
C338   C151    1.471   1_565 S
Cu339  Cu340   2.685   .     S
Cu339  O351    1.955   .     S
Cu339  N346    2.017   .     S
Cu339  O350    1.957   .     S
Cu339  O354    1.959   .     S
Cu339  O347    1.952   .     S
Cu340  N345    2.017   .     S
Cu340  O349    1.957   .     S
Cu340  O353    1.959   .     S
Cu340  O348    1.952   .     S
Cu340  O352    1.955   .     S
H355   C201    1.087   1_655 S
C361   N362    1.157   .     T
C363   N364    1.157   .     T
C369   N370    1.158   .     T
C371   N372    1.158   .     T
C373   C393    1.457   .     S
C373   O409    1.295   .     A
C373   O411    1.295   .     A
C374   C394    1.460   .     S
C374   O410    1.295   .     A
C374   O412    1.296   .     A
C375   C383    1.416   .     A
C375   H427    1.079   .     S
C375   C377    1.408   .     A
C376   H428    1.079   .     S
C376   C384    1.416   .     A
C376   C378    1.409   .     A
C377   H429    1.082   .     S
C377   N407    1.363   .     A
C378   H430    1.082   .     S
C378   N408    1.363   .     A
C379   C431    1.439   .     S
C379   C381    1.406   .     A
C379   N407    1.371   .     A
C380   C433    1.439   .     S
C380   N408    1.372   .     A
C380   C382    1.406   .     A
C381   H405    1.081   .     S
C381   C383    1.407   .     A
C382   H406    1.080   .     S
C382   C384    1.407   .     A
C384   C11     1.524   1_556 S
C385   O413    1.287   .     A
C385   C387    1.435   .     S
C385   O415    1.292   .     A
C386   O416    1.292   .     A
C386   O414    1.287   .     A
C386   C388    1.435   .     S
C387   C512    1.338   1_455 S
C387   H541    1.087   1_455 S
C388   C449    1.338   .     S
C388   H480    1.087   .     S
C389   C399    1.402   .     A
C389   C391    1.389   .     A
C389   H419    1.084   .     S
C390   H420    1.083   .     S
C390   C400    1.402   .     A
C390   C392    1.389   .     A
C391   H421    1.083   .     S
C391   C393    1.399   .     A
C392   C394    1.400   .     A
C392   H422    1.083   .     S
C393   C395    1.401   .     A
C394   C396    1.401   .     A
C395   C397    1.395   .     A
C395   H403    1.085   .     S
C396   H404    1.084   .     S
C396   C398    1.394   .     A
C397   C423    1.445   .     S
C397   C399    1.412   .     A
C398   C400    1.412   .     A
C398   C425    1.445   .     S
C399   C586    1.471   1_545 S
C400   C585    1.471   .     S
Cu401  Cu402   2.685   .     S
Cu401  O413    1.955   .     S
Cu401  N408    2.017   .     S
Cu401  O412    1.957   .     S
Cu401  O416    1.959   .     S
Cu401  O409    1.952   .     S
Cu402  N407    2.017   .     S
Cu402  O411    1.957   .     S
Cu402  O415    1.959   .     S
Cu402  O410    1.952   .     S
Cu402  O414    1.955   .     S
H417   C449    1.087   .     S
H418   C512    1.087   1_455 S
C423   N424    1.157   .     T
C425   N426    1.157   .     T
C431   N432    1.158   .     T
C433   N434    1.158   .     T
C435   C455    1.457   .     S
C435   O471    1.295   .     A
C435   O473    1.295   .     A
C436   C456    1.460   .     S
C436   O472    1.295   .     A
C436   O474    1.296   .     A
C437   C445    1.416   .     A
C437   H489    1.079   .     S
C437   C439    1.408   .     A
C438   H490    1.079   .     S
C438   C446    1.416   .     A
C438   C440    1.409   .     A
C439   H491    1.082   .     S
C439   N469    1.363   .     A
C440   H492    1.082   .     S
C440   N470    1.363   .     A
C441   C493    1.439   .     S
C441   C443    1.406   .     A
C441   N469    1.371   .     A
C442   C495    1.439   .     S
C442   N470    1.372   .     A
C442   C444    1.406   .     A
C443   H467    1.081   .     S
C443   C445    1.407   .     A
C444   H468    1.080   .     S
C444   C446    1.407   .     A
C446   C73     1.524   1_556 S
C447   O475    1.287   .     A
C447   C449    1.435   .     S
C447   O477    1.292   .     A
C448   O478    1.292   .     A
C448   O476    1.287   .     A
C448   C450    1.435   .     S
C450   C511    1.338   .     S
C450   H542    1.087   .     S
C451   C461    1.402   .     A
C451   C453    1.389   .     A
C451   H481    1.084   .     S
C452   H482    1.083   .     S
C452   C462    1.402   .     A
C452   C454    1.389   .     A
C453   H483    1.083   .     S
C453   C455    1.399   .     A
C454   C456    1.400   .     A
C454   H484    1.083   .     S
C455   C457    1.401   .     A
C456   C458    1.401   .     A
C457   C459    1.395   .     A
C457   H465    1.085   .     S
C458   H466    1.084   .     S
C458   C460    1.394   .     A
C459   C485    1.445   .     S
C459   C461    1.412   .     A
C460   C462    1.412   .     A
C460   C487    1.445   .     S
C461   C648    1.471   1_545 S
C462   C647    1.471   .     S
Cu463  Cu464   2.685   .     S
Cu463  O475    1.955   .     S
Cu463  N470    2.017   .     S
Cu463  O474    1.957   .     S
Cu463  O478    1.959   .     S
Cu463  O471    1.952   .     S
Cu464  N469    2.017   .     S
Cu464  O473    1.957   .     S
Cu464  O477    1.959   .     S
Cu464  O472    1.952   .     S
Cu464  O476    1.955   .     S
H479   C511    1.087   .     S
C485   N486    1.157   .     T
C487   N488    1.157   .     T
C493   N494    1.158   .     T
C495   N496    1.158   .     T
C497   C517    1.457   .     S
C497   O533    1.295   .     A
C497   O535    1.295   .     A
C498   C518    1.460   .     S
C498   O534    1.295   .     A
C498   O536    1.296   .     A
C499   C507    1.416   .     A
C499   H551    1.079   .     S
C499   C501    1.408   .     A
C500   H552    1.079   .     S
C500   C508    1.416   .     A
C500   C502    1.409   .     A
C501   H553    1.082   .     S
C501   N531    1.363   .     A
C502   H554    1.082   .     S
C502   N532    1.363   .     A
C503   C555    1.439   .     S
C503   C505    1.406   .     A
C503   N531    1.371   .     A
C504   C557    1.439   .     S
C504   N532    1.372   .     A
C504   C506    1.406   .     A
C505   H529    1.081   .     S
C505   C507    1.407   .     A
C506   H530    1.080   .     S
C506   C508    1.407   .     A
C508   C135    1.524   1_556 S
C509   O537    1.287   .     A
C509   C511    1.435   .     S
C509   O539    1.292   .     A
C510   O540    1.292   .     A
C510   O538    1.287   .     A
C510   C512    1.435   .     S
C512   C387    1.338   1_655 S
C512   H418    1.087   1_655 S
C513   C523    1.402   .     A
C513   C515    1.389   .     A
C513   H543    1.084   .     S
C514   H544    1.083   .     S
C514   C524    1.402   .     A
C514   C516    1.389   .     A
C515   H545    1.083   .     S
C515   C517    1.399   .     A
C516   C518    1.400   .     A
C516   H546    1.083   .     S
C517   C519    1.401   .     A
C518   C520    1.401   .     A
C519   C521    1.395   .     A
C519   H527    1.085   .     S
C520   H528    1.084   .     S
C520   C522    1.394   .     A
C521   C547    1.445   .     S
C521   C523    1.412   .     A
C522   C524    1.412   .     A
C522   C549    1.445   .     S
C523   C710    1.471   1_545 S
C524   C709    1.471   .     S
Cu525  Cu526   2.685   .     S
Cu525  O537    1.955   .     S
Cu525  N532    2.017   .     S
Cu525  O536    1.957   .     S
Cu525  O540    1.959   .     S
Cu525  O533    1.952   .     S
Cu526  N531    2.017   .     S
Cu526  O535    1.957   .     S
Cu526  O539    1.959   .     S
Cu526  O534    1.952   .     S
Cu526  O538    1.955   .     S
H541   C387    1.087   1_655 S
C547   N548    1.157   .     T
C549   N550    1.157   .     T
C555   N556    1.158   .     T
C557   N558    1.158   .     T
C559   C579    1.457   .     S
C559   O595    1.295   .     A
C559   O597    1.295   .     A
C560   C580    1.460   .     S
C560   O596    1.295   .     A
C560   O598    1.296   .     A
C561   C569    1.416   .     A
C561   H613    1.079   .     S
C561   C563    1.408   .     A
C562   H614    1.079   .     S
C562   C570    1.416   .     A
C562   C564    1.409   .     A
C563   H615    1.082   .     S
C563   N593    1.363   .     A
C564   H616    1.082   .     S
C564   N594    1.363   .     A
C565   C617    1.439   .     S
C565   C567    1.406   .     A
C565   N593    1.371   .     A
C566   C619    1.439   .     S
C566   N594    1.372   .     A
C566   C568    1.406   .     A
C567   H591    1.081   .     S
C567   C569    1.407   .     A
C568   H592    1.080   .     S
C568   C570    1.407   .     A
C570   C197    1.524   1_556 S
C571   O599    1.287   .     A
C571   C573    1.435   .     S
C571   O601    1.292   .     A
C572   O602    1.292   .     A
C572   O600    1.287   .     A
C572   C574    1.435   .     S
C573   C698    1.338   1_455 S
C573   H727    1.087   1_455 S
C574   C635    1.338   .     S
C574   H666    1.087   .     S
C575   C585    1.402   .     A
C575   C577    1.389   .     A
C575   H605    1.084   .     S
C576   H606    1.083   .     S
C576   C586    1.402   .     A
C576   C578    1.389   .     A
C577   H607    1.083   .     S
C577   C579    1.399   .     A
C578   C580    1.400   .     A
C578   H608    1.083   .     S
C579   C581    1.401   .     A
C580   C582    1.401   .     A
C581   C583    1.395   .     A
C581   H589    1.085   .     S
C582   H590    1.084   .     S
C582   C584    1.394   .     A
C583   C609    1.445   .     S
C583   C585    1.412   .     A
C584   C586    1.412   .     A
C584   C611    1.445   .     S
C586   C399    1.471   1_565 S
Cu587  Cu588   2.685   .     S
Cu587  O599    1.955   .     S
Cu587  N594    2.017   .     S
Cu587  O598    1.957   .     S
Cu587  O602    1.959   .     S
Cu587  O595    1.952   .     S
Cu588  N593    2.017   .     S
Cu588  O597    1.957   .     S
Cu588  O601    1.959   .     S
Cu588  O596    1.952   .     S
Cu588  O600    1.955   .     S
H603   C635    1.087   .     S
H604   C698    1.087   1_455 S
C609   N610    1.157   .     T
C611   N612    1.157   .     T
C617   N618    1.158   .     T
C619   N620    1.158   .     T
C621   C641    1.457   .     S
C621   O657    1.295   .     A
C621   O659    1.295   .     A
C622   C642    1.460   .     S
C622   O658    1.295   .     A
C622   O660    1.296   .     A
C623   C631    1.416   .     A
C623   H675    1.079   .     S
C623   C625    1.408   .     A
C624   H676    1.079   .     S
C624   C632    1.416   .     A
C624   C626    1.409   .     A
C625   H677    1.082   .     S
C625   N655    1.363   .     A
C626   H678    1.082   .     S
C626   N656    1.363   .     A
C627   C679    1.439   .     S
C627   C629    1.406   .     A
C627   N655    1.371   .     A
C628   C681    1.439   .     S
C628   N656    1.372   .     A
C628   C630    1.406   .     A
C629   H653    1.081   .     S
C629   C631    1.407   .     A
C630   H654    1.080   .     S
C630   C632    1.407   .     A
C632   C259    1.524   1_556 S
C633   O661    1.287   .     A
C633   C635    1.435   .     S
C633   O663    1.292   .     A
C634   O664    1.292   .     A
C634   O662    1.287   .     A
C634   C636    1.435   .     S
C636   C697    1.338   .     S
C636   H728    1.087   .     S
C637   C647    1.402   .     A
C637   C639    1.389   .     A
C637   H667    1.084   .     S
C638   H668    1.083   .     S
C638   C648    1.402   .     A
C638   C640    1.389   .     A
C639   H669    1.083   .     S
C639   C641    1.399   .     A
C640   C642    1.400   .     A
C640   H670    1.083   .     S
C641   C643    1.401   .     A
C642   C644    1.401   .     A
C643   C645    1.395   .     A
C643   H651    1.085   .     S
C644   H652    1.084   .     S
C644   C646    1.394   .     A
C645   C671    1.445   .     S
C645   C647    1.412   .     A
C646   C648    1.412   .     A
C646   C673    1.445   .     S
C648   C461    1.471   1_565 S
Cu649  Cu650   2.685   .     S
Cu649  O661    1.955   .     S
Cu649  N656    2.017   .     S
Cu649  O660    1.957   .     S
Cu649  O664    1.959   .     S
Cu649  O657    1.952   .     S
Cu650  N655    2.017   .     S
Cu650  O659    1.957   .     S
Cu650  O663    1.959   .     S
Cu650  O658    1.952   .     S
Cu650  O662    1.955   .     S
H665   C697    1.087   .     S
C671   N672    1.157   .     T
C673   N674    1.157   .     T
C679   N680    1.158   .     T
C681   N682    1.158   .     T
C683   C703    1.457   .     S
C683   O719    1.295   .     A
C683   O721    1.295   .     A
C684   C704    1.460   .     S
C684   O720    1.295   .     A
C684   O722    1.296   .     A
C685   C693    1.416   .     A
C685   H737    1.079   .     S
C685   C687    1.408   .     A
C686   H738    1.079   .     S
C686   C694    1.416   .     A
C686   C688    1.409   .     A
C687   H739    1.082   .     S
C687   N717    1.363   .     A
C688   H740    1.082   .     S
C688   N718    1.363   .     A
C689   C741    1.439   .     S
C689   C691    1.406   .     A
C689   N717    1.371   .     A
C690   C743    1.439   .     S
C690   N718    1.372   .     A
C690   C692    1.406   .     A
C691   H715    1.081   .     S
C691   C693    1.407   .     A
C692   H716    1.080   .     S
C692   C694    1.407   .     A
C694   C321    1.524   1_556 S
C695   O723    1.287   .     A
C695   C697    1.435   .     S
C695   O725    1.292   .     A
C696   O726    1.292   .     A
C696   O724    1.287   .     A
C696   C698    1.435   .     S
C698   C573    1.338   1_655 S
C698   H604    1.087   1_655 S
C699   C709    1.402   .     A
C699   C701    1.389   .     A
C699   H729    1.084   .     S
C700   H730    1.083   .     S
C700   C710    1.402   .     A
C700   C702    1.389   .     A
C701   H731    1.083   .     S
C701   C703    1.399   .     A
C702   C704    1.400   .     A
C702   H732    1.083   .     S
C703   C705    1.401   .     A
C704   C706    1.401   .     A
C705   C707    1.395   .     A
C705   H713    1.085   .     S
C706   H714    1.084   .     S
C706   C708    1.394   .     A
C707   C733    1.445   .     S
C707   C709    1.412   .     A
C708   C710    1.412   .     A
C708   C735    1.445   .     S
C710   C523    1.471   1_565 S
Cu711  Cu712   2.685   .     S
Cu711  O723    1.955   .     S
Cu711  N718    2.017   .     S
Cu711  O722    1.957   .     S
Cu711  O726    1.959   .     S
Cu711  O719    1.952   .     S
Cu712  N717    2.017   .     S
Cu712  O721    1.957   .     S
Cu712  O725    1.959   .     S
Cu712  O720    1.952   .     S
Cu712  O724    1.955   .     S
H727   C573    1.087   1_655 S
C733   N734    1.157   .     T
C735   N736    1.157   .     T
C741   N742    1.158   .     T
C743   N744    1.158   .     T
