data_str_m2_o1_o17_pcu_sym.169
_audit_creation_date              2020-01-03
_audit_creation_method            'Materials Studio'
_symmetry_space_group_name_H-M    'P1'
_symmetry_Int_Tables_number       1
_symmetry_cell_setting            triclinic
loop_
_symmetry_equiv_pos_as_xyz
  x,y,z
_cell_length_a                    32.4693
_cell_length_b                    28.5638
_cell_length_c                    30.0264
_cell_angle_alpha                 89.8525
_cell_angle_beta                  90.0728
_cell_angle_gamma                 89.8950
loop_
_atom_site_label
_atom_site_type_symbol
_atom_site_fract_x
_atom_site_fract_y
_atom_site_fract_z
_atom_site_U_iso_or_equiv
_atom_site_adp_type
_atom_site_occupancy
C1     C     0.08736   0.16669   0.24982   0.00000  Uiso   1.00
C2     C     0.24597   0.16664   0.24992   0.00000  Uiso   1.00
C3     C     0.11225   0.10704   0.02325   0.00000  Uiso   1.00
C4     C     0.21725   0.23021   0.47670   0.00000  Uiso   1.00
C5     C     0.02137   0.12416   0.24813   0.00000  Uiso   1.00
C6     C     0.31197   0.20918   0.25086   0.00000  Uiso   1.00
C7     C     0.31211   0.12413   0.24821   0.00000  Uiso   1.00
C8     C     0.02122   0.20921   0.25078   0.00000  Uiso   1.00
C9     C     0.29059   0.16664   0.24967   0.00000  Uiso   1.00
C10    C     0.04274   0.16670   0.24955   0.00000  Uiso   1.00
C11    C     0.14109   0.02493   0.22232   0.00000  Uiso   1.00
C12    C     0.19221   0.30840   0.27773   0.00000  Uiso   1.00
C13    C     0.19222   0.02467   0.27772   0.00000  Uiso   1.00
C14    C     0.14109   0.30866   0.22232   0.00000  Uiso   1.00
C15    C     0.16668   0.16673   0.16439   0.00000  Uiso   1.00
C16    C     0.16662   0.16662   0.33560   0.00000  Uiso   1.00
C17    C     0.19178   0.19795   0.40671   0.00000  Uiso   1.00
C18    C     0.14084   0.13585   0.09325   0.00000  Uiso   1.00
C19    C     0.16641   0.16671   0.38385   0.00000  Uiso   1.00
C20    C     0.16634   0.16698   0.11612   0.00000  Uiso   1.00
C21    C     0.14047   0.13620   0.40690   0.00000  Uiso   1.00
C22    C     0.19114   0.19872   0.09304   0.00000  Uiso   1.00
C23    C     0.13950   0.13690   0.45330   0.00000  Uiso   1.00
C24    C     0.19117   0.19903   0.04665   0.00000  Uiso   1.00
C25    C     0.16523   0.16822   0.47663   0.00000  Uiso   1.00
C26    C     0.16508   0.16810   0.02332   0.00000  Uiso   1.00
C27    C     0.19162   0.19904   0.45322   0.00000  Uiso   1.00
C28    C     0.13925   0.13667   0.04673   0.00000  Uiso   1.00
C29    C     0.11341   0.10655   0.47659   0.00000  Uiso   1.00
C30    C     0.21721   0.22944   0.02336   0.00000  Uiso   1.00
Cu31   Cu    0.16667   0.21355   0.25000   0.00000  Uiso   1.00
Cu32   Cu    0.16667   0.11978   0.25000   0.00000  Uiso   1.00
H33    H     0.21190   0.22091   0.38795   0.00000  Uiso   1.00
H34    H     0.12171   0.11179   0.11199   0.00000  Uiso   1.00
H35    H     0.12079   0.11232   0.38864   0.00000  Uiso   1.00
H36    H     0.21097   0.22247   0.11129   0.00000  Uiso   1.00
H37    H     0.09401   0.08217   0.45863   0.00000  Uiso   1.00
H38    H     0.23799   0.25232   0.04131   0.00000  Uiso   1.00
H39    H     0.03745   0.09092   0.24702   0.00000  Uiso   1.00
H40    H     0.29589   0.24242   0.25196   0.00000  Uiso   1.00
H41    H     0.29614   0.09088   0.24717   0.00000  Uiso   1.00
H42    H     0.03718   0.24246   0.25183   0.00000  Uiso   1.00
H43    H     0.12059   0.04373   0.20013   0.00000  Uiso   1.00
H44    H     0.21269   0.28961   0.29993   0.00000  Uiso   1.00
H45    H     0.21271   0.04325   0.29991   0.00000  Uiso   1.00
H46    H     0.12059   0.29007   0.20014   0.00000  Uiso   1.00
N47    N     0.16667   0.28402   0.25000   0.00000  Uiso   1.00
N48    N     0.16667   0.04931   0.25000   0.00000  Uiso   1.00
O49    O     0.10655   0.20625   0.24999   0.00000  Uiso   1.00
O50    O     0.22679   0.12709   0.25000   0.00000  Uiso   1.00
O51    O     0.22679   0.20625   0.25000   0.00000  Uiso   1.00
O52    O     0.10655   0.12709   0.25000   0.00000  Uiso   1.00
O53    O     0.16666   0.20627   0.18513   0.00000  Uiso   1.00
O54    O     0.16668   0.12707   0.31487   0.00000  Uiso   1.00
O55    O     0.16668   0.20627   0.31487   0.00000  Uiso   1.00
O56    O     0.16666   0.12707   0.18513   0.00000  Uiso   1.00
O57    O     0.08720   0.07587   0.04602   0.00000  Uiso   1.00
C58    C     0.04534   0.08936   0.04186   0.00000  Uiso   1.00
H59    H     0.02635   0.05732   0.04594   0.00000  Uiso   1.00
H60    H     0.03744   0.10400   0.00845   0.00000  Uiso   1.00
C61    C     0.03347   0.12417   0.07852   0.00000  Uiso   1.00
H62    H     0.04091   0.10884   0.11164   0.00000  Uiso   1.00
H63    H     0.05141   0.15698   0.07439   0.00000  Uiso   1.00
C64    C     0.32095   0.13603   0.07685   0.00000  Uiso   1.00
H65    H     0.31291   0.15226   0.04431   0.00000  Uiso   1.00
H66    H     0.31340   0.16119   0.10378   0.00000  Uiso   1.00
H67    H     0.30221   0.10393   0.08172   0.00000  Uiso   1.00
O68    O     0.24547   0.25774   0.45411   0.00000  Uiso   1.00
C69    C     0.23421   0.30558   0.45666   0.00000  Uiso   1.00
H70    H     0.26307   0.32634   0.45829   0.00000  Uiso   1.00
H71    H     0.21612   0.31479   0.48701   0.00000  Uiso   1.00
C72    C     0.21036   0.31998   0.41476   0.00000  Uiso   1.00
H73    H     0.22847   0.31053   0.38470   0.00000  Uiso   1.00
H74    H     0.18055   0.30098   0.41367   0.00000  Uiso   1.00
C75    C     0.20184   0.03913   0.41407   0.00000  Uiso   1.00
H76    H     0.18397   0.04930   0.44402   0.00000  Uiso   1.00
H77    H     0.18370   0.04818   0.38388   0.00000  Uiso   1.00
H78    H     0.23118   0.05906   0.41335   0.00000  Uiso   1.00
C79    C     0.42069   0.16669   0.24982   0.00000  Uiso   1.00
C80    C     0.57931   0.16664   0.24992   0.00000  Uiso   1.00
C81    C     0.44558   0.10704   0.02325   0.00000  Uiso   1.00
C82    C     0.55058   0.23021   0.47670   0.00000  Uiso   1.00
C83    C     0.35470   0.12416   0.24813   0.00000  Uiso   1.00
C84    C     0.64530   0.20918   0.25086   0.00000  Uiso   1.00
C85    C     0.64544   0.12413   0.24821   0.00000  Uiso   1.00
C86    C     0.35455   0.20921   0.25078   0.00000  Uiso   1.00
C87    C     0.62392   0.16664   0.24967   0.00000  Uiso   1.00
C88    C     0.37608   0.16670   0.24955   0.00000  Uiso   1.00
C89    C     0.47442   0.02493   0.22232   0.00000  Uiso   1.00
C90    C     0.52554   0.30840   0.27773   0.00000  Uiso   1.00
C91    C     0.52555   0.02467   0.27772   0.00000  Uiso   1.00
C92    C     0.47442   0.30866   0.22232   0.00000  Uiso   1.00
C93    C     0.50001   0.16673   0.16439   0.00000  Uiso   1.00
C94    C     0.49996   0.16662   0.33560   0.00000  Uiso   1.00
C95    C     0.52512   0.19795   0.40671   0.00000  Uiso   1.00
C96    C     0.47418   0.13585   0.09325   0.00000  Uiso   1.00
C97    C     0.49975   0.16671   0.38385   0.00000  Uiso   1.00
C98    C     0.49968   0.16698   0.11612   0.00000  Uiso   1.00
C99    C     0.47381   0.13620   0.40690   0.00000  Uiso   1.00
C100   C     0.52448   0.19872   0.09304   0.00000  Uiso   1.00
C101   C     0.47284   0.13690   0.45330   0.00000  Uiso   1.00
C102   C     0.52451   0.19903   0.04665   0.00000  Uiso   1.00
C103   C     0.49857   0.16822   0.47663   0.00000  Uiso   1.00
C104   C     0.49841   0.16810   0.02332   0.00000  Uiso   1.00
C105   C     0.52496   0.19904   0.45322   0.00000  Uiso   1.00
C106   C     0.47259   0.13667   0.04673   0.00000  Uiso   1.00
C107   C     0.44674   0.10655   0.47659   0.00000  Uiso   1.00
C108   C     0.55055   0.22944   0.02336   0.00000  Uiso   1.00
Cu109  Cu    0.50000   0.21355   0.25000   0.00000  Uiso   1.00
Cu110  Cu    0.50000   0.11978   0.25000   0.00000  Uiso   1.00
H111   H     0.54524   0.22091   0.38795   0.00000  Uiso   1.00
H112   H     0.45505   0.11179   0.11199   0.00000  Uiso   1.00
H113   H     0.45412   0.11232   0.38864   0.00000  Uiso   1.00
H114   H     0.54430   0.22247   0.11129   0.00000  Uiso   1.00
H115   H     0.42735   0.08217   0.45863   0.00000  Uiso   1.00
H116   H     0.57133   0.25232   0.04131   0.00000  Uiso   1.00
H117   H     0.37078   0.09092   0.24702   0.00000  Uiso   1.00
H118   H     0.62922   0.24242   0.25196   0.00000  Uiso   1.00
H119   H     0.62948   0.09088   0.24717   0.00000  Uiso   1.00
H120   H     0.37052   0.24246   0.25183   0.00000  Uiso   1.00
H121   H     0.45393   0.04373   0.20013   0.00000  Uiso   1.00
H122   H     0.54602   0.28961   0.29993   0.00000  Uiso   1.00
H123   H     0.54605   0.04325   0.29991   0.00000  Uiso   1.00
H124   H     0.45392   0.29007   0.20014   0.00000  Uiso   1.00
N125   N     0.50000   0.28402   0.25000   0.00000  Uiso   1.00
N126   N     0.50000   0.04931   0.25000   0.00000  Uiso   1.00
O127   O     0.43988   0.20625   0.24999   0.00000  Uiso   1.00
O128   O     0.56012   0.12709   0.25000   0.00000  Uiso   1.00
O129   O     0.56012   0.20625   0.25000   0.00000  Uiso   1.00
O130   O     0.43988   0.12709   0.25000   0.00000  Uiso   1.00
O131   O     0.49999   0.20627   0.18513   0.00000  Uiso   1.00
O132   O     0.50001   0.12707   0.31487   0.00000  Uiso   1.00
O133   O     0.50001   0.20627   0.31487   0.00000  Uiso   1.00
O134   O     0.49999   0.12707   0.18513   0.00000  Uiso   1.00
O135   O     0.42053   0.07587   0.04602   0.00000  Uiso   1.00
C136   C     0.37867   0.08936   0.04186   0.00000  Uiso   1.00
H137   H     0.35968   0.05732   0.04594   0.00000  Uiso   1.00
H138   H     0.37077   0.10400   0.00845   0.00000  Uiso   1.00
C139   C     0.36680   0.12417   0.07852   0.00000  Uiso   1.00
H140   H     0.37424   0.10884   0.11164   0.00000  Uiso   1.00
H141   H     0.38475   0.15698   0.07439   0.00000  Uiso   1.00
C142   C     0.65429   0.13603   0.07685   0.00000  Uiso   1.00
H143   H     0.64625   0.15226   0.04431   0.00000  Uiso   1.00
H144   H     0.64673   0.16119   0.10378   0.00000  Uiso   1.00
H145   H     0.63554   0.10393   0.08172   0.00000  Uiso   1.00
O146   O     0.57880   0.25774   0.45411   0.00000  Uiso   1.00
C147   C     0.56754   0.30558   0.45666   0.00000  Uiso   1.00
H148   H     0.59641   0.32634   0.45829   0.00000  Uiso   1.00
H149   H     0.54945   0.31479   0.48701   0.00000  Uiso   1.00
C150   C     0.54370   0.31998   0.41476   0.00000  Uiso   1.00
H151   H     0.56180   0.31053   0.38470   0.00000  Uiso   1.00
H152   H     0.51388   0.30098   0.41367   0.00000  Uiso   1.00
C153   C     0.53518   0.03913   0.41407   0.00000  Uiso   1.00
H154   H     0.51731   0.04930   0.44402   0.00000  Uiso   1.00
H155   H     0.51704   0.04818   0.38388   0.00000  Uiso   1.00
H156   H     0.56451   0.05906   0.41335   0.00000  Uiso   1.00
C157   C     0.75403   0.16669   0.24982   0.00000  Uiso   1.00
C158   C     0.91264   0.16664   0.24992   0.00000  Uiso   1.00
C159   C     0.77892   0.10704   0.02325   0.00000  Uiso   1.00
C160   C     0.88391   0.23021   0.47670   0.00000  Uiso   1.00
C161   C     0.68803   0.12416   0.24813   0.00000  Uiso   1.00
C162   C     0.97863   0.20918   0.25086   0.00000  Uiso   1.00
C163   C     0.97878   0.12413   0.24821   0.00000  Uiso   1.00
C164   C     0.68789   0.20921   0.25078   0.00000  Uiso   1.00
C165   C     0.95725   0.16664   0.24967   0.00000  Uiso   1.00
C166   C     0.70941   0.16670   0.24955   0.00000  Uiso   1.00
C167   C     0.80775   0.02493   0.22232   0.00000  Uiso   1.00
C168   C     0.85888   0.30840   0.27773   0.00000  Uiso   1.00
C169   C     0.85889   0.02467   0.27772   0.00000  Uiso   1.00
C170   C     0.80775   0.30866   0.22232   0.00000  Uiso   1.00
C171   C     0.83334   0.16673   0.16439   0.00000  Uiso   1.00
C172   C     0.83329   0.16662   0.33560   0.00000  Uiso   1.00
C173   C     0.85845   0.19795   0.40671   0.00000  Uiso   1.00
C174   C     0.80751   0.13585   0.09325   0.00000  Uiso   1.00
C175   C     0.83308   0.16671   0.38385   0.00000  Uiso   1.00
C176   C     0.83301   0.16698   0.11612   0.00000  Uiso   1.00
C177   C     0.80714   0.13620   0.40690   0.00000  Uiso   1.00
C178   C     0.85781   0.19872   0.09304   0.00000  Uiso   1.00
C179   C     0.80617   0.13690   0.45330   0.00000  Uiso   1.00
C180   C     0.85784   0.19903   0.04665   0.00000  Uiso   1.00
C181   C     0.83190   0.16822   0.47663   0.00000  Uiso   1.00
C182   C     0.83175   0.16810   0.02332   0.00000  Uiso   1.00
C183   C     0.85829   0.19904   0.45322   0.00000  Uiso   1.00
C184   C     0.80592   0.13667   0.04673   0.00000  Uiso   1.00
C185   C     0.78008   0.10655   0.47659   0.00000  Uiso   1.00
C186   C     0.88388   0.22944   0.02336   0.00000  Uiso   1.00
Cu187  Cu    0.83333   0.21355   0.25000   0.00000  Uiso   1.00
Cu188  Cu    0.83333   0.11978   0.25000   0.00000  Uiso   1.00
H189   H     0.87857   0.22091   0.38795   0.00000  Uiso   1.00
H190   H     0.78838   0.11179   0.11199   0.00000  Uiso   1.00
H191   H     0.78746   0.11232   0.38864   0.00000  Uiso   1.00
H192   H     0.87763   0.22247   0.11129   0.00000  Uiso   1.00
H193   H     0.76068   0.08217   0.45863   0.00000  Uiso   1.00
H194   H     0.90466   0.25232   0.04131   0.00000  Uiso   1.00
H195   H     0.70412   0.09092   0.24702   0.00000  Uiso   1.00
H196   H     0.96255   0.24242   0.25196   0.00000  Uiso   1.00
H197   H     0.96281   0.09088   0.24717   0.00000  Uiso   1.00
H198   H     0.70385   0.24246   0.25183   0.00000  Uiso   1.00
H199   H     0.78726   0.04373   0.20013   0.00000  Uiso   1.00
H200   H     0.87935   0.28961   0.29993   0.00000  Uiso   1.00
H201   H     0.87938   0.04325   0.29991   0.00000  Uiso   1.00
H202   H     0.78726   0.29007   0.20014   0.00000  Uiso   1.00
N203   N     0.83333   0.28402   0.25000   0.00000  Uiso   1.00
N204   N     0.83333   0.04931   0.25000   0.00000  Uiso   1.00
O205   O     0.77321   0.20625   0.24999   0.00000  Uiso   1.00
O206   O     0.89345   0.12709   0.25000   0.00000  Uiso   1.00
O207   O     0.89345   0.20625   0.25000   0.00000  Uiso   1.00
O208   O     0.77321   0.12709   0.25000   0.00000  Uiso   1.00
O209   O     0.83332   0.20627   0.18513   0.00000  Uiso   1.00
O210   O     0.83334   0.12707   0.31487   0.00000  Uiso   1.00
O211   O     0.83334   0.20627   0.31487   0.00000  Uiso   1.00
O212   O     0.83332   0.12707   0.18513   0.00000  Uiso   1.00
O213   O     0.75387   0.07587   0.04602   0.00000  Uiso   1.00
C214   C     0.71200   0.08936   0.04186   0.00000  Uiso   1.00
H215   H     0.69301   0.05732   0.04594   0.00000  Uiso   1.00
H216   H     0.70410   0.10400   0.00845   0.00000  Uiso   1.00
C217   C     0.70014   0.12417   0.07852   0.00000  Uiso   1.00
H218   H     0.70758   0.10884   0.11164   0.00000  Uiso   1.00
H219   H     0.71808   0.15698   0.07439   0.00000  Uiso   1.00
C220   C     0.98762   0.13603   0.07685   0.00000  Uiso   1.00
H221   H     0.97958   0.15226   0.04431   0.00000  Uiso   1.00
H222   H     0.98007   0.16119   0.10378   0.00000  Uiso   1.00
H223   H     0.96888   0.10393   0.08172   0.00000  Uiso   1.00
O224   O     0.91214   0.25774   0.45411   0.00000  Uiso   1.00
C225   C     0.90087   0.30558   0.45666   0.00000  Uiso   1.00
H226   H     0.92974   0.32634   0.45829   0.00000  Uiso   1.00
H227   H     0.88279   0.31479   0.48701   0.00000  Uiso   1.00
C228   C     0.87703   0.31998   0.41476   0.00000  Uiso   1.00
H229   H     0.89514   0.31053   0.38470   0.00000  Uiso   1.00
H230   H     0.84722   0.30098   0.41367   0.00000  Uiso   1.00
C231   C     0.86851   0.03913   0.41407   0.00000  Uiso   1.00
H232   H     0.85064   0.04930   0.44402   0.00000  Uiso   1.00
H233   H     0.85037   0.04818   0.38388   0.00000  Uiso   1.00
H234   H     0.89784   0.05906   0.41335   0.00000  Uiso   1.00
C235   C     0.08736   0.50002   0.24982   0.00000  Uiso   1.00
C236   C     0.24597   0.49997   0.24992   0.00000  Uiso   1.00
C237   C     0.11225   0.44037   0.02325   0.00000  Uiso   1.00
C238   C     0.21725   0.56354   0.47670   0.00000  Uiso   1.00
C239   C     0.02137   0.45749   0.24813   0.00000  Uiso   1.00
C240   C     0.31197   0.54251   0.25086   0.00000  Uiso   1.00
C241   C     0.31211   0.45746   0.24821   0.00000  Uiso   1.00
C242   C     0.02122   0.54254   0.25078   0.00000  Uiso   1.00
C243   C     0.29059   0.49997   0.24967   0.00000  Uiso   1.00
C244   C     0.04274   0.50003   0.24955   0.00000  Uiso   1.00
C245   C     0.14109   0.35826   0.22232   0.00000  Uiso   1.00
C246   C     0.19221   0.64173   0.27773   0.00000  Uiso   1.00
C247   C     0.19222   0.35801   0.27772   0.00000  Uiso   1.00
C248   C     0.14109   0.64199   0.22232   0.00000  Uiso   1.00
C249   C     0.16668   0.50007   0.16439   0.00000  Uiso   1.00
C250   C     0.16662   0.49996   0.33560   0.00000  Uiso   1.00
C251   C     0.19178   0.53129   0.40671   0.00000  Uiso   1.00
C252   C     0.14084   0.46919   0.09325   0.00000  Uiso   1.00
C253   C     0.16641   0.50004   0.38385   0.00000  Uiso   1.00
C254   C     0.16634   0.50032   0.11612   0.00000  Uiso   1.00
C255   C     0.14047   0.46953   0.40690   0.00000  Uiso   1.00
C256   C     0.19114   0.53205   0.09304   0.00000  Uiso   1.00
C257   C     0.13950   0.47023   0.45330   0.00000  Uiso   1.00
C258   C     0.19117   0.53237   0.04665   0.00000  Uiso   1.00
C259   C     0.16523   0.50155   0.47663   0.00000  Uiso   1.00
C260   C     0.16508   0.50143   0.02332   0.00000  Uiso   1.00
C261   C     0.19162   0.53237   0.45322   0.00000  Uiso   1.00
C262   C     0.13925   0.47001   0.04673   0.00000  Uiso   1.00
C263   C     0.11341   0.43989   0.47659   0.00000  Uiso   1.00
C264   C     0.21721   0.56277   0.02336   0.00000  Uiso   1.00
Cu265  Cu    0.16667   0.54689   0.25000   0.00000  Uiso   1.00
Cu266  Cu    0.16667   0.45311   0.25000   0.00000  Uiso   1.00
H267   H     0.21190   0.55424   0.38795   0.00000  Uiso   1.00
H268   H     0.12171   0.44512   0.11199   0.00000  Uiso   1.00
H269   H     0.12079   0.44565   0.38864   0.00000  Uiso   1.00
H270   H     0.21097   0.55580   0.11129   0.00000  Uiso   1.00
H271   H     0.09401   0.41550   0.45863   0.00000  Uiso   1.00
H272   H     0.23799   0.58566   0.04131   0.00000  Uiso   1.00
H273   H     0.03745   0.42426   0.24702   0.00000  Uiso   1.00
H274   H     0.29589   0.57575   0.25196   0.00000  Uiso   1.00
H275   H     0.29614   0.42422   0.24717   0.00000  Uiso   1.00
H276   H     0.03718   0.57579   0.25183   0.00000  Uiso   1.00
H277   H     0.12059   0.37706   0.20013   0.00000  Uiso   1.00
H278   H     0.21269   0.62294   0.29993   0.00000  Uiso   1.00
H279   H     0.21271   0.37658   0.29991   0.00000  Uiso   1.00
H280   H     0.12059   0.62340   0.20014   0.00000  Uiso   1.00
N281   N     0.16667   0.61736   0.25000   0.00000  Uiso   1.00
N282   N     0.16667   0.38264   0.25000   0.00000  Uiso   1.00
O283   O     0.10655   0.53958   0.24999   0.00000  Uiso   1.00
O284   O     0.22679   0.46042   0.25000   0.00000  Uiso   1.00
O285   O     0.22679   0.53958   0.25000   0.00000  Uiso   1.00
O286   O     0.10655   0.46042   0.25000   0.00000  Uiso   1.00
O287   O     0.16666   0.53960   0.18513   0.00000  Uiso   1.00
O288   O     0.16668   0.46040   0.31487   0.00000  Uiso   1.00
O289   O     0.16668   0.53960   0.31487   0.00000  Uiso   1.00
O290   O     0.16666   0.46040   0.18513   0.00000  Uiso   1.00
O291   O     0.08720   0.40921   0.04602   0.00000  Uiso   1.00
C292   C     0.04534   0.42269   0.04186   0.00000  Uiso   1.00
H293   H     0.02635   0.39066   0.04594   0.00000  Uiso   1.00
H294   H     0.03744   0.43733   0.00845   0.00000  Uiso   1.00
C295   C     0.03347   0.45750   0.07852   0.00000  Uiso   1.00
H296   H     0.04091   0.44218   0.11164   0.00000  Uiso   1.00
H297   H     0.05141   0.49031   0.07439   0.00000  Uiso   1.00
C298   C     0.32095   0.46936   0.07685   0.00000  Uiso   1.00
H299   H     0.31291   0.48560   0.04431   0.00000  Uiso   1.00
H300   H     0.31340   0.49453   0.10378   0.00000  Uiso   1.00
H301   H     0.30221   0.43726   0.08172   0.00000  Uiso   1.00
O302   O     0.24547   0.59108   0.45411   0.00000  Uiso   1.00
C303   C     0.23421   0.63891   0.45666   0.00000  Uiso   1.00
H304   H     0.26307   0.65967   0.45829   0.00000  Uiso   1.00
H305   H     0.21612   0.64813   0.48701   0.00000  Uiso   1.00
C306   C     0.21036   0.65332   0.41476   0.00000  Uiso   1.00
H307   H     0.22847   0.64386   0.38470   0.00000  Uiso   1.00
H308   H     0.18055   0.63431   0.41367   0.00000  Uiso   1.00
C309   C     0.20184   0.37246   0.41407   0.00000  Uiso   1.00
H310   H     0.18397   0.38263   0.44402   0.00000  Uiso   1.00
H311   H     0.18370   0.38151   0.38388   0.00000  Uiso   1.00
H312   H     0.23118   0.39239   0.41335   0.00000  Uiso   1.00
C313   C     0.42069   0.50002   0.24982   0.00000  Uiso   1.00
C314   C     0.57931   0.49997   0.24992   0.00000  Uiso   1.00
C315   C     0.44558   0.44037   0.02325   0.00000  Uiso   1.00
C316   C     0.55058   0.56354   0.47670   0.00000  Uiso   1.00
C317   C     0.35470   0.45749   0.24813   0.00000  Uiso   1.00
C318   C     0.64530   0.54251   0.25086   0.00000  Uiso   1.00
C319   C     0.64544   0.45746   0.24821   0.00000  Uiso   1.00
C320   C     0.35455   0.54254   0.25078   0.00000  Uiso   1.00
C321   C     0.62392   0.49997   0.24967   0.00000  Uiso   1.00
C322   C     0.37608   0.50003   0.24955   0.00000  Uiso   1.00
C323   C     0.47442   0.35826   0.22232   0.00000  Uiso   1.00
C324   C     0.52554   0.64173   0.27773   0.00000  Uiso   1.00
C325   C     0.52555   0.35801   0.27772   0.00000  Uiso   1.00
C326   C     0.47442   0.64199   0.22232   0.00000  Uiso   1.00
C327   C     0.50001   0.50007   0.16439   0.00000  Uiso   1.00
C328   C     0.49996   0.49996   0.33560   0.00000  Uiso   1.00
C329   C     0.52512   0.53129   0.40671   0.00000  Uiso   1.00
C330   C     0.47418   0.46919   0.09325   0.00000  Uiso   1.00
C331   C     0.49975   0.50004   0.38385   0.00000  Uiso   1.00
C332   C     0.49968   0.50032   0.11612   0.00000  Uiso   1.00
C333   C     0.47381   0.46953   0.40690   0.00000  Uiso   1.00
C334   C     0.52448   0.53205   0.09304   0.00000  Uiso   1.00
C335   C     0.47284   0.47023   0.45330   0.00000  Uiso   1.00
C336   C     0.52451   0.53237   0.04665   0.00000  Uiso   1.00
C337   C     0.49857   0.50155   0.47663   0.00000  Uiso   1.00
C338   C     0.49841   0.50143   0.02332   0.00000  Uiso   1.00
C339   C     0.52496   0.53237   0.45322   0.00000  Uiso   1.00
C340   C     0.47259   0.47001   0.04673   0.00000  Uiso   1.00
C341   C     0.44674   0.43989   0.47659   0.00000  Uiso   1.00
C342   C     0.55055   0.56277   0.02336   0.00000  Uiso   1.00
Cu343  Cu    0.50000   0.54689   0.25000   0.00000  Uiso   1.00
Cu344  Cu    0.50000   0.45311   0.25000   0.00000  Uiso   1.00
H345   H     0.54524   0.55424   0.38795   0.00000  Uiso   1.00
H346   H     0.45505   0.44512   0.11199   0.00000  Uiso   1.00
H347   H     0.45412   0.44565   0.38864   0.00000  Uiso   1.00
H348   H     0.54430   0.55580   0.11129   0.00000  Uiso   1.00
H349   H     0.42735   0.41550   0.45863   0.00000  Uiso   1.00
H350   H     0.57133   0.58566   0.04131   0.00000  Uiso   1.00
H351   H     0.37078   0.42426   0.24702   0.00000  Uiso   1.00
H352   H     0.62922   0.57575   0.25196   0.00000  Uiso   1.00
H353   H     0.62948   0.42422   0.24717   0.00000  Uiso   1.00
H354   H     0.37052   0.57579   0.25183   0.00000  Uiso   1.00
H355   H     0.45393   0.37706   0.20013   0.00000  Uiso   1.00
H356   H     0.54602   0.62294   0.29993   0.00000  Uiso   1.00
H357   H     0.54605   0.37658   0.29991   0.00000  Uiso   1.00
H358   H     0.45392   0.62340   0.20014   0.00000  Uiso   1.00
N359   N     0.50000   0.61736   0.25000   0.00000  Uiso   1.00
N360   N     0.50000   0.38264   0.25000   0.00000  Uiso   1.00
O361   O     0.43988   0.53958   0.24999   0.00000  Uiso   1.00
O362   O     0.56012   0.46042   0.25000   0.00000  Uiso   1.00
O363   O     0.56012   0.53958   0.25000   0.00000  Uiso   1.00
O364   O     0.43988   0.46042   0.25000   0.00000  Uiso   1.00
O365   O     0.49999   0.53960   0.18513   0.00000  Uiso   1.00
O366   O     0.50001   0.46040   0.31487   0.00000  Uiso   1.00
O367   O     0.50001   0.53960   0.31487   0.00000  Uiso   1.00
O368   O     0.49999   0.46040   0.18513   0.00000  Uiso   1.00
O369   O     0.42053   0.40921   0.04602   0.00000  Uiso   1.00
C370   C     0.37867   0.42269   0.04186   0.00000  Uiso   1.00
H371   H     0.35968   0.39066   0.04594   0.00000  Uiso   1.00
H372   H     0.37077   0.43733   0.00845   0.00000  Uiso   1.00
C373   C     0.36680   0.45750   0.07852   0.00000  Uiso   1.00
H374   H     0.37424   0.44218   0.11164   0.00000  Uiso   1.00
H375   H     0.38475   0.49031   0.07439   0.00000  Uiso   1.00
C376   C     0.65429   0.46936   0.07685   0.00000  Uiso   1.00
H377   H     0.64625   0.48560   0.04431   0.00000  Uiso   1.00
H378   H     0.64673   0.49453   0.10378   0.00000  Uiso   1.00
H379   H     0.63554   0.43726   0.08172   0.00000  Uiso   1.00
O380   O     0.57880   0.59108   0.45411   0.00000  Uiso   1.00
C381   C     0.56754   0.63891   0.45666   0.00000  Uiso   1.00
H382   H     0.59641   0.65967   0.45829   0.00000  Uiso   1.00
H383   H     0.54945   0.64813   0.48701   0.00000  Uiso   1.00
C384   C     0.54370   0.65332   0.41476   0.00000  Uiso   1.00
H385   H     0.56180   0.64386   0.38470   0.00000  Uiso   1.00
H386   H     0.51388   0.63431   0.41367   0.00000  Uiso   1.00
C387   C     0.53518   0.37246   0.41407   0.00000  Uiso   1.00
H388   H     0.51731   0.38263   0.44402   0.00000  Uiso   1.00
H389   H     0.51704   0.38151   0.38388   0.00000  Uiso   1.00
H390   H     0.56451   0.39239   0.41335   0.00000  Uiso   1.00
C391   C     0.75403   0.50002   0.24982   0.00000  Uiso   1.00
C392   C     0.91264   0.49997   0.24992   0.00000  Uiso   1.00
C393   C     0.77892   0.44037   0.02325   0.00000  Uiso   1.00
C394   C     0.88391   0.56354   0.47670   0.00000  Uiso   1.00
C395   C     0.68803   0.45749   0.24813   0.00000  Uiso   1.00
C396   C     0.97863   0.54251   0.25086   0.00000  Uiso   1.00
C397   C     0.97878   0.45746   0.24821   0.00000  Uiso   1.00
C398   C     0.68789   0.54254   0.25078   0.00000  Uiso   1.00
C399   C     0.95725   0.49997   0.24967   0.00000  Uiso   1.00
C400   C     0.70941   0.50003   0.24955   0.00000  Uiso   1.00
C401   C     0.80775   0.35826   0.22232   0.00000  Uiso   1.00
C402   C     0.85888   0.64173   0.27773   0.00000  Uiso   1.00
C403   C     0.85889   0.35801   0.27772   0.00000  Uiso   1.00
C404   C     0.80775   0.64199   0.22232   0.00000  Uiso   1.00
C405   C     0.83334   0.50007   0.16439   0.00000  Uiso   1.00
C406   C     0.83329   0.49996   0.33560   0.00000  Uiso   1.00
C407   C     0.85845   0.53129   0.40671   0.00000  Uiso   1.00
C408   C     0.80751   0.46919   0.09325   0.00000  Uiso   1.00
C409   C     0.83308   0.50004   0.38385   0.00000  Uiso   1.00
C410   C     0.83301   0.50032   0.11612   0.00000  Uiso   1.00
C411   C     0.80714   0.46953   0.40690   0.00000  Uiso   1.00
C412   C     0.85781   0.53205   0.09304   0.00000  Uiso   1.00
C413   C     0.80617   0.47023   0.45330   0.00000  Uiso   1.00
C414   C     0.85784   0.53237   0.04665   0.00000  Uiso   1.00
C415   C     0.83190   0.50155   0.47663   0.00000  Uiso   1.00
C416   C     0.83175   0.50143   0.02332   0.00000  Uiso   1.00
C417   C     0.85829   0.53237   0.45322   0.00000  Uiso   1.00
C418   C     0.80592   0.47001   0.04673   0.00000  Uiso   1.00
C419   C     0.78008   0.43989   0.47659   0.00000  Uiso   1.00
C420   C     0.88388   0.56277   0.02336   0.00000  Uiso   1.00
Cu421  Cu    0.83333   0.54689   0.25000   0.00000  Uiso   1.00
Cu422  Cu    0.83333   0.45311   0.25000   0.00000  Uiso   1.00
H423   H     0.87857   0.55424   0.38795   0.00000  Uiso   1.00
H424   H     0.78838   0.44512   0.11199   0.00000  Uiso   1.00
H425   H     0.78746   0.44565   0.38864   0.00000  Uiso   1.00
H426   H     0.87763   0.55580   0.11129   0.00000  Uiso   1.00
H427   H     0.76068   0.41550   0.45863   0.00000  Uiso   1.00
H428   H     0.90466   0.58566   0.04131   0.00000  Uiso   1.00
H429   H     0.70412   0.42426   0.24702   0.00000  Uiso   1.00
H430   H     0.96255   0.57575   0.25196   0.00000  Uiso   1.00
H431   H     0.96281   0.42422   0.24717   0.00000  Uiso   1.00
H432   H     0.70385   0.57579   0.25183   0.00000  Uiso   1.00
H433   H     0.78726   0.37706   0.20013   0.00000  Uiso   1.00
H434   H     0.87935   0.62294   0.29993   0.00000  Uiso   1.00
H435   H     0.87938   0.37658   0.29991   0.00000  Uiso   1.00
H436   H     0.78726   0.62340   0.20014   0.00000  Uiso   1.00
N437   N     0.83333   0.61736   0.25000   0.00000  Uiso   1.00
N438   N     0.83333   0.38264   0.25000   0.00000  Uiso   1.00
O439   O     0.77321   0.53958   0.24999   0.00000  Uiso   1.00
O440   O     0.89345   0.46042   0.25000   0.00000  Uiso   1.00
O441   O     0.89345   0.53958   0.25000   0.00000  Uiso   1.00
O442   O     0.77321   0.46042   0.25000   0.00000  Uiso   1.00
O443   O     0.83332   0.53960   0.18513   0.00000  Uiso   1.00
O444   O     0.83334   0.46040   0.31487   0.00000  Uiso   1.00
O445   O     0.83334   0.53960   0.31487   0.00000  Uiso   1.00
O446   O     0.83332   0.46040   0.18513   0.00000  Uiso   1.00
O447   O     0.75387   0.40921   0.04602   0.00000  Uiso   1.00
C448   C     0.71200   0.42269   0.04186   0.00000  Uiso   1.00
H449   H     0.69301   0.39066   0.04594   0.00000  Uiso   1.00
H450   H     0.70410   0.43733   0.00845   0.00000  Uiso   1.00
C451   C     0.70014   0.45750   0.07852   0.00000  Uiso   1.00
H452   H     0.70758   0.44218   0.11164   0.00000  Uiso   1.00
H453   H     0.71808   0.49031   0.07439   0.00000  Uiso   1.00
C454   C     0.98762   0.46936   0.07685   0.00000  Uiso   1.00
H455   H     0.97958   0.48560   0.04431   0.00000  Uiso   1.00
H456   H     0.98007   0.49453   0.10378   0.00000  Uiso   1.00
H457   H     0.96888   0.43726   0.08172   0.00000  Uiso   1.00
O458   O     0.91214   0.59108   0.45411   0.00000  Uiso   1.00
C459   C     0.90087   0.63891   0.45666   0.00000  Uiso   1.00
H460   H     0.92974   0.65967   0.45829   0.00000  Uiso   1.00
H461   H     0.88279   0.64813   0.48701   0.00000  Uiso   1.00
C462   C     0.87703   0.65332   0.41476   0.00000  Uiso   1.00
H463   H     0.89514   0.64386   0.38470   0.00000  Uiso   1.00
H464   H     0.84722   0.63431   0.41367   0.00000  Uiso   1.00
C465   C     0.86851   0.37246   0.41407   0.00000  Uiso   1.00
H466   H     0.85064   0.38263   0.44402   0.00000  Uiso   1.00
H467   H     0.85037   0.38151   0.38388   0.00000  Uiso   1.00
H468   H     0.89784   0.39239   0.41335   0.00000  Uiso   1.00
C469   C     0.08736   0.83336   0.24982   0.00000  Uiso   1.00
C470   C     0.24597   0.83331   0.24992   0.00000  Uiso   1.00
C471   C     0.11225   0.77370   0.02325   0.00000  Uiso   1.00
C472   C     0.21725   0.89687   0.47670   0.00000  Uiso   1.00
C473   C     0.02137   0.79082   0.24813   0.00000  Uiso   1.00
C474   C     0.31197   0.87585   0.25086   0.00000  Uiso   1.00
C475   C     0.31211   0.79079   0.24821   0.00000  Uiso   1.00
C476   C     0.02122   0.87588   0.25078   0.00000  Uiso   1.00
C477   C     0.29059   0.83330   0.24967   0.00000  Uiso   1.00
C478   C     0.04274   0.83336   0.24955   0.00000  Uiso   1.00
C479   C     0.14109   0.69160   0.22232   0.00000  Uiso   1.00
C480   C     0.19221   0.97507   0.27773   0.00000  Uiso   1.00
C481   C     0.19222   0.69134   0.27772   0.00000  Uiso   1.00
C482   C     0.14109   0.97533   0.22232   0.00000  Uiso   1.00
C483   C     0.16668   0.83340   0.16439   0.00000  Uiso   1.00
C484   C     0.16662   0.83329   0.33560   0.00000  Uiso   1.00
C485   C     0.19178   0.86462   0.40671   0.00000  Uiso   1.00
C486   C     0.14084   0.80252   0.09325   0.00000  Uiso   1.00
C487   C     0.16641   0.83338   0.38385   0.00000  Uiso   1.00
C488   C     0.16634   0.83365   0.11612   0.00000  Uiso   1.00
C489   C     0.14047   0.80286   0.40690   0.00000  Uiso   1.00
C490   C     0.19114   0.86538   0.09304   0.00000  Uiso   1.00
C491   C     0.13950   0.80357   0.45330   0.00000  Uiso   1.00
C492   C     0.19117   0.86570   0.04665   0.00000  Uiso   1.00
C493   C     0.16523   0.83489   0.47663   0.00000  Uiso   1.00
C494   C     0.16508   0.83477   0.02332   0.00000  Uiso   1.00
C495   C     0.19162   0.86571   0.45322   0.00000  Uiso   1.00
C496   C     0.13925   0.80334   0.04673   0.00000  Uiso   1.00
C497   C     0.11341   0.77322   0.47659   0.00000  Uiso   1.00
C498   C     0.21721   0.89611   0.02336   0.00000  Uiso   1.00
Cu499  Cu    0.16667   0.88022   0.25000   0.00000  Uiso   1.00
Cu500  Cu    0.16667   0.78645   0.25000   0.00000  Uiso   1.00
H501   H     0.21190   0.88757   0.38795   0.00000  Uiso   1.00
H502   H     0.12171   0.77846   0.11199   0.00000  Uiso   1.00
H503   H     0.12079   0.77899   0.38864   0.00000  Uiso   1.00
H504   H     0.21097   0.88913   0.11129   0.00000  Uiso   1.00
H505   H     0.09401   0.74884   0.45863   0.00000  Uiso   1.00
H506   H     0.23799   0.91899   0.04131   0.00000  Uiso   1.00
H507   H     0.03745   0.75759   0.24702   0.00000  Uiso   1.00
H508   H     0.29589   0.90909   0.25196   0.00000  Uiso   1.00
H509   H     0.29614   0.75755   0.24717   0.00000  Uiso   1.00
H510   H     0.03718   0.90912   0.25183   0.00000  Uiso   1.00
H511   H     0.12059   0.71039   0.20013   0.00000  Uiso   1.00
H512   H     0.21269   0.95627   0.29993   0.00000  Uiso   1.00
H513   H     0.21271   0.70992   0.29991   0.00000  Uiso   1.00
H514   H     0.12059   0.95674   0.20014   0.00000  Uiso   1.00
N515   N     0.16667   0.95069   0.25000   0.00000  Uiso   1.00
N516   N     0.16667   0.71598   0.25000   0.00000  Uiso   1.00
O517   O     0.10655   0.87291   0.24999   0.00000  Uiso   1.00
O518   O     0.22679   0.79375   0.25000   0.00000  Uiso   1.00
O519   O     0.22679   0.87291   0.25000   0.00000  Uiso   1.00
O520   O     0.10655   0.79375   0.25000   0.00000  Uiso   1.00
O521   O     0.16666   0.87293   0.18513   0.00000  Uiso   1.00
O522   O     0.16668   0.79373   0.31487   0.00000  Uiso   1.00
O523   O     0.16668   0.87293   0.31487   0.00000  Uiso   1.00
O524   O     0.16666   0.79373   0.18513   0.00000  Uiso   1.00
O525   O     0.08720   0.74254   0.04602   0.00000  Uiso   1.00
C526   C     0.04534   0.75603   0.04186   0.00000  Uiso   1.00
H527   H     0.02635   0.72399   0.04594   0.00000  Uiso   1.00
H528   H     0.03744   0.77067   0.00845   0.00000  Uiso   1.00
C529   C     0.03347   0.79083   0.07852   0.00000  Uiso   1.00
H530   H     0.04091   0.77551   0.11164   0.00000  Uiso   1.00
H531   H     0.05141   0.82364   0.07439   0.00000  Uiso   1.00
C532   C     0.32095   0.80270   0.07685   0.00000  Uiso   1.00
H533   H     0.31291   0.81893   0.04431   0.00000  Uiso   1.00
H534   H     0.31340   0.82786   0.10378   0.00000  Uiso   1.00
H535   H     0.30221   0.77060   0.08172   0.00000  Uiso   1.00
O536   O     0.24547   0.92441   0.45411   0.00000  Uiso   1.00
C537   C     0.23421   0.97225   0.45666   0.00000  Uiso   1.00
H538   H     0.26307   0.99301   0.45829   0.00000  Uiso   1.00
H539   H     0.21612   0.98146   0.48701   0.00000  Uiso   1.00
C540   C     0.21036   0.98665   0.41476   0.00000  Uiso   1.00
H541   H     0.22847   0.97720   0.38470   0.00000  Uiso   1.00
H542   H     0.18055   0.96764   0.41367   0.00000  Uiso   1.00
C543   C     0.20184   0.70580   0.41407   0.00000  Uiso   1.00
H544   H     0.18397   0.71596   0.44402   0.00000  Uiso   1.00
H545   H     0.18370   0.71484   0.38388   0.00000  Uiso   1.00
H546   H     0.23118   0.72573   0.41335   0.00000  Uiso   1.00
C547   C     0.42069   0.83336   0.24982   0.00000  Uiso   1.00
C548   C     0.57931   0.83331   0.24992   0.00000  Uiso   1.00
C549   C     0.44558   0.77370   0.02325   0.00000  Uiso   1.00
C550   C     0.55058   0.89687   0.47670   0.00000  Uiso   1.00
C551   C     0.35470   0.79082   0.24813   0.00000  Uiso   1.00
C552   C     0.64530   0.87585   0.25086   0.00000  Uiso   1.00
C553   C     0.64544   0.79079   0.24821   0.00000  Uiso   1.00
C554   C     0.35455   0.87588   0.25078   0.00000  Uiso   1.00
C555   C     0.62392   0.83330   0.24967   0.00000  Uiso   1.00
C556   C     0.37608   0.83336   0.24955   0.00000  Uiso   1.00
C557   C     0.47442   0.69160   0.22232   0.00000  Uiso   1.00
C558   C     0.52554   0.97507   0.27773   0.00000  Uiso   1.00
C559   C     0.52555   0.69134   0.27772   0.00000  Uiso   1.00
C560   C     0.47442   0.97533   0.22232   0.00000  Uiso   1.00
C561   C     0.50001   0.83340   0.16439   0.00000  Uiso   1.00
C562   C     0.49996   0.83329   0.33560   0.00000  Uiso   1.00
C563   C     0.52512   0.86462   0.40671   0.00000  Uiso   1.00
C564   C     0.47418   0.80252   0.09325   0.00000  Uiso   1.00
C565   C     0.49975   0.83338   0.38385   0.00000  Uiso   1.00
C566   C     0.49968   0.83365   0.11612   0.00000  Uiso   1.00
C567   C     0.47381   0.80286   0.40690   0.00000  Uiso   1.00
C568   C     0.52448   0.86538   0.09304   0.00000  Uiso   1.00
C569   C     0.47284   0.80357   0.45330   0.00000  Uiso   1.00
C570   C     0.52451   0.86570   0.04665   0.00000  Uiso   1.00
C571   C     0.49857   0.83489   0.47663   0.00000  Uiso   1.00
C572   C     0.49841   0.83477   0.02332   0.00000  Uiso   1.00
C573   C     0.52496   0.86571   0.45322   0.00000  Uiso   1.00
C574   C     0.47259   0.80334   0.04673   0.00000  Uiso   1.00
C575   C     0.44674   0.77322   0.47659   0.00000  Uiso   1.00
C576   C     0.55055   0.89611   0.02336   0.00000  Uiso   1.00
Cu577  Cu    0.50000   0.88022   0.25000   0.00000  Uiso   1.00
Cu578  Cu    0.50000   0.78645   0.25000   0.00000  Uiso   1.00
H579   H     0.54524   0.88757   0.38795   0.00000  Uiso   1.00
H580   H     0.45505   0.77846   0.11199   0.00000  Uiso   1.00
H581   H     0.45412   0.77899   0.38864   0.00000  Uiso   1.00
H582   H     0.54430   0.88913   0.11129   0.00000  Uiso   1.00
H583   H     0.42735   0.74884   0.45863   0.00000  Uiso   1.00
H584   H     0.57133   0.91899   0.04131   0.00000  Uiso   1.00
H585   H     0.37078   0.75759   0.24702   0.00000  Uiso   1.00
H586   H     0.62922   0.90909   0.25196   0.00000  Uiso   1.00
H587   H     0.62948   0.75755   0.24717   0.00000  Uiso   1.00
H588   H     0.37052   0.90912   0.25183   0.00000  Uiso   1.00
H589   H     0.45393   0.71039   0.20013   0.00000  Uiso   1.00
H590   H     0.54602   0.95627   0.29993   0.00000  Uiso   1.00
H591   H     0.54605   0.70992   0.29991   0.00000  Uiso   1.00
H592   H     0.45392   0.95674   0.20014   0.00000  Uiso   1.00
N593   N     0.50000   0.95069   0.25000   0.00000  Uiso   1.00
N594   N     0.50000   0.71598   0.25000   0.00000  Uiso   1.00
O595   O     0.43988   0.87291   0.24999   0.00000  Uiso   1.00
O596   O     0.56012   0.79375   0.25000   0.00000  Uiso   1.00
O597   O     0.56012   0.87291   0.25000   0.00000  Uiso   1.00
O598   O     0.43988   0.79375   0.25000   0.00000  Uiso   1.00
O599   O     0.49999   0.87293   0.18513   0.00000  Uiso   1.00
O600   O     0.50001   0.79373   0.31487   0.00000  Uiso   1.00
O601   O     0.50001   0.87293   0.31487   0.00000  Uiso   1.00
O602   O     0.49999   0.79373   0.18513   0.00000  Uiso   1.00
O603   O     0.42053   0.74254   0.04602   0.00000  Uiso   1.00
C604   C     0.37867   0.75603   0.04186   0.00000  Uiso   1.00
H605   H     0.35968   0.72399   0.04594   0.00000  Uiso   1.00
H606   H     0.37077   0.77067   0.00845   0.00000  Uiso   1.00
C607   C     0.36680   0.79083   0.07852   0.00000  Uiso   1.00
H608   H     0.37424   0.77551   0.11164   0.00000  Uiso   1.00
H609   H     0.38475   0.82364   0.07439   0.00000  Uiso   1.00
C610   C     0.65429   0.80270   0.07685   0.00000  Uiso   1.00
H611   H     0.64625   0.81893   0.04431   0.00000  Uiso   1.00
H612   H     0.64673   0.82786   0.10378   0.00000  Uiso   1.00
H613   H     0.63554   0.77060   0.08172   0.00000  Uiso   1.00
O614   O     0.57880   0.92441   0.45411   0.00000  Uiso   1.00
C615   C     0.56754   0.97225   0.45666   0.00000  Uiso   1.00
H616   H     0.59641   0.99301   0.45829   0.00000  Uiso   1.00
H617   H     0.54945   0.98146   0.48701   0.00000  Uiso   1.00
C618   C     0.54370   0.98665   0.41476   0.00000  Uiso   1.00
H619   H     0.56180   0.97720   0.38470   0.00000  Uiso   1.00
H620   H     0.51388   0.96764   0.41367   0.00000  Uiso   1.00
C621   C     0.53518   0.70580   0.41407   0.00000  Uiso   1.00
H622   H     0.51731   0.71596   0.44402   0.00000  Uiso   1.00
H623   H     0.51704   0.71484   0.38388   0.00000  Uiso   1.00
H624   H     0.56451   0.72573   0.41335   0.00000  Uiso   1.00
C625   C     0.75403   0.83336   0.24982   0.00000  Uiso   1.00
C626   C     0.91264   0.83331   0.24992   0.00000  Uiso   1.00
C627   C     0.77892   0.77370   0.02325   0.00000  Uiso   1.00
C628   C     0.88391   0.89687   0.47670   0.00000  Uiso   1.00
C629   C     0.68803   0.79082   0.24813   0.00000  Uiso   1.00
C630   C     0.97863   0.87585   0.25086   0.00000  Uiso   1.00
C631   C     0.97878   0.79079   0.24821   0.00000  Uiso   1.00
C632   C     0.68789   0.87588   0.25078   0.00000  Uiso   1.00
C633   C     0.95725   0.83330   0.24967   0.00000  Uiso   1.00
C634   C     0.70941   0.83336   0.24955   0.00000  Uiso   1.00
C635   C     0.80775   0.69160   0.22232   0.00000  Uiso   1.00
C636   C     0.85888   0.97507   0.27773   0.00000  Uiso   1.00
C637   C     0.85889   0.69134   0.27772   0.00000  Uiso   1.00
C638   C     0.80775   0.97533   0.22232   0.00000  Uiso   1.00
C639   C     0.83334   0.83340   0.16439   0.00000  Uiso   1.00
C640   C     0.83329   0.83329   0.33560   0.00000  Uiso   1.00
C641   C     0.85845   0.86462   0.40671   0.00000  Uiso   1.00
C642   C     0.80751   0.80252   0.09325   0.00000  Uiso   1.00
C643   C     0.83308   0.83338   0.38385   0.00000  Uiso   1.00
C644   C     0.83301   0.83365   0.11612   0.00000  Uiso   1.00
C645   C     0.80714   0.80286   0.40690   0.00000  Uiso   1.00
C646   C     0.85781   0.86538   0.09304   0.00000  Uiso   1.00
C647   C     0.80617   0.80357   0.45330   0.00000  Uiso   1.00
C648   C     0.85784   0.86570   0.04665   0.00000  Uiso   1.00
C649   C     0.83190   0.83489   0.47663   0.00000  Uiso   1.00
C650   C     0.83175   0.83477   0.02332   0.00000  Uiso   1.00
C651   C     0.85829   0.86571   0.45322   0.00000  Uiso   1.00
C652   C     0.80592   0.80334   0.04673   0.00000  Uiso   1.00
C653   C     0.78008   0.77322   0.47659   0.00000  Uiso   1.00
C654   C     0.88388   0.89611   0.02336   0.00000  Uiso   1.00
Cu655  Cu    0.83333   0.88022   0.25000   0.00000  Uiso   1.00
Cu656  Cu    0.83333   0.78645   0.25000   0.00000  Uiso   1.00
H657   H     0.87857   0.88757   0.38795   0.00000  Uiso   1.00
H658   H     0.78838   0.77846   0.11199   0.00000  Uiso   1.00
H659   H     0.78746   0.77899   0.38864   0.00000  Uiso   1.00
H660   H     0.87763   0.88913   0.11129   0.00000  Uiso   1.00
H661   H     0.76068   0.74884   0.45863   0.00000  Uiso   1.00
H662   H     0.90466   0.91899   0.04131   0.00000  Uiso   1.00
H663   H     0.70412   0.75759   0.24702   0.00000  Uiso   1.00
H664   H     0.96255   0.90909   0.25196   0.00000  Uiso   1.00
H665   H     0.96281   0.75755   0.24717   0.00000  Uiso   1.00
H666   H     0.70385   0.90912   0.25183   0.00000  Uiso   1.00
H667   H     0.78726   0.71039   0.20013   0.00000  Uiso   1.00
H668   H     0.87935   0.95627   0.29993   0.00000  Uiso   1.00
H669   H     0.87938   0.70992   0.29991   0.00000  Uiso   1.00
H670   H     0.78726   0.95674   0.20014   0.00000  Uiso   1.00
N671   N     0.83333   0.95069   0.25000   0.00000  Uiso   1.00
N672   N     0.83333   0.71598   0.25000   0.00000  Uiso   1.00
O673   O     0.77321   0.87291   0.24999   0.00000  Uiso   1.00
O674   O     0.89345   0.79375   0.25000   0.00000  Uiso   1.00
O675   O     0.89345   0.87291   0.25000   0.00000  Uiso   1.00
O676   O     0.77321   0.79375   0.25000   0.00000  Uiso   1.00
O677   O     0.83332   0.87293   0.18513   0.00000  Uiso   1.00
O678   O     0.83334   0.79373   0.31487   0.00000  Uiso   1.00
O679   O     0.83334   0.87293   0.31487   0.00000  Uiso   1.00
O680   O     0.83332   0.79373   0.18513   0.00000  Uiso   1.00
O681   O     0.75387   0.74254   0.04602   0.00000  Uiso   1.00
C682   C     0.71200   0.75603   0.04186   0.00000  Uiso   1.00
H683   H     0.69301   0.72399   0.04594   0.00000  Uiso   1.00
H684   H     0.70410   0.77067   0.00845   0.00000  Uiso   1.00
C685   C     0.70014   0.79083   0.07852   0.00000  Uiso   1.00
H686   H     0.70758   0.77551   0.11164   0.00000  Uiso   1.00
H687   H     0.71808   0.82364   0.07439   0.00000  Uiso   1.00
C688   C     0.98762   0.80270   0.07685   0.00000  Uiso   1.00
H689   H     0.97958   0.81893   0.04431   0.00000  Uiso   1.00
H690   H     0.98007   0.82786   0.10378   0.00000  Uiso   1.00
H691   H     0.96888   0.77060   0.08172   0.00000  Uiso   1.00
O692   O     0.91214   0.92441   0.45411   0.00000  Uiso   1.00
C693   C     0.90087   0.97225   0.45666   0.00000  Uiso   1.00
H694   H     0.92974   0.99301   0.45829   0.00000  Uiso   1.00
H695   H     0.88279   0.98146   0.48701   0.00000  Uiso   1.00
C696   C     0.87703   0.98665   0.41476   0.00000  Uiso   1.00
H697   H     0.89514   0.97720   0.38470   0.00000  Uiso   1.00
H698   H     0.84722   0.96764   0.41367   0.00000  Uiso   1.00
C699   C     0.86851   0.70580   0.41407   0.00000  Uiso   1.00
H700   H     0.85064   0.71596   0.44402   0.00000  Uiso   1.00
H701   H     0.85037   0.71484   0.38388   0.00000  Uiso   1.00
H702   H     0.89784   0.72573   0.41335   0.00000  Uiso   1.00
C703   C     0.08736   0.16669   0.74982   0.00000  Uiso   1.00
C704   C     0.24597   0.16664   0.74992   0.00000  Uiso   1.00
C705   C     0.11225   0.10704   0.52325   0.00000  Uiso   1.00
C706   C     0.21725   0.23021   0.97670   0.00000  Uiso   1.00
C707   C     0.02137   0.12416   0.74813   0.00000  Uiso   1.00
C708   C     0.31197   0.20918   0.75086   0.00000  Uiso   1.00
C709   C     0.31211   0.12413   0.74821   0.00000  Uiso   1.00
C710   C     0.02122   0.20921   0.75078   0.00000  Uiso   1.00
C711   C     0.29059   0.16664   0.74967   0.00000  Uiso   1.00
C712   C     0.04274   0.16670   0.74955   0.00000  Uiso   1.00
C713   C     0.14109   0.02493   0.72232   0.00000  Uiso   1.00
C714   C     0.19221   0.30840   0.77773   0.00000  Uiso   1.00
C715   C     0.19222   0.02467   0.77772   0.00000  Uiso   1.00
C716   C     0.14109   0.30866   0.72232   0.00000  Uiso   1.00
C717   C     0.16668   0.16673   0.66439   0.00000  Uiso   1.00
C718   C     0.16662   0.16662   0.83560   0.00000  Uiso   1.00
C719   C     0.19178   0.19795   0.90671   0.00000  Uiso   1.00
C720   C     0.14084   0.13585   0.59325   0.00000  Uiso   1.00
C721   C     0.16641   0.16671   0.88385   0.00000  Uiso   1.00
C722   C     0.16634   0.16698   0.61612   0.00000  Uiso   1.00
C723   C     0.14047   0.13620   0.90690   0.00000  Uiso   1.00
C724   C     0.19114   0.19872   0.59304   0.00000  Uiso   1.00
C725   C     0.13950   0.13690   0.95330   0.00000  Uiso   1.00
C726   C     0.19117   0.19903   0.54665   0.00000  Uiso   1.00
C727   C     0.16523   0.16822   0.97663   0.00000  Uiso   1.00
C728   C     0.16508   0.16810   0.52332   0.00000  Uiso   1.00
C729   C     0.19162   0.19904   0.95322   0.00000  Uiso   1.00
C730   C     0.13925   0.13667   0.54673   0.00000  Uiso   1.00
C731   C     0.11341   0.10655   0.97659   0.00000  Uiso   1.00
C732   C     0.21721   0.22944   0.52336   0.00000  Uiso   1.00
Cu733  Cu    0.16667   0.21355   0.75000   0.00000  Uiso   1.00
Cu734  Cu    0.16667   0.11978   0.75000   0.00000  Uiso   1.00
H735   H     0.21190   0.22091   0.88795   0.00000  Uiso   1.00
H736   H     0.12171   0.11179   0.61199   0.00000  Uiso   1.00
H737   H     0.12079   0.11232   0.88864   0.00000  Uiso   1.00
H738   H     0.21097   0.22247   0.61129   0.00000  Uiso   1.00
H739   H     0.09401   0.08217   0.95863   0.00000  Uiso   1.00
H740   H     0.23799   0.25232   0.54131   0.00000  Uiso   1.00
H741   H     0.03745   0.09092   0.74702   0.00000  Uiso   1.00
H742   H     0.29589   0.24242   0.75196   0.00000  Uiso   1.00
H743   H     0.29614   0.09088   0.74717   0.00000  Uiso   1.00
H744   H     0.03718   0.24246   0.75183   0.00000  Uiso   1.00
H745   H     0.12059   0.04373   0.70013   0.00000  Uiso   1.00
H746   H     0.21269   0.28961   0.79993   0.00000  Uiso   1.00
H747   H     0.21271   0.04325   0.79991   0.00000  Uiso   1.00
H748   H     0.12059   0.29007   0.70014   0.00000  Uiso   1.00
N749   N     0.16667   0.28402   0.75000   0.00000  Uiso   1.00
N750   N     0.16667   0.04931   0.75000   0.00000  Uiso   1.00
O751   O     0.10655   0.20625   0.74999   0.00000  Uiso   1.00
O752   O     0.22679   0.12709   0.75000   0.00000  Uiso   1.00
O753   O     0.22679   0.20625   0.75000   0.00000  Uiso   1.00
O754   O     0.10655   0.12709   0.75000   0.00000  Uiso   1.00
O755   O     0.16666   0.20627   0.68513   0.00000  Uiso   1.00
O756   O     0.16668   0.12707   0.81487   0.00000  Uiso   1.00
O757   O     0.16668   0.20627   0.81487   0.00000  Uiso   1.00
O758   O     0.16666   0.12707   0.68513   0.00000  Uiso   1.00
O759   O     0.08720   0.07587   0.54602   0.00000  Uiso   1.00
C760   C     0.04534   0.08936   0.54186   0.00000  Uiso   1.00
H761   H     0.02635   0.05732   0.54594   0.00000  Uiso   1.00
H762   H     0.03744   0.10400   0.50845   0.00000  Uiso   1.00
C763   C     0.03347   0.12417   0.57852   0.00000  Uiso   1.00
H764   H     0.04091   0.10884   0.61164   0.00000  Uiso   1.00
H765   H     0.05141   0.15698   0.57439   0.00000  Uiso   1.00
C766   C     0.32095   0.13603   0.57685   0.00000  Uiso   1.00
H767   H     0.31291   0.15226   0.54431   0.00000  Uiso   1.00
H768   H     0.31340   0.16119   0.60378   0.00000  Uiso   1.00
H769   H     0.30221   0.10393   0.58172   0.00000  Uiso   1.00
O770   O     0.24547   0.25774   0.95411   0.00000  Uiso   1.00
C771   C     0.23421   0.30558   0.95666   0.00000  Uiso   1.00
H772   H     0.26307   0.32634   0.95829   0.00000  Uiso   1.00
H773   H     0.21612   0.31479   0.98701   0.00000  Uiso   1.00
C774   C     0.21036   0.31998   0.91476   0.00000  Uiso   1.00
H775   H     0.22847   0.31053   0.88470   0.00000  Uiso   1.00
H776   H     0.18055   0.30098   0.91367   0.00000  Uiso   1.00
C777   C     0.20184   0.03913   0.91407   0.00000  Uiso   1.00
H778   H     0.18397   0.04930   0.94402   0.00000  Uiso   1.00
H779   H     0.18370   0.04818   0.88388   0.00000  Uiso   1.00
H780   H     0.23118   0.05906   0.91335   0.00000  Uiso   1.00
C781   C     0.42069   0.16669   0.74982   0.00000  Uiso   1.00
C782   C     0.57931   0.16664   0.74992   0.00000  Uiso   1.00
C783   C     0.44558   0.10704   0.52325   0.00000  Uiso   1.00
C784   C     0.55058   0.23021   0.97670   0.00000  Uiso   1.00
C785   C     0.35470   0.12416   0.74813   0.00000  Uiso   1.00
C786   C     0.64530   0.20918   0.75086   0.00000  Uiso   1.00
C787   C     0.64544   0.12413   0.74821   0.00000  Uiso   1.00
C788   C     0.35455   0.20921   0.75078   0.00000  Uiso   1.00
C789   C     0.62392   0.16664   0.74967   0.00000  Uiso   1.00
C790   C     0.37608   0.16670   0.74955   0.00000  Uiso   1.00
C791   C     0.47442   0.02493   0.72232   0.00000  Uiso   1.00
C792   C     0.52554   0.30840   0.77773   0.00000  Uiso   1.00
C793   C     0.52555   0.02467   0.77772   0.00000  Uiso   1.00
C794   C     0.47442   0.30866   0.72232   0.00000  Uiso   1.00
C795   C     0.50001   0.16673   0.66439   0.00000  Uiso   1.00
C796   C     0.49996   0.16662   0.83560   0.00000  Uiso   1.00
C797   C     0.52512   0.19795   0.90671   0.00000  Uiso   1.00
C798   C     0.47418   0.13585   0.59325   0.00000  Uiso   1.00
C799   C     0.49975   0.16671   0.88385   0.00000  Uiso   1.00
C800   C     0.49968   0.16698   0.61612   0.00000  Uiso   1.00
C801   C     0.47381   0.13620   0.90690   0.00000  Uiso   1.00
C802   C     0.52448   0.19872   0.59304   0.00000  Uiso   1.00
C803   C     0.47284   0.13690   0.95330   0.00000  Uiso   1.00
C804   C     0.52451   0.19903   0.54665   0.00000  Uiso   1.00
C805   C     0.49857   0.16822   0.97663   0.00000  Uiso   1.00
C806   C     0.49841   0.16810   0.52332   0.00000  Uiso   1.00
C807   C     0.52496   0.19904   0.95322   0.00000  Uiso   1.00
C808   C     0.47259   0.13667   0.54673   0.00000  Uiso   1.00
C809   C     0.44674   0.10655   0.97659   0.00000  Uiso   1.00
C810   C     0.55055   0.22944   0.52336   0.00000  Uiso   1.00
Cu811  Cu    0.50000   0.21355   0.75000   0.00000  Uiso   1.00
Cu812  Cu    0.50000   0.11978   0.75000   0.00000  Uiso   1.00
H813   H     0.54524   0.22091   0.88795   0.00000  Uiso   1.00
H814   H     0.45505   0.11179   0.61199   0.00000  Uiso   1.00
H815   H     0.45412   0.11232   0.88864   0.00000  Uiso   1.00
H816   H     0.54430   0.22247   0.61129   0.00000  Uiso   1.00
H817   H     0.42735   0.08217   0.95863   0.00000  Uiso   1.00
H818   H     0.57133   0.25232   0.54131   0.00000  Uiso   1.00
H819   H     0.37078   0.09092   0.74702   0.00000  Uiso   1.00
H820   H     0.62922   0.24242   0.75196   0.00000  Uiso   1.00
H821   H     0.62948   0.09088   0.74717   0.00000  Uiso   1.00
H822   H     0.37052   0.24246   0.75183   0.00000  Uiso   1.00
H823   H     0.45393   0.04373   0.70013   0.00000  Uiso   1.00
H824   H     0.54602   0.28961   0.79993   0.00000  Uiso   1.00
H825   H     0.54605   0.04325   0.79991   0.00000  Uiso   1.00
H826   H     0.45392   0.29007   0.70014   0.00000  Uiso   1.00
N827   N     0.50000   0.28402   0.75000   0.00000  Uiso   1.00
N828   N     0.50000   0.04931   0.75000   0.00000  Uiso   1.00
O829   O     0.43988   0.20625   0.74999   0.00000  Uiso   1.00
O830   O     0.56012   0.12709   0.75000   0.00000  Uiso   1.00
O831   O     0.56012   0.20625   0.75000   0.00000  Uiso   1.00
O832   O     0.43988   0.12709   0.75000   0.00000  Uiso   1.00
O833   O     0.49999   0.20627   0.68513   0.00000  Uiso   1.00
O834   O     0.50001   0.12707   0.81487   0.00000  Uiso   1.00
O835   O     0.50001   0.20627   0.81487   0.00000  Uiso   1.00
O836   O     0.49999   0.12707   0.68513   0.00000  Uiso   1.00
O837   O     0.42053   0.07587   0.54602   0.00000  Uiso   1.00
C838   C     0.37867   0.08936   0.54186   0.00000  Uiso   1.00
H839   H     0.35968   0.05732   0.54594   0.00000  Uiso   1.00
H840   H     0.37077   0.10400   0.50845   0.00000  Uiso   1.00
C841   C     0.36680   0.12417   0.57852   0.00000  Uiso   1.00
H842   H     0.37424   0.10884   0.61164   0.00000  Uiso   1.00
H843   H     0.38475   0.15698   0.57439   0.00000  Uiso   1.00
C844   C     0.65429   0.13603   0.57685   0.00000  Uiso   1.00
H845   H     0.64625   0.15226   0.54431   0.00000  Uiso   1.00
H846   H     0.64673   0.16119   0.60378   0.00000  Uiso   1.00
H847   H     0.63554   0.10393   0.58172   0.00000  Uiso   1.00
O848   O     0.57880   0.25774   0.95411   0.00000  Uiso   1.00
C849   C     0.56754   0.30558   0.95666   0.00000  Uiso   1.00
H850   H     0.59641   0.32634   0.95829   0.00000  Uiso   1.00
H851   H     0.54945   0.31479   0.98701   0.00000  Uiso   1.00
C852   C     0.54370   0.31998   0.91476   0.00000  Uiso   1.00
H853   H     0.56180   0.31053   0.88470   0.00000  Uiso   1.00
H854   H     0.51388   0.30098   0.91367   0.00000  Uiso   1.00
C855   C     0.53518   0.03913   0.91407   0.00000  Uiso   1.00
H856   H     0.51731   0.04930   0.94402   0.00000  Uiso   1.00
H857   H     0.51704   0.04818   0.88388   0.00000  Uiso   1.00
H858   H     0.56451   0.05906   0.91335   0.00000  Uiso   1.00
C859   C     0.75403   0.16669   0.74982   0.00000  Uiso   1.00
C860   C     0.91264   0.16664   0.74992   0.00000  Uiso   1.00
C861   C     0.77892   0.10704   0.52325   0.00000  Uiso   1.00
C862   C     0.88391   0.23021   0.97670   0.00000  Uiso   1.00
C863   C     0.68803   0.12416   0.74813   0.00000  Uiso   1.00
C864   C     0.97863   0.20918   0.75086   0.00000  Uiso   1.00
C865   C     0.97878   0.12413   0.74821   0.00000  Uiso   1.00
C866   C     0.68789   0.20921   0.75078   0.00000  Uiso   1.00
C867   C     0.95725   0.16664   0.74967   0.00000  Uiso   1.00
C868   C     0.70941   0.16670   0.74955   0.00000  Uiso   1.00
C869   C     0.80775   0.02493   0.72232   0.00000  Uiso   1.00
C870   C     0.85888   0.30840   0.77773   0.00000  Uiso   1.00
C871   C     0.85889   0.02467   0.77772   0.00000  Uiso   1.00
C872   C     0.80775   0.30866   0.72232   0.00000  Uiso   1.00
C873   C     0.83334   0.16673   0.66439   0.00000  Uiso   1.00
C874   C     0.83329   0.16662   0.83560   0.00000  Uiso   1.00
C875   C     0.85845   0.19795   0.90671   0.00000  Uiso   1.00
C876   C     0.80751   0.13585   0.59325   0.00000  Uiso   1.00
C877   C     0.83308   0.16671   0.88385   0.00000  Uiso   1.00
C878   C     0.83301   0.16698   0.61612   0.00000  Uiso   1.00
C879   C     0.80714   0.13620   0.90690   0.00000  Uiso   1.00
C880   C     0.85781   0.19872   0.59304   0.00000  Uiso   1.00
C881   C     0.80617   0.13690   0.95330   0.00000  Uiso   1.00
C882   C     0.85784   0.19903   0.54665   0.00000  Uiso   1.00
C883   C     0.83190   0.16822   0.97663   0.00000  Uiso   1.00
C884   C     0.83175   0.16810   0.52332   0.00000  Uiso   1.00
C885   C     0.85829   0.19904   0.95322   0.00000  Uiso   1.00
C886   C     0.80592   0.13667   0.54673   0.00000  Uiso   1.00
C887   C     0.78008   0.10655   0.97659   0.00000  Uiso   1.00
C888   C     0.88388   0.22944   0.52336   0.00000  Uiso   1.00
Cu889  Cu    0.83333   0.21355   0.75000   0.00000  Uiso   1.00
Cu890  Cu    0.83333   0.11978   0.75000   0.00000  Uiso   1.00
H891   H     0.87857   0.22091   0.88795   0.00000  Uiso   1.00
H892   H     0.78838   0.11179   0.61199   0.00000  Uiso   1.00
H893   H     0.78746   0.11232   0.88864   0.00000  Uiso   1.00
H894   H     0.87763   0.22247   0.61129   0.00000  Uiso   1.00
H895   H     0.76068   0.08217   0.95863   0.00000  Uiso   1.00
H896   H     0.90466   0.25232   0.54131   0.00000  Uiso   1.00
H897   H     0.70412   0.09092   0.74702   0.00000  Uiso   1.00
H898   H     0.96255   0.24242   0.75196   0.00000  Uiso   1.00
H899   H     0.96281   0.09088   0.74717   0.00000  Uiso   1.00
H900   H     0.70385   0.24246   0.75183   0.00000  Uiso   1.00
H901   H     0.78726   0.04373   0.70013   0.00000  Uiso   1.00
H902   H     0.87935   0.28961   0.79993   0.00000  Uiso   1.00
H903   H     0.87938   0.04325   0.79991   0.00000  Uiso   1.00
H904   H     0.78726   0.29007   0.70014   0.00000  Uiso   1.00
N905   N     0.83333   0.28402   0.75000   0.00000  Uiso   1.00
N906   N     0.83333   0.04931   0.75000   0.00000  Uiso   1.00
O907   O     0.77321   0.20625   0.74999   0.00000  Uiso   1.00
O908   O     0.89345   0.12709   0.75000   0.00000  Uiso   1.00
O909   O     0.89345   0.20625   0.75000   0.00000  Uiso   1.00
O910   O     0.77321   0.12709   0.75000   0.00000  Uiso   1.00
O911   O     0.83332   0.20627   0.68513   0.00000  Uiso   1.00
O912   O     0.83334   0.12707   0.81487   0.00000  Uiso   1.00
O913   O     0.83334   0.20627   0.81487   0.00000  Uiso   1.00
O914   O     0.83332   0.12707   0.68513   0.00000  Uiso   1.00
O915   O     0.75387   0.07587   0.54602   0.00000  Uiso   1.00
C916   C     0.71200   0.08936   0.54186   0.00000  Uiso   1.00
H917   H     0.69301   0.05732   0.54594   0.00000  Uiso   1.00
H918   H     0.70410   0.10400   0.50845   0.00000  Uiso   1.00
C919   C     0.70014   0.12417   0.57852   0.00000  Uiso   1.00
H920   H     0.70758   0.10884   0.61164   0.00000  Uiso   1.00
H921   H     0.71808   0.15698   0.57439   0.00000  Uiso   1.00
C922   C     0.98762   0.13603   0.57685   0.00000  Uiso   1.00
H923   H     0.97958   0.15226   0.54431   0.00000  Uiso   1.00
H924   H     0.98007   0.16119   0.60378   0.00000  Uiso   1.00
H925   H     0.96888   0.10393   0.58172   0.00000  Uiso   1.00
O926   O     0.91214   0.25774   0.95411   0.00000  Uiso   1.00
C927   C     0.90087   0.30558   0.95666   0.00000  Uiso   1.00
H928   H     0.92974   0.32634   0.95829   0.00000  Uiso   1.00
H929   H     0.88279   0.31479   0.98701   0.00000  Uiso   1.00
C930   C     0.87703   0.31998   0.91476   0.00000  Uiso   1.00
H931   H     0.89514   0.31053   0.88470   0.00000  Uiso   1.00
H932   H     0.84722   0.30098   0.91367   0.00000  Uiso   1.00
C933   C     0.86851   0.03913   0.91407   0.00000  Uiso   1.00
H934   H     0.85064   0.04930   0.94402   0.00000  Uiso   1.00
H935   H     0.85037   0.04818   0.88388   0.00000  Uiso   1.00
H936   H     0.89784   0.05906   0.91335   0.00000  Uiso   1.00
C937   C     0.08736   0.50002   0.74982   0.00000  Uiso   1.00
C938   C     0.24597   0.49997   0.74992   0.00000  Uiso   1.00
C939   C     0.11225   0.44037   0.52325   0.00000  Uiso   1.00
C940   C     0.21725   0.56354   0.97670   0.00000  Uiso   1.00
C941   C     0.02137   0.45749   0.74813   0.00000  Uiso   1.00
C942   C     0.31197   0.54251   0.75086   0.00000  Uiso   1.00
C943   C     0.31211   0.45746   0.74821   0.00000  Uiso   1.00
C944   C     0.02122   0.54254   0.75078   0.00000  Uiso   1.00
C945   C     0.29059   0.49997   0.74967   0.00000  Uiso   1.00
C946   C     0.04274   0.50003   0.74955   0.00000  Uiso   1.00
C947   C     0.14109   0.35826   0.72232   0.00000  Uiso   1.00
C948   C     0.19221   0.64173   0.77773   0.00000  Uiso   1.00
C949   C     0.19222   0.35801   0.77772   0.00000  Uiso   1.00
C950   C     0.14109   0.64199   0.72232   0.00000  Uiso   1.00
C951   C     0.16668   0.50007   0.66439   0.00000  Uiso   1.00
C952   C     0.16662   0.49996   0.83560   0.00000  Uiso   1.00
C953   C     0.19178   0.53129   0.90671   0.00000  Uiso   1.00
C954   C     0.14084   0.46919   0.59325   0.00000  Uiso   1.00
C955   C     0.16641   0.50004   0.88385   0.00000  Uiso   1.00
C956   C     0.16634   0.50032   0.61612   0.00000  Uiso   1.00
C957   C     0.14047   0.46953   0.90690   0.00000  Uiso   1.00
C958   C     0.19114   0.53205   0.59304   0.00000  Uiso   1.00
C959   C     0.13950   0.47023   0.95330   0.00000  Uiso   1.00
C960   C     0.19117   0.53237   0.54665   0.00000  Uiso   1.00
C961   C     0.16523   0.50155   0.97663   0.00000  Uiso   1.00
C962   C     0.16508   0.50143   0.52332   0.00000  Uiso   1.00
C963   C     0.19162   0.53237   0.95322   0.00000  Uiso   1.00
C964   C     0.13925   0.47001   0.54673   0.00000  Uiso   1.00
C965   C     0.11341   0.43989   0.97659   0.00000  Uiso   1.00
C966   C     0.21721   0.56277   0.52336   0.00000  Uiso   1.00
Cu967  Cu    0.16667   0.54689   0.75000   0.00000  Uiso   1.00
Cu968  Cu    0.16667   0.45311   0.75000   0.00000  Uiso   1.00
H969   H     0.21190   0.55424   0.88795   0.00000  Uiso   1.00
H970   H     0.12171   0.44512   0.61199   0.00000  Uiso   1.00
H971   H     0.12079   0.44565   0.88864   0.00000  Uiso   1.00
H972   H     0.21097   0.55580   0.61129   0.00000  Uiso   1.00
H973   H     0.09401   0.41550   0.95863   0.00000  Uiso   1.00
H974   H     0.23799   0.58566   0.54131   0.00000  Uiso   1.00
H975   H     0.03745   0.42426   0.74702   0.00000  Uiso   1.00
H976   H     0.29589   0.57575   0.75196   0.00000  Uiso   1.00
H977   H     0.29614   0.42422   0.74717   0.00000  Uiso   1.00
H978   H     0.03718   0.57579   0.75183   0.00000  Uiso   1.00
H979   H     0.12059   0.37706   0.70013   0.00000  Uiso   1.00
H980   H     0.21269   0.62294   0.79993   0.00000  Uiso   1.00
H981   H     0.21271   0.37658   0.79991   0.00000  Uiso   1.00
H982   H     0.12059   0.62340   0.70014   0.00000  Uiso   1.00
N983   N     0.16667   0.61736   0.75000   0.00000  Uiso   1.00
N984   N     0.16667   0.38264   0.75000   0.00000  Uiso   1.00
O985   O     0.10655   0.53958   0.74999   0.00000  Uiso   1.00
O986   O     0.22679   0.46042   0.75000   0.00000  Uiso   1.00
O987   O     0.22679   0.53958   0.75000   0.00000  Uiso   1.00
O988   O     0.10655   0.46042   0.75000   0.00000  Uiso   1.00
O989   O     0.16666   0.53960   0.68513   0.00000  Uiso   1.00
O990   O     0.16668   0.46040   0.81487   0.00000  Uiso   1.00
O991   O     0.16668   0.53960   0.81487   0.00000  Uiso   1.00
O992   O     0.16666   0.46040   0.68513   0.00000  Uiso   1.00
O993   O     0.08720   0.40921   0.54602   0.00000  Uiso   1.00
C994   C     0.04534   0.42269   0.54186   0.00000  Uiso   1.00
H995   H     0.02635   0.39066   0.54594   0.00000  Uiso   1.00
H996   H     0.03744   0.43733   0.50845   0.00000  Uiso   1.00
C997   C     0.03347   0.45750   0.57852   0.00000  Uiso   1.00
H998   H     0.04091   0.44218   0.61164   0.00000  Uiso   1.00
H999   H     0.05141   0.49031   0.57439   0.00000  Uiso   1.00
C1000  C     0.32095   0.46936   0.57685   0.00000  Uiso   1.00
H1001  H     0.31291   0.48560   0.54431   0.00000  Uiso   1.00
H1002  H     0.31340   0.49453   0.60378   0.00000  Uiso   1.00
H1003  H     0.30221   0.43726   0.58172   0.00000  Uiso   1.00
O1004  O     0.24547   0.59108   0.95411   0.00000  Uiso   1.00
C1005  C     0.23421   0.63891   0.95666   0.00000  Uiso   1.00
H1006  H     0.26307   0.65967   0.95829   0.00000  Uiso   1.00
H1007  H     0.21612   0.64813   0.98701   0.00000  Uiso   1.00
C1008  C     0.21036   0.65332   0.91476   0.00000  Uiso   1.00
H1009  H     0.22847   0.64386   0.88470   0.00000  Uiso   1.00
H1010  H     0.18055   0.63431   0.91367   0.00000  Uiso   1.00
C1011  C     0.20184   0.37246   0.91407   0.00000  Uiso   1.00
H1012  H     0.18397   0.38263   0.94402   0.00000  Uiso   1.00
H1013  H     0.18370   0.38151   0.88388   0.00000  Uiso   1.00
H1014  H     0.23118   0.39239   0.91335   0.00000  Uiso   1.00
C1015  C     0.42069   0.50002   0.74982   0.00000  Uiso   1.00
C1016  C     0.57931   0.49997   0.74992   0.00000  Uiso   1.00
C1017  C     0.44558   0.44037   0.52325   0.00000  Uiso   1.00
C1018  C     0.55058   0.56354   0.97670   0.00000  Uiso   1.00
C1019  C     0.35470   0.45749   0.74813   0.00000  Uiso   1.00
C1020  C     0.64530   0.54251   0.75086   0.00000  Uiso   1.00
C1021  C     0.64544   0.45746   0.74821   0.00000  Uiso   1.00
C1022  C     0.35455   0.54254   0.75078   0.00000  Uiso   1.00
C1023  C     0.62392   0.49997   0.74967   0.00000  Uiso   1.00
C1024  C     0.37608   0.50003   0.74955   0.00000  Uiso   1.00
C1025  C     0.47442   0.35826   0.72232   0.00000  Uiso   1.00
C1026  C     0.52554   0.64173   0.77773   0.00000  Uiso   1.00
C1027  C     0.52555   0.35801   0.77772   0.00000  Uiso   1.00
C1028  C     0.47442   0.64199   0.72232   0.00000  Uiso   1.00
C1029  C     0.50001   0.50007   0.66439   0.00000  Uiso   1.00
C1030  C     0.49996   0.49996   0.83560   0.00000  Uiso   1.00
C1031  C     0.52512   0.53129   0.90671   0.00000  Uiso   1.00
C1032  C     0.47418   0.46919   0.59325   0.00000  Uiso   1.00
C1033  C     0.49975   0.50004   0.88385   0.00000  Uiso   1.00
C1034  C     0.49968   0.50032   0.61612   0.00000  Uiso   1.00
C1035  C     0.47381   0.46953   0.90690   0.00000  Uiso   1.00
C1036  C     0.52448   0.53205   0.59304   0.00000  Uiso   1.00
C1037  C     0.47284   0.47023   0.95330   0.00000  Uiso   1.00
C1038  C     0.52451   0.53237   0.54665   0.00000  Uiso   1.00
C1039  C     0.49857   0.50155   0.97663   0.00000  Uiso   1.00
C1040  C     0.49841   0.50143   0.52332   0.00000  Uiso   1.00
C1041  C     0.52496   0.53237   0.95322   0.00000  Uiso   1.00
C1042  C     0.47259   0.47001   0.54673   0.00000  Uiso   1.00
C1043  C     0.44674   0.43989   0.97659   0.00000  Uiso   1.00
C1044  C     0.55055   0.56277   0.52336   0.00000  Uiso   1.00
Cu1045 Cu    0.50000   0.54689   0.75000   0.00000  Uiso   1.00
Cu1046 Cu    0.50000   0.45311   0.75000   0.00000  Uiso   1.00
H1047  H     0.54524   0.55424   0.88795   0.00000  Uiso   1.00
H1048  H     0.45505   0.44512   0.61199   0.00000  Uiso   1.00
H1049  H     0.45412   0.44565   0.88864   0.00000  Uiso   1.00
H1050  H     0.54430   0.55580   0.61129   0.00000  Uiso   1.00
H1051  H     0.42735   0.41550   0.95863   0.00000  Uiso   1.00
H1052  H     0.57133   0.58566   0.54131   0.00000  Uiso   1.00
H1053  H     0.37078   0.42426   0.74702   0.00000  Uiso   1.00
H1054  H     0.62922   0.57575   0.75196   0.00000  Uiso   1.00
H1055  H     0.62948   0.42422   0.74717   0.00000  Uiso   1.00
H1056  H     0.37052   0.57579   0.75183   0.00000  Uiso   1.00
H1057  H     0.45393   0.37706   0.70013   0.00000  Uiso   1.00
H1058  H     0.54602   0.62294   0.79993   0.00000  Uiso   1.00
H1059  H     0.54605   0.37658   0.79991   0.00000  Uiso   1.00
H1060  H     0.45392   0.62340   0.70014   0.00000  Uiso   1.00
N1061  N     0.50000   0.61736   0.75000   0.00000  Uiso   1.00
N1062  N     0.50000   0.38264   0.75000   0.00000  Uiso   1.00
O1063  O     0.43988   0.53958   0.74999   0.00000  Uiso   1.00
O1064  O     0.56012   0.46042   0.75000   0.00000  Uiso   1.00
O1065  O     0.56012   0.53958   0.75000   0.00000  Uiso   1.00
O1066  O     0.43988   0.46042   0.75000   0.00000  Uiso   1.00
O1067  O     0.49999   0.53960   0.68513   0.00000  Uiso   1.00
O1068  O     0.50001   0.46040   0.81487   0.00000  Uiso   1.00
O1069  O     0.50001   0.53960   0.81487   0.00000  Uiso   1.00
O1070  O     0.49999   0.46040   0.68513   0.00000  Uiso   1.00
O1071  O     0.42053   0.40921   0.54602   0.00000  Uiso   1.00
C1072  C     0.37867   0.42269   0.54186   0.00000  Uiso   1.00
H1073  H     0.35968   0.39066   0.54594   0.00000  Uiso   1.00
H1074  H     0.37077   0.43733   0.50845   0.00000  Uiso   1.00
C1075  C     0.36680   0.45750   0.57852   0.00000  Uiso   1.00
H1076  H     0.37424   0.44218   0.61164   0.00000  Uiso   1.00
H1077  H     0.38475   0.49031   0.57439   0.00000  Uiso   1.00
C1078  C     0.65429   0.46936   0.57685   0.00000  Uiso   1.00
H1079  H     0.64625   0.48560   0.54431   0.00000  Uiso   1.00
H1080  H     0.64673   0.49453   0.60378   0.00000  Uiso   1.00
H1081  H     0.63554   0.43726   0.58172   0.00000  Uiso   1.00
O1082  O     0.57880   0.59108   0.95411   0.00000  Uiso   1.00
C1083  C     0.56754   0.63891   0.95666   0.00000  Uiso   1.00
H1084  H     0.59641   0.65967   0.95829   0.00000  Uiso   1.00
H1085  H     0.54945   0.64813   0.98701   0.00000  Uiso   1.00
C1086  C     0.54370   0.65332   0.91476   0.00000  Uiso   1.00
H1087  H     0.56180   0.64386   0.88470   0.00000  Uiso   1.00
H1088  H     0.51388   0.63431   0.91367   0.00000  Uiso   1.00
C1089  C     0.53518   0.37246   0.91407   0.00000  Uiso   1.00
H1090  H     0.51731   0.38263   0.94402   0.00000  Uiso   1.00
H1091  H     0.51704   0.38151   0.88388   0.00000  Uiso   1.00
H1092  H     0.56451   0.39239   0.91335   0.00000  Uiso   1.00
C1093  C     0.75403   0.50002   0.74982   0.00000  Uiso   1.00
C1094  C     0.91264   0.49997   0.74992   0.00000  Uiso   1.00
C1095  C     0.77892   0.44037   0.52325   0.00000  Uiso   1.00
C1096  C     0.88391   0.56354   0.97670   0.00000  Uiso   1.00
C1097  C     0.68803   0.45749   0.74813   0.00000  Uiso   1.00
C1098  C     0.97863   0.54251   0.75086   0.00000  Uiso   1.00
C1099  C     0.97878   0.45746   0.74821   0.00000  Uiso   1.00
C1100  C     0.68789   0.54254   0.75078   0.00000  Uiso   1.00
C1101  C     0.95725   0.49997   0.74967   0.00000  Uiso   1.00
C1102  C     0.70941   0.50003   0.74955   0.00000  Uiso   1.00
C1103  C     0.80775   0.35826   0.72232   0.00000  Uiso   1.00
C1104  C     0.85888   0.64173   0.77773   0.00000  Uiso   1.00
C1105  C     0.85889   0.35801   0.77772   0.00000  Uiso   1.00
C1106  C     0.80775   0.64199   0.72232   0.00000  Uiso   1.00
C1107  C     0.83334   0.50007   0.66439   0.00000  Uiso   1.00
C1108  C     0.83329   0.49996   0.83560   0.00000  Uiso   1.00
C1109  C     0.85845   0.53129   0.90671   0.00000  Uiso   1.00
C1110  C     0.80751   0.46919   0.59325   0.00000  Uiso   1.00
C1111  C     0.83308   0.50004   0.88385   0.00000  Uiso   1.00
C1112  C     0.83301   0.50032   0.61612   0.00000  Uiso   1.00
C1113  C     0.80714   0.46953   0.90690   0.00000  Uiso   1.00
C1114  C     0.85781   0.53205   0.59304   0.00000  Uiso   1.00
C1115  C     0.80617   0.47023   0.95330   0.00000  Uiso   1.00
C1116  C     0.85784   0.53237   0.54665   0.00000  Uiso   1.00
C1117  C     0.83190   0.50155   0.97663   0.00000  Uiso   1.00
C1118  C     0.83175   0.50143   0.52332   0.00000  Uiso   1.00
C1119  C     0.85829   0.53237   0.95322   0.00000  Uiso   1.00
C1120  C     0.80592   0.47001   0.54673   0.00000  Uiso   1.00
C1121  C     0.78008   0.43989   0.97659   0.00000  Uiso   1.00
C1122  C     0.88388   0.56277   0.52336   0.00000  Uiso   1.00
Cu1123 Cu    0.83333   0.54689   0.75000   0.00000  Uiso   1.00
Cu1124 Cu    0.83333   0.45311   0.75000   0.00000  Uiso   1.00
H1125  H     0.87857   0.55424   0.88795   0.00000  Uiso   1.00
H1126  H     0.78838   0.44512   0.61199   0.00000  Uiso   1.00
H1127  H     0.78746   0.44565   0.88864   0.00000  Uiso   1.00
H1128  H     0.87763   0.55580   0.61129   0.00000  Uiso   1.00
H1129  H     0.76068   0.41550   0.95863   0.00000  Uiso   1.00
H1130  H     0.90466   0.58566   0.54131   0.00000  Uiso   1.00
H1131  H     0.70412   0.42426   0.74702   0.00000  Uiso   1.00
H1132  H     0.96255   0.57575   0.75196   0.00000  Uiso   1.00
H1133  H     0.96281   0.42422   0.74717   0.00000  Uiso   1.00
H1134  H     0.70385   0.57579   0.75183   0.00000  Uiso   1.00
H1135  H     0.78726   0.37706   0.70013   0.00000  Uiso   1.00
H1136  H     0.87935   0.62294   0.79993   0.00000  Uiso   1.00
H1137  H     0.87938   0.37658   0.79991   0.00000  Uiso   1.00
H1138  H     0.78726   0.62340   0.70014   0.00000  Uiso   1.00
N1139  N     0.83333   0.61736   0.75000   0.00000  Uiso   1.00
N1140  N     0.83333   0.38264   0.75000   0.00000  Uiso   1.00
O1141  O     0.77321   0.53958   0.74999   0.00000  Uiso   1.00
O1142  O     0.89345   0.46042   0.75000   0.00000  Uiso   1.00
O1143  O     0.89345   0.53958   0.75000   0.00000  Uiso   1.00
O1144  O     0.77321   0.46042   0.75000   0.00000  Uiso   1.00
O1145  O     0.83332   0.53960   0.68513   0.00000  Uiso   1.00
O1146  O     0.83334   0.46040   0.81487   0.00000  Uiso   1.00
O1147  O     0.83334   0.53960   0.81487   0.00000  Uiso   1.00
O1148  O     0.83332   0.46040   0.68513   0.00000  Uiso   1.00
O1149  O     0.75387   0.40921   0.54602   0.00000  Uiso   1.00
C1150  C     0.71200   0.42269   0.54186   0.00000  Uiso   1.00
H1151  H     0.69301   0.39066   0.54594   0.00000  Uiso   1.00
H1152  H     0.70410   0.43733   0.50845   0.00000  Uiso   1.00
C1153  C     0.70014   0.45750   0.57852   0.00000  Uiso   1.00
H1154  H     0.70758   0.44218   0.61164   0.00000  Uiso   1.00
H1155  H     0.71808   0.49031   0.57439   0.00000  Uiso   1.00
C1156  C     0.98762   0.46936   0.57685   0.00000  Uiso   1.00
H1157  H     0.97958   0.48560   0.54431   0.00000  Uiso   1.00
H1158  H     0.98007   0.49453   0.60378   0.00000  Uiso   1.00
H1159  H     0.96888   0.43726   0.58172   0.00000  Uiso   1.00
O1160  O     0.91214   0.59108   0.95411   0.00000  Uiso   1.00
C1161  C     0.90087   0.63891   0.95666   0.00000  Uiso   1.00
H1162  H     0.92974   0.65967   0.95829   0.00000  Uiso   1.00
H1163  H     0.88279   0.64813   0.98701   0.00000  Uiso   1.00
C1164  C     0.87703   0.65332   0.91476   0.00000  Uiso   1.00
H1165  H     0.89514   0.64386   0.88470   0.00000  Uiso   1.00
H1166  H     0.84722   0.63431   0.91367   0.00000  Uiso   1.00
C1167  C     0.86851   0.37246   0.91407   0.00000  Uiso   1.00
H1168  H     0.85064   0.38263   0.94402   0.00000  Uiso   1.00
H1169  H     0.85037   0.38151   0.88388   0.00000  Uiso   1.00
H1170  H     0.89784   0.39239   0.91335   0.00000  Uiso   1.00
C1171  C     0.08736   0.83336   0.74982   0.00000  Uiso   1.00
C1172  C     0.24597   0.83331   0.74992   0.00000  Uiso   1.00
C1173  C     0.11225   0.77370   0.52325   0.00000  Uiso   1.00
C1174  C     0.21725   0.89687   0.97670   0.00000  Uiso   1.00
C1175  C     0.02137   0.79082   0.74813   0.00000  Uiso   1.00
C1176  C     0.31197   0.87585   0.75086   0.00000  Uiso   1.00
C1177  C     0.31211   0.79079   0.74821   0.00000  Uiso   1.00
C1178  C     0.02122   0.87588   0.75078   0.00000  Uiso   1.00
C1179  C     0.29059   0.83330   0.74967   0.00000  Uiso   1.00
C1180  C     0.04274   0.83336   0.74955   0.00000  Uiso   1.00
C1181  C     0.14109   0.69160   0.72232   0.00000  Uiso   1.00
C1182  C     0.19221   0.97507   0.77773   0.00000  Uiso   1.00
C1183  C     0.19222   0.69134   0.77772   0.00000  Uiso   1.00
C1184  C     0.14109   0.97533   0.72232   0.00000  Uiso   1.00
C1185  C     0.16668   0.83340   0.66439   0.00000  Uiso   1.00
C1186  C     0.16662   0.83329   0.83560   0.00000  Uiso   1.00
C1187  C     0.19178   0.86462   0.90671   0.00000  Uiso   1.00
C1188  C     0.14084   0.80252   0.59325   0.00000  Uiso   1.00
C1189  C     0.16641   0.83338   0.88385   0.00000  Uiso   1.00
C1190  C     0.16634   0.83365   0.61612   0.00000  Uiso   1.00
C1191  C     0.14047   0.80286   0.90690   0.00000  Uiso   1.00
C1192  C     0.19114   0.86538   0.59304   0.00000  Uiso   1.00
C1193  C     0.13950   0.80357   0.95330   0.00000  Uiso   1.00
C1194  C     0.19117   0.86570   0.54665   0.00000  Uiso   1.00
C1195  C     0.16523   0.83489   0.97663   0.00000  Uiso   1.00
C1196  C     0.16508   0.83477   0.52332   0.00000  Uiso   1.00
C1197  C     0.19162   0.86571   0.95322   0.00000  Uiso   1.00
C1198  C     0.13925   0.80334   0.54673   0.00000  Uiso   1.00
C1199  C     0.11341   0.77322   0.97659   0.00000  Uiso   1.00
C1200  C     0.21721   0.89611   0.52336   0.00000  Uiso   1.00
Cu1201 Cu    0.16667   0.88022   0.75000   0.00000  Uiso   1.00
Cu1202 Cu    0.16667   0.78645   0.75000   0.00000  Uiso   1.00
H1203  H     0.21190   0.88757   0.88795   0.00000  Uiso   1.00
H1204  H     0.12171   0.77846   0.61199   0.00000  Uiso   1.00
H1205  H     0.12079   0.77899   0.88864   0.00000  Uiso   1.00
H1206  H     0.21097   0.88913   0.61129   0.00000  Uiso   1.00
H1207  H     0.09401   0.74884   0.95863   0.00000  Uiso   1.00
H1208  H     0.23799   0.91899   0.54131   0.00000  Uiso   1.00
H1209  H     0.03745   0.75759   0.74702   0.00000  Uiso   1.00
H1210  H     0.29589   0.90909   0.75196   0.00000  Uiso   1.00
H1211  H     0.29614   0.75755   0.74717   0.00000  Uiso   1.00
H1212  H     0.03718   0.90912   0.75183   0.00000  Uiso   1.00
H1213  H     0.12059   0.71039   0.70013   0.00000  Uiso   1.00
H1214  H     0.21269   0.95627   0.79993   0.00000  Uiso   1.00
H1215  H     0.21271   0.70992   0.79991   0.00000  Uiso   1.00
H1216  H     0.12059   0.95674   0.70014   0.00000  Uiso   1.00
N1217  N     0.16667   0.95069   0.75000   0.00000  Uiso   1.00
N1218  N     0.16667   0.71598   0.75000   0.00000  Uiso   1.00
O1219  O     0.10655   0.87291   0.74999   0.00000  Uiso   1.00
O1220  O     0.22679   0.79375   0.75000   0.00000  Uiso   1.00
O1221  O     0.22679   0.87291   0.75000   0.00000  Uiso   1.00
O1222  O     0.10655   0.79375   0.75000   0.00000  Uiso   1.00
O1223  O     0.16666   0.87293   0.68513   0.00000  Uiso   1.00
O1224  O     0.16668   0.79373   0.81487   0.00000  Uiso   1.00
O1225  O     0.16668   0.87293   0.81487   0.00000  Uiso   1.00
O1226  O     0.16666   0.79373   0.68513   0.00000  Uiso   1.00
O1227  O     0.08720   0.74254   0.54602   0.00000  Uiso   1.00
C1228  C     0.04534   0.75603   0.54186   0.00000  Uiso   1.00
H1229  H     0.02635   0.72399   0.54594   0.00000  Uiso   1.00
H1230  H     0.03744   0.77067   0.50845   0.00000  Uiso   1.00
C1231  C     0.03347   0.79083   0.57852   0.00000  Uiso   1.00
H1232  H     0.04091   0.77551   0.61164   0.00000  Uiso   1.00
H1233  H     0.05141   0.82364   0.57439   0.00000  Uiso   1.00
C1234  C     0.32095   0.80270   0.57685   0.00000  Uiso   1.00
H1235  H     0.31291   0.81893   0.54431   0.00000  Uiso   1.00
H1236  H     0.31340   0.82786   0.60378   0.00000  Uiso   1.00
H1237  H     0.30221   0.77060   0.58172   0.00000  Uiso   1.00
O1238  O     0.24547   0.92441   0.95411   0.00000  Uiso   1.00
C1239  C     0.23421   0.97225   0.95666   0.00000  Uiso   1.00
H1240  H     0.26307   0.99301   0.95829   0.00000  Uiso   1.00
H1241  H     0.21612   0.98146   0.98701   0.00000  Uiso   1.00
C1242  C     0.21036   0.98665   0.91476   0.00000  Uiso   1.00
H1243  H     0.22847   0.97720   0.88470   0.00000  Uiso   1.00
H1244  H     0.18055   0.96764   0.91367   0.00000  Uiso   1.00
C1245  C     0.20184   0.70580   0.91407   0.00000  Uiso   1.00
H1246  H     0.18397   0.71596   0.94402   0.00000  Uiso   1.00
H1247  H     0.18370   0.71484   0.88388   0.00000  Uiso   1.00
H1248  H     0.23118   0.72573   0.91335   0.00000  Uiso   1.00
C1249  C     0.42069   0.83336   0.74982   0.00000  Uiso   1.00
C1250  C     0.57931   0.83331   0.74992   0.00000  Uiso   1.00
C1251  C     0.44558   0.77370   0.52325   0.00000  Uiso   1.00
C1252  C     0.55058   0.89687   0.97670   0.00000  Uiso   1.00
C1253  C     0.35470   0.79082   0.74813   0.00000  Uiso   1.00
C1254  C     0.64530   0.87585   0.75086   0.00000  Uiso   1.00
C1255  C     0.64544   0.79079   0.74821   0.00000  Uiso   1.00
C1256  C     0.35455   0.87588   0.75078   0.00000  Uiso   1.00
C1257  C     0.62392   0.83330   0.74967   0.00000  Uiso   1.00
C1258  C     0.37608   0.83336   0.74955   0.00000  Uiso   1.00
C1259  C     0.47442   0.69160   0.72232   0.00000  Uiso   1.00
C1260  C     0.52554   0.97507   0.77773   0.00000  Uiso   1.00
C1261  C     0.52555   0.69134   0.77772   0.00000  Uiso   1.00
C1262  C     0.47442   0.97533   0.72232   0.00000  Uiso   1.00
C1263  C     0.50001   0.83340   0.66439   0.00000  Uiso   1.00
C1264  C     0.49996   0.83329   0.83560   0.00000  Uiso   1.00
C1265  C     0.52512   0.86462   0.90671   0.00000  Uiso   1.00
C1266  C     0.47418   0.80252   0.59325   0.00000  Uiso   1.00
C1267  C     0.49975   0.83338   0.88385   0.00000  Uiso   1.00
C1268  C     0.49968   0.83365   0.61612   0.00000  Uiso   1.00
C1269  C     0.47381   0.80286   0.90690   0.00000  Uiso   1.00
C1270  C     0.52448   0.86538   0.59304   0.00000  Uiso   1.00
C1271  C     0.47284   0.80357   0.95330   0.00000  Uiso   1.00
C1272  C     0.52451   0.86570   0.54665   0.00000  Uiso   1.00
C1273  C     0.49857   0.83489   0.97663   0.00000  Uiso   1.00
C1274  C     0.49841   0.83477   0.52332   0.00000  Uiso   1.00
C1275  C     0.52496   0.86571   0.95322   0.00000  Uiso   1.00
C1276  C     0.47259   0.80334   0.54673   0.00000  Uiso   1.00
C1277  C     0.44674   0.77322   0.97659   0.00000  Uiso   1.00
C1278  C     0.55055   0.89611   0.52336   0.00000  Uiso   1.00
Cu1279 Cu    0.50000   0.88022   0.75000   0.00000  Uiso   1.00
Cu1280 Cu    0.50000   0.78645   0.75000   0.00000  Uiso   1.00
H1281  H     0.54524   0.88757   0.88795   0.00000  Uiso   1.00
H1282  H     0.45505   0.77846   0.61199   0.00000  Uiso   1.00
H1283  H     0.45412   0.77899   0.88864   0.00000  Uiso   1.00
H1284  H     0.54430   0.88913   0.61129   0.00000  Uiso   1.00
H1285  H     0.42735   0.74884   0.95863   0.00000  Uiso   1.00
H1286  H     0.57133   0.91899   0.54131   0.00000  Uiso   1.00
H1287  H     0.37078   0.75759   0.74702   0.00000  Uiso   1.00
H1288  H     0.62922   0.90909   0.75196   0.00000  Uiso   1.00
H1289  H     0.62948   0.75755   0.74717   0.00000  Uiso   1.00
H1290  H     0.37052   0.90912   0.75183   0.00000  Uiso   1.00
H1291  H     0.45393   0.71039   0.70013   0.00000  Uiso   1.00
H1292  H     0.54602   0.95627   0.79993   0.00000  Uiso   1.00
H1293  H     0.54605   0.70992   0.79991   0.00000  Uiso   1.00
H1294  H     0.45392   0.95674   0.70014   0.00000  Uiso   1.00
N1295  N     0.50000   0.95069   0.75000   0.00000  Uiso   1.00
N1296  N     0.50000   0.71598   0.75000   0.00000  Uiso   1.00
O1297  O     0.43988   0.87291   0.74999   0.00000  Uiso   1.00
O1298  O     0.56012   0.79375   0.75000   0.00000  Uiso   1.00
O1299  O     0.56012   0.87291   0.75000   0.00000  Uiso   1.00
O1300  O     0.43988   0.79375   0.75000   0.00000  Uiso   1.00
O1301  O     0.49999   0.87293   0.68513   0.00000  Uiso   1.00
O1302  O     0.50001   0.79373   0.81487   0.00000  Uiso   1.00
O1303  O     0.50001   0.87293   0.81487   0.00000  Uiso   1.00
O1304  O     0.49999   0.79373   0.68513   0.00000  Uiso   1.00
O1305  O     0.42053   0.74254   0.54602   0.00000  Uiso   1.00
C1306  C     0.37867   0.75603   0.54186   0.00000  Uiso   1.00
H1307  H     0.35968   0.72399   0.54594   0.00000  Uiso   1.00
H1308  H     0.37077   0.77067   0.50845   0.00000  Uiso   1.00
C1309  C     0.36680   0.79083   0.57852   0.00000  Uiso   1.00
H1310  H     0.37424   0.77551   0.61164   0.00000  Uiso   1.00
H1311  H     0.38475   0.82364   0.57439   0.00000  Uiso   1.00
C1312  C     0.65429   0.80270   0.57685   0.00000  Uiso   1.00
H1313  H     0.64625   0.81893   0.54431   0.00000  Uiso   1.00
H1314  H     0.64673   0.82786   0.60378   0.00000  Uiso   1.00
H1315  H     0.63554   0.77060   0.58172   0.00000  Uiso   1.00
O1316  O     0.57880   0.92441   0.95411   0.00000  Uiso   1.00
C1317  C     0.56754   0.97225   0.95666   0.00000  Uiso   1.00
H1318  H     0.59641   0.99301   0.95829   0.00000  Uiso   1.00
H1319  H     0.54945   0.98146   0.98701   0.00000  Uiso   1.00
C1320  C     0.54370   0.98665   0.91476   0.00000  Uiso   1.00
H1321  H     0.56180   0.97720   0.88470   0.00000  Uiso   1.00
H1322  H     0.51388   0.96764   0.91367   0.00000  Uiso   1.00
C1323  C     0.53518   0.70580   0.91407   0.00000  Uiso   1.00
H1324  H     0.51731   0.71596   0.94402   0.00000  Uiso   1.00
H1325  H     0.51704   0.71484   0.88388   0.00000  Uiso   1.00
H1326  H     0.56451   0.72573   0.91335   0.00000  Uiso   1.00
C1327  C     0.75403   0.83336   0.74982   0.00000  Uiso   1.00
C1328  C     0.91264   0.83331   0.74992   0.00000  Uiso   1.00
C1329  C     0.77892   0.77370   0.52325   0.00000  Uiso   1.00
C1330  C     0.88391   0.89687   0.97670   0.00000  Uiso   1.00
C1331  C     0.68803   0.79082   0.74813   0.00000  Uiso   1.00
C1332  C     0.97863   0.87585   0.75086   0.00000  Uiso   1.00
C1333  C     0.97878   0.79079   0.74821   0.00000  Uiso   1.00
C1334  C     0.68789   0.87588   0.75078   0.00000  Uiso   1.00
C1335  C     0.95725   0.83330   0.74967   0.00000  Uiso   1.00
C1336  C     0.70941   0.83336   0.74955   0.00000  Uiso   1.00
C1337  C     0.80775   0.69160   0.72232   0.00000  Uiso   1.00
C1338  C     0.85888   0.97507   0.77773   0.00000  Uiso   1.00
C1339  C     0.85889   0.69134   0.77772   0.00000  Uiso   1.00
C1340  C     0.80775   0.97533   0.72232   0.00000  Uiso   1.00
C1341  C     0.83334   0.83340   0.66439   0.00000  Uiso   1.00
C1342  C     0.83329   0.83329   0.83560   0.00000  Uiso   1.00
C1343  C     0.85845   0.86462   0.90671   0.00000  Uiso   1.00
C1344  C     0.80751   0.80252   0.59325   0.00000  Uiso   1.00
C1345  C     0.83308   0.83338   0.88385   0.00000  Uiso   1.00
C1346  C     0.83301   0.83365   0.61612   0.00000  Uiso   1.00
C1347  C     0.80714   0.80286   0.90690   0.00000  Uiso   1.00
C1348  C     0.85781   0.86538   0.59304   0.00000  Uiso   1.00
C1349  C     0.80617   0.80357   0.95330   0.00000  Uiso   1.00
C1350  C     0.85784   0.86570   0.54665   0.00000  Uiso   1.00
C1351  C     0.83190   0.83489   0.97663   0.00000  Uiso   1.00
C1352  C     0.83175   0.83477   0.52332   0.00000  Uiso   1.00
C1353  C     0.85829   0.86571   0.95322   0.00000  Uiso   1.00
C1354  C     0.80592   0.80334   0.54673   0.00000  Uiso   1.00
C1355  C     0.78008   0.77322   0.97659   0.00000  Uiso   1.00
C1356  C     0.88388   0.89611   0.52336   0.00000  Uiso   1.00
Cu1357 Cu    0.83333   0.88022   0.75000   0.00000  Uiso   1.00
Cu1358 Cu    0.83333   0.78645   0.75000   0.00000  Uiso   1.00
H1359  H     0.87857   0.88757   0.88795   0.00000  Uiso   1.00
H1360  H     0.78838   0.77846   0.61199   0.00000  Uiso   1.00
H1361  H     0.78746   0.77899   0.88864   0.00000  Uiso   1.00
H1362  H     0.87763   0.88913   0.61129   0.00000  Uiso   1.00
H1363  H     0.76068   0.74884   0.95863   0.00000  Uiso   1.00
H1364  H     0.90466   0.91899   0.54131   0.00000  Uiso   1.00
H1365  H     0.70412   0.75759   0.74702   0.00000  Uiso   1.00
H1366  H     0.96255   0.90909   0.75196   0.00000  Uiso   1.00
H1367  H     0.96281   0.75755   0.74717   0.00000  Uiso   1.00
H1368  H     0.70385   0.90912   0.75183   0.00000  Uiso   1.00
H1369  H     0.78726   0.71039   0.70013   0.00000  Uiso   1.00
H1370  H     0.87935   0.95627   0.79993   0.00000  Uiso   1.00
H1371  H     0.87938   0.70992   0.79991   0.00000  Uiso   1.00
H1372  H     0.78726   0.95674   0.70014   0.00000  Uiso   1.00
N1373  N     0.83333   0.95069   0.75000   0.00000  Uiso   1.00
N1374  N     0.83333   0.71598   0.75000   0.00000  Uiso   1.00
O1375  O     0.77321   0.87291   0.74999   0.00000  Uiso   1.00
O1376  O     0.89345   0.79375   0.75000   0.00000  Uiso   1.00
O1377  O     0.89345   0.87291   0.75000   0.00000  Uiso   1.00
O1378  O     0.77321   0.79375   0.75000   0.00000  Uiso   1.00
O1379  O     0.83332   0.87293   0.68513   0.00000  Uiso   1.00
O1380  O     0.83334   0.79373   0.81487   0.00000  Uiso   1.00
O1381  O     0.83334   0.87293   0.81487   0.00000  Uiso   1.00
O1382  O     0.83332   0.79373   0.68513   0.00000  Uiso   1.00
O1383  O     0.75387   0.74254   0.54602   0.00000  Uiso   1.00
C1384  C     0.71200   0.75603   0.54186   0.00000  Uiso   1.00
H1385  H     0.69301   0.72399   0.54594   0.00000  Uiso   1.00
H1386  H     0.70410   0.77067   0.50845   0.00000  Uiso   1.00
C1387  C     0.70014   0.79083   0.57852   0.00000  Uiso   1.00
H1388  H     0.70758   0.77551   0.61164   0.00000  Uiso   1.00
H1389  H     0.71808   0.82364   0.57439   0.00000  Uiso   1.00
C1390  C     0.98762   0.80270   0.57685   0.00000  Uiso   1.00
H1391  H     0.97958   0.81893   0.54431   0.00000  Uiso   1.00
H1392  H     0.98007   0.82786   0.60378   0.00000  Uiso   1.00
H1393  H     0.96888   0.77060   0.58172   0.00000  Uiso   1.00
O1394  O     0.91214   0.92441   0.95411   0.00000  Uiso   1.00
C1395  C     0.90087   0.97225   0.95666   0.00000  Uiso   1.00
H1396  H     0.92974   0.99301   0.95829   0.00000  Uiso   1.00
H1397  H     0.88279   0.98146   0.98701   0.00000  Uiso   1.00
C1398  C     0.87703   0.98665   0.91476   0.00000  Uiso   1.00
H1399  H     0.89514   0.97720   0.88470   0.00000  Uiso   1.00
H1400  H     0.84722   0.96764   0.91367   0.00000  Uiso   1.00
C1401  C     0.86851   0.70580   0.91407   0.00000  Uiso   1.00
H1402  H     0.85064   0.71596   0.94402   0.00000  Uiso   1.00
H1403  H     0.85037   0.71484   0.88388   0.00000  Uiso   1.00
H1404  H     0.89784   0.72573   0.91335   0.00000  Uiso   1.00
loop_
_geom_bond_atom_site_label_1
_geom_bond_atom_site_label_2
_geom_bond_distance
_geom_bond_site_symmetry_2
_ccdc_geom_bond_type
C1     C10     1.449   .     S
C1     O52     1.290   .     A
C1     O49     1.291   .     A
C2     O50     1.291   .     A
C2     O51     1.290   .     A
C2     C9      1.449   .     S
C3     C28     1.409   .     A
C3     O57     1.386   .     S
C3     C731    1.402   1_554 S
C4     C27     1.409   .     A
C4     O68     1.386   .     S
C4     C732    1.401   .     S
C5     H39     1.083   .     S
C5     C10     1.401   .     A
C5     C163    1.383   1_455 S
C6     C9      1.401   .     A
C6     H40     1.083   .     S
C6     C86     1.383   .     S
C7     H41     1.083   .     S
C7     C9      1.401   .     A
C7     C83     1.383   .     S
C8     H42     1.083   .     S
C8     C10     1.401   .     A
C8     C162    1.383   1_455 S
C11    H43     1.082   .     S
C11    N48     1.367   .     A
C11    C482    1.417   1_545 S
C12    N47     1.367   .     A
C12    H44     1.082   .     S
C12    C247    1.417   .     S
C13    N48     1.367   .     A
C13    H45     1.082   .     S
C13    C480    1.417   1_545 S
C14    H46     1.082   .     S
C14    N47     1.367   .     A
C14    C245    1.417   .     S
C15    C20     1.449   .     S
C15    O53     1.291   .     A
C15    O56     1.292   .     A
C16    O55     1.291   .     A
C16    C19     1.449   .     S
C16    O54     1.291   .     A
C17    H33     1.084   .     S
C17    C27     1.397   .     A
C17    C19     1.397   .     A
C18    C20     1.397   .     A
C18    C28     1.398   .     A
C18    H34     1.084   .     S
C19    C21     1.396   .     A
C20    C22     1.397   .     A
C21    C23     1.394   .     A
C21    H35     1.085   .     S
C22    C24     1.393   .     A
C22    H36     1.085   .     S
C23    C29     1.400   .     A
C23    C25     1.412   .     A
C24    C30     1.400   .     A
C24    C26     1.412   .     A
C25    C27     1.416   .     A
C25    C728    1.402   .     S
C26    C28     1.416   .     A
C26    C727    1.402   1_554 S
C29    H37     1.084   .     S
C29    C705    1.402   .     S
C30    H38     1.084   .     S
C30    C706    1.401   1_554 S
Cu31   N47     2.013   .     S
Cu31   O49     1.964   .     S
Cu31   Cu32    2.679   .     S
Cu31   O53     1.959   .     S
Cu31   O51     1.963   .     S
Cu31   O55     1.958   .     S
Cu32   O52     1.963   .     S
Cu32   N48     2.013   .     S
Cu32   O54     1.959   .     S
Cu32   O50     1.964   .     S
Cu32   O56     1.958   .     S
O57    C58     1.417   .     S
C58    H60     1.115   .     S
C58    C61     1.534   .     S
C58    H59     1.111   .     S
C61    H63     1.111   .     S
C61    H62     1.112   .     S
C61    C220    1.527   1_455 S
C64    H67     1.111   .     S
C64    H66     1.111   .     S
C64    H65     1.111   .     S
C64    C139    1.527   .     S
O68    C69     1.416   .     S
C69    H71     1.117   .     S
C69    H70     1.111   .     S
C69    C72     1.531   .     S
C72    H74     1.111   .     S
C72    H73     1.112   .     S
C72    C309    1.524   .     S
C75    H78     1.111   .     S
C75    H76     1.110   .     S
C75    H77     1.110   .     S
C75    C540    1.524   1_545 S
C79    C88     1.449   .     S
C79    O130    1.290   .     A
C79    O127    1.291   .     A
C80    O128    1.291   .     A
C80    O129    1.290   .     A
C80    C87     1.449   .     S
C81    C106    1.409   .     A
C81    O135    1.386   .     S
C81    C809    1.402   1_554 S
C82    C105    1.409   .     A
C82    O146    1.386   .     S
C82    C810    1.401   .     S
C83    H117    1.083   .     S
C83    C88     1.401   .     A
C84    C87     1.401   .     A
C84    H118    1.083   .     S
C84    C164    1.383   .     S
C85    H119    1.083   .     S
C85    C87     1.401   .     A
C85    C161    1.383   .     S
C86    H120    1.083   .     S
C86    C88     1.401   .     A
C89    H121    1.082   .     S
C89    N126    1.367   .     A
C89    C560    1.417   1_545 S
C90    N125    1.367   .     A
C90    H122    1.082   .     S
C90    C325    1.417   .     S
C91    N126    1.367   .     A
C91    H123    1.082   .     S
C91    C558    1.417   1_545 S
C92    H124    1.082   .     S
C92    N125    1.367   .     A
C92    C323    1.417   .     S
C93    C98     1.449   .     S
C93    O131    1.291   .     A
C93    O134    1.292   .     A
C94    O133    1.291   .     A
C94    C97     1.449   .     S
C94    O132    1.291   .     A
C95    H111    1.084   .     S
C95    C105    1.397   .     A
C95    C97     1.397   .     A
C96    C98     1.397   .     A
C96    C106    1.398   .     A
C96    H112    1.084   .     S
C97    C99     1.396   .     A
C98    C100    1.397   .     A
C99    C101    1.394   .     A
C99    H113    1.085   .     S
C100   C102    1.393   .     A
C100   H114    1.085   .     S
C101   C107    1.400   .     A
C101   C103    1.412   .     A
C102   C108    1.400   .     A
C102   C104    1.412   .     A
C103   C105    1.416   .     A
C103   C806    1.402   .     S
C104   C106    1.416   .     A
C104   C805    1.402   1_554 S
C107   H115    1.084   .     S
C107   C783    1.402   .     S
C108   H116    1.084   .     S
C108   C784    1.401   1_554 S
Cu109  N125    2.013   .     S
Cu109  O127    1.964   .     S
Cu109  Cu110   2.679   .     S
Cu109  O131    1.959   .     S
Cu109  O129    1.963   .     S
Cu109  O133    1.958   .     S
Cu110  O130    1.963   .     S
Cu110  N126    2.013   .     S
Cu110  O132    1.959   .     S
Cu110  O128    1.964   .     S
Cu110  O134    1.958   .     S
O135   C136    1.417   .     S
C136   H138    1.115   .     S
C136   C139    1.534   .     S
C136   H137    1.111   .     S
C139   H141    1.111   .     S
C139   H140    1.112   .     S
C142   H145    1.111   .     S
C142   H144    1.111   .     S
C142   H143    1.111   .     S
C142   C217    1.527   .     S
O146   C147    1.416   .     S
C147   H149    1.117   .     S
C147   H148    1.111   .     S
C147   C150    1.531   .     S
C150   H152    1.111   .     S
C150   H151    1.112   .     S
C150   C387    1.524   .     S
C153   H156    1.111   .     S
C153   H154    1.110   .     S
C153   H155    1.110   .     S
C153   C618    1.524   1_545 S
C157   C166    1.449   .     S
C157   O208    1.290   .     A
C157   O205    1.291   .     A
C158   O206    1.291   .     A
C158   O207    1.290   .     A
C158   C165    1.449   .     S
C159   C184    1.409   .     A
C159   O213    1.386   .     S
C159   C887    1.402   1_554 S
C160   C183    1.409   .     A
C160   O224    1.386   .     S
C160   C888    1.401   .     S
C161   H195    1.083   .     S
C161   C166    1.401   .     A
C162   C165    1.401   .     A
C162   H196    1.083   .     S
C162   C8      1.383   1_655 S
C163   H197    1.083   .     S
C163   C165    1.401   .     A
C163   C5      1.383   1_655 S
C164   H198    1.083   .     S
C164   C166    1.401   .     A
C167   H199    1.082   .     S
C167   N204    1.367   .     A
C167   C638    1.417   1_545 S
C168   N203    1.367   .     A
C168   H200    1.082   .     S
C168   C403    1.417   .     S
C169   N204    1.367   .     A
C169   H201    1.082   .     S
C169   C636    1.417   1_545 S
C170   H202    1.082   .     S
C170   N203    1.367   .     A
C170   C401    1.417   .     S
C171   C176    1.449   .     S
C171   O209    1.291   .     A
C171   O212    1.292   .     A
C172   O211    1.291   .     A
C172   C175    1.449   .     S
C172   O210    1.291   .     A
C173   H189    1.084   .     S
C173   C183    1.397   .     A
C173   C175    1.397   .     A
C174   C176    1.397   .     A
C174   C184    1.398   .     A
C174   H190    1.084   .     S
C175   C177    1.396   .     A
C176   C178    1.397   .     A
C177   C179    1.394   .     A
C177   H191    1.085   .     S
C178   C180    1.393   .     A
C178   H192    1.085   .     S
C179   C185    1.400   .     A
C179   C181    1.412   .     A
C180   C186    1.400   .     A
C180   C182    1.412   .     A
C181   C183    1.416   .     A
C181   C884    1.402   .     S
C182   C184    1.416   .     A
C182   C883    1.402   1_554 S
C185   H193    1.084   .     S
C185   C861    1.402   .     S
C186   H194    1.084   .     S
C186   C862    1.401   1_554 S
Cu187  N203    2.013   .     S
Cu187  O205    1.964   .     S
Cu187  Cu188   2.679   .     S
Cu187  O209    1.959   .     S
Cu187  O207    1.963   .     S
Cu187  O211    1.958   .     S
Cu188  O208    1.963   .     S
Cu188  N204    2.013   .     S
Cu188  O210    1.959   .     S
Cu188  O206    1.964   .     S
Cu188  O212    1.958   .     S
O213   C214    1.417   .     S
C214   H216    1.115   .     S
C214   C217    1.534   .     S
C214   H215    1.111   .     S
C217   H219    1.111   .     S
C217   H218    1.112   .     S
C220   H223    1.111   .     S
C220   H222    1.111   .     S
C220   H221    1.111   .     S
C220   C61     1.527   1_655 S
O224   C225    1.416   .     S
C225   H227    1.117   .     S
C225   H226    1.111   .     S
C225   C228    1.531   .     S
C228   H230    1.111   .     S
C228   H229    1.112   .     S
C228   C465    1.524   .     S
C231   H234    1.111   .     S
C231   H232    1.110   .     S
C231   H233    1.110   .     S
C231   C696    1.524   1_545 S
C235   C244    1.449   .     S
C235   O286    1.290   .     A
C235   O283    1.291   .     A
C236   O284    1.291   .     A
C236   O285    1.290   .     A
C236   C243    1.449   .     S
C237   C262    1.409   .     A
C237   O291    1.386   .     S
C237   C965    1.402   1_554 S
C238   C261    1.409   .     A
C238   O302    1.386   .     S
C238   C966    1.401   .     S
C239   H273    1.083   .     S
C239   C244    1.401   .     A
C239   C397    1.383   1_455 S
C240   C243    1.401   .     A
C240   H274    1.083   .     S
C240   C320    1.383   .     S
C241   H275    1.083   .     S
C241   C243    1.401   .     A
C241   C317    1.383   .     S
C242   H276    1.083   .     S
C242   C244    1.401   .     A
C242   C396    1.383   1_455 S
C245   H277    1.082   .     S
C245   N282    1.367   .     A
C246   N281    1.367   .     A
C246   H278    1.082   .     S
C246   C481    1.417   .     S
C247   N282    1.367   .     A
C247   H279    1.082   .     S
C248   H280    1.082   .     S
C248   N281    1.367   .     A
C248   C479    1.417   .     S
C249   C254    1.449   .     S
C249   O287    1.291   .     A
C249   O290    1.292   .     A
C250   O289    1.291   .     A
C250   C253    1.449   .     S
C250   O288    1.291   .     A
C251   H267    1.084   .     S
C251   C261    1.397   .     A
C251   C253    1.397   .     A
C252   C254    1.397   .     A
C252   C262    1.398   .     A
C252   H268    1.084   .     S
C253   C255    1.396   .     A
C254   C256    1.397   .     A
C255   C257    1.394   .     A
C255   H269    1.085   .     S
C256   C258    1.393   .     A
C256   H270    1.085   .     S
C257   C263    1.400   .     A
C257   C259    1.412   .     A
C258   C264    1.400   .     A
C258   C260    1.412   .     A
C259   C261    1.416   .     A
C259   C962    1.402   .     S
C260   C262    1.416   .     A
C260   C961    1.402   1_554 S
C263   H271    1.084   .     S
C263   C939    1.402   .     S
C264   H272    1.084   .     S
C264   C940    1.401   1_554 S
Cu265  N281    2.013   .     S
Cu265  O283    1.964   .     S
Cu265  Cu266   2.679   .     S
Cu265  O287    1.959   .     S
Cu265  O285    1.963   .     S
Cu265  O289    1.958   .     S
Cu266  O286    1.963   .     S
Cu266  N282    2.013   .     S
Cu266  O288    1.959   .     S
Cu266  O284    1.964   .     S
Cu266  O290    1.958   .     S
O291   C292    1.417   .     S
C292   H294    1.115   .     S
C292   C295    1.534   .     S
C292   H293    1.111   .     S
C295   H297    1.111   .     S
C295   H296    1.112   .     S
C295   C454    1.527   1_455 S
C298   H301    1.111   .     S
C298   H300    1.111   .     S
C298   H299    1.111   .     S
C298   C373    1.527   .     S
O302   C303    1.416   .     S
C303   H305    1.117   .     S
C303   H304    1.111   .     S
C303   C306    1.531   .     S
C306   H308    1.111   .     S
C306   H307    1.112   .     S
C306   C543    1.524   .     S
C309   H312    1.111   .     S
C309   H310    1.110   .     S
C309   H311    1.110   .     S
C313   C322    1.449   .     S
C313   O364    1.290   .     A
C313   O361    1.291   .     A
C314   O362    1.291   .     A
C314   O363    1.290   .     A
C314   C321    1.449   .     S
C315   C340    1.409   .     A
C315   O369    1.386   .     S
C315   C1043   1.402   1_554 S
C316   C339    1.409   .     A
C316   O380    1.386   .     S
C316   C1044   1.401   .     S
C317   H351    1.083   .     S
C317   C322    1.401   .     A
C318   C321    1.401   .     A
C318   H352    1.083   .     S
C318   C398    1.383   .     S
C319   H353    1.083   .     S
C319   C321    1.401   .     A
C319   C395    1.383   .     S
C320   H354    1.083   .     S
C320   C322    1.401   .     A
C323   H355    1.082   .     S
C323   N360    1.367   .     A
C324   N359    1.367   .     A
C324   H356    1.082   .     S
C324   C559    1.417   .     S
C325   N360    1.367   .     A
C325   H357    1.082   .     S
C326   H358    1.082   .     S
C326   N359    1.367   .     A
C326   C557    1.417   .     S
C327   C332    1.449   .     S
C327   O365    1.291   .     A
C327   O368    1.292   .     A
C328   O367    1.291   .     A
C328   C331    1.449   .     S
C328   O366    1.291   .     A
C329   H345    1.084   .     S
C329   C339    1.397   .     A
C329   C331    1.397   .     A
C330   C332    1.397   .     A
C330   C340    1.398   .     A
C330   H346    1.084   .     S
C331   C333    1.396   .     A
C332   C334    1.397   .     A
C333   C335    1.394   .     A
C333   H347    1.085   .     S
C334   C336    1.393   .     A
C334   H348    1.085   .     S
C335   C341    1.400   .     A
C335   C337    1.412   .     A
C336   C342    1.400   .     A
C336   C338    1.412   .     A
C337   C339    1.416   .     A
C337   C1040   1.402   .     S
C338   C340    1.416   .     A
C338   C1039   1.402   1_554 S
C341   H349    1.084   .     S
C341   C1017   1.402   .     S
C342   H350    1.084   .     S
C342   C1018   1.401   1_554 S
Cu343  N359    2.013   .     S
Cu343  O361    1.964   .     S
Cu343  Cu344   2.679   .     S
Cu343  O365    1.959   .     S
Cu343  O363    1.963   .     S
Cu343  O367    1.958   .     S
Cu344  O364    1.963   .     S
Cu344  N360    2.013   .     S
Cu344  O366    1.959   .     S
Cu344  O362    1.964   .     S
Cu344  O368    1.958   .     S
O369   C370    1.417   .     S
C370   H372    1.115   .     S
C370   C373    1.534   .     S
C370   H371    1.111   .     S
C373   H375    1.111   .     S
C373   H374    1.112   .     S
C376   H379    1.111   .     S
C376   H378    1.111   .     S
C376   H377    1.111   .     S
C376   C451    1.527   .     S
O380   C381    1.416   .     S
C381   H383    1.117   .     S
C381   H382    1.111   .     S
C381   C384    1.531   .     S
C384   H386    1.111   .     S
C384   H385    1.112   .     S
C384   C621    1.524   .     S
C387   H390    1.111   .     S
C387   H388    1.110   .     S
C387   H389    1.110   .     S
C391   C400    1.449   .     S
C391   O442    1.290   .     A
C391   O439    1.291   .     A
C392   O440    1.291   .     A
C392   O441    1.290   .     A
C392   C399    1.449   .     S
C393   C418    1.409   .     A
C393   O447    1.386   .     S
C393   C1121   1.402   1_554 S
C394   C417    1.409   .     A
C394   O458    1.386   .     S
C394   C1122   1.401   .     S
C395   H429    1.083   .     S
C395   C400    1.401   .     A
C396   C399    1.401   .     A
C396   H430    1.083   .     S
C396   C242    1.383   1_655 S
C397   H431    1.083   .     S
C397   C399    1.401   .     A
C397   C239    1.383   1_655 S
C398   H432    1.083   .     S
C398   C400    1.401   .     A
C401   H433    1.082   .     S
C401   N438    1.367   .     A
C402   N437    1.367   .     A
C402   H434    1.082   .     S
C402   C637    1.417   .     S
C403   N438    1.367   .     A
C403   H435    1.082   .     S
C404   H436    1.082   .     S
C404   N437    1.367   .     A
C404   C635    1.417   .     S
C405   C410    1.449   .     S
C405   O443    1.291   .     A
C405   O446    1.292   .     A
C406   O445    1.291   .     A
C406   C409    1.449   .     S
C406   O444    1.291   .     A
C407   H423    1.084   .     S
C407   C417    1.397   .     A
C407   C409    1.397   .     A
C408   C410    1.397   .     A
C408   C418    1.398   .     A
C408   H424    1.084   .     S
C409   C411    1.396   .     A
C410   C412    1.397   .     A
C411   C413    1.394   .     A
C411   H425    1.085   .     S
C412   C414    1.393   .     A
C412   H426    1.085   .     S
C413   C419    1.400   .     A
C413   C415    1.412   .     A
C414   C420    1.400   .     A
C414   C416    1.412   .     A
C415   C417    1.416   .     A
C415   C1118   1.402   .     S
C416   C418    1.416   .     A
C416   C1117   1.402   1_554 S
C419   H427    1.084   .     S
C419   C1095   1.402   .     S
C420   H428    1.084   .     S
C420   C1096   1.401   1_554 S
Cu421  N437    2.013   .     S
Cu421  O439    1.964   .     S
Cu421  Cu422   2.679   .     S
Cu421  O443    1.959   .     S
Cu421  O441    1.963   .     S
Cu421  O445    1.958   .     S
Cu422  O442    1.963   .     S
Cu422  N438    2.013   .     S
Cu422  O444    1.959   .     S
Cu422  O440    1.964   .     S
Cu422  O446    1.958   .     S
O447   C448    1.417   .     S
C448   H450    1.115   .     S
C448   C451    1.534   .     S
C448   H449    1.111   .     S
C451   H453    1.111   .     S
C451   H452    1.112   .     S
C454   H457    1.111   .     S
C454   H456    1.111   .     S
C454   H455    1.111   .     S
C454   C295    1.527   1_655 S
O458   C459    1.416   .     S
C459   H461    1.117   .     S
C459   H460    1.111   .     S
C459   C462    1.531   .     S
C462   H464    1.111   .     S
C462   H463    1.112   .     S
C462   C699    1.524   .     S
C465   H468    1.111   .     S
C465   H466    1.110   .     S
C465   H467    1.110   .     S
C469   C478    1.449   .     S
C469   O520    1.290   .     A
C469   O517    1.291   .     A
C470   O518    1.291   .     A
C470   O519    1.290   .     A
C470   C477    1.449   .     S
C471   C496    1.409   .     A
C471   O525    1.386   .     S
C471   C1199   1.402   1_554 S
C472   C495    1.409   .     A
C472   O536    1.386   .     S
C472   C1200   1.401   .     S
C473   H507    1.083   .     S
C473   C478    1.401   .     A
C473   C631    1.383   1_455 S
C474   C477    1.401   .     A
C474   H508    1.083   .     S
C474   C554    1.383   .     S
C475   H509    1.083   .     S
C475   C477    1.401   .     A
C475   C551    1.383   .     S
C476   H510    1.083   .     S
C476   C478    1.401   .     A
C476   C630    1.383   1_455 S
C479   H511    1.082   .     S
C479   N516    1.367   .     A
C480   N515    1.367   .     A
C480   H512    1.082   .     S
C480   C13     1.417   1_565 S
C481   N516    1.367   .     A
C481   H513    1.082   .     S
C482   H514    1.082   .     S
C482   N515    1.367   .     A
C482   C11     1.417   1_565 S
C483   C488    1.449   .     S
C483   O521    1.291   .     A
C483   O524    1.292   .     A
C484   O523    1.291   .     A
C484   C487    1.449   .     S
C484   O522    1.291   .     A
C485   H501    1.084   .     S
C485   C495    1.397   .     A
C485   C487    1.397   .     A
C486   C488    1.397   .     A
C486   C496    1.398   .     A
C486   H502    1.084   .     S
C487   C489    1.396   .     A
C488   C490    1.397   .     A
C489   C491    1.394   .     A
C489   H503    1.085   .     S
C490   C492    1.393   .     A
C490   H504    1.085   .     S
C491   C497    1.400   .     A
C491   C493    1.412   .     A
C492   C498    1.400   .     A
C492   C494    1.412   .     A
C493   C495    1.416   .     A
C493   C1196   1.402   .     S
C494   C496    1.416   .     A
C494   C1195   1.402   1_554 S
C497   H505    1.084   .     S
C497   C1173   1.402   .     S
C498   H506    1.084   .     S
C498   C1174   1.401   1_554 S
Cu499  N515    2.013   .     S
Cu499  O517    1.964   .     S
Cu499  Cu500   2.679   .     S
Cu499  O521    1.959   .     S
Cu499  O519    1.963   .     S
Cu499  O523    1.958   .     S
Cu500  O520    1.963   .     S
Cu500  N516    2.013   .     S
Cu500  O522    1.959   .     S
Cu500  O518    1.964   .     S
Cu500  O524    1.958   .     S
O525   C526    1.417   .     S
C526   H528    1.115   .     S
C526   C529    1.534   .     S
C526   H527    1.111   .     S
C529   H531    1.111   .     S
C529   H530    1.112   .     S
C529   C688    1.527   1_455 S
C532   H535    1.111   .     S
C532   H534    1.111   .     S
C532   H533    1.111   .     S
C532   C607    1.527   .     S
O536   C537    1.416   .     S
C537   H539    1.117   .     S
C537   H538    1.111   .     S
C537   C540    1.531   .     S
C540   H542    1.111   .     S
C540   H541    1.112   .     S
C540   C75     1.524   1_565 S
C543   H546    1.111   .     S
C543   H544    1.110   .     S
C543   H545    1.110   .     S
C547   C556    1.449   .     S
C547   O598    1.290   .     A
C547   O595    1.291   .     A
C548   O596    1.291   .     A
C548   O597    1.290   .     A
C548   C555    1.449   .     S
C549   C574    1.409   .     A
C549   O603    1.386   .     S
C549   C1277   1.402   1_554 S
C550   C573    1.409   .     A
C550   O614    1.386   .     S
C550   C1278   1.401   .     S
C551   H585    1.083   .     S
C551   C556    1.401   .     A
C552   C555    1.401   .     A
C552   H586    1.083   .     S
C552   C632    1.383   .     S
C553   H587    1.083   .     S
C553   C555    1.401   .     A
C553   C629    1.383   .     S
C554   H588    1.083   .     S
C554   C556    1.401   .     A
C557   H589    1.082   .     S
C557   N594    1.367   .     A
C558   N593    1.367   .     A
C558   H590    1.082   .     S
C558   C91     1.417   1_565 S
C559   N594    1.367   .     A
C559   H591    1.082   .     S
C560   H592    1.082   .     S
C560   N593    1.367   .     A
C560   C89     1.417   1_565 S
C561   C566    1.449   .     S
C561   O599    1.291   .     A
C561   O602    1.292   .     A
C562   O601    1.291   .     A
C562   C565    1.449   .     S
C562   O600    1.291   .     A
C563   H579    1.084   .     S
C563   C573    1.397   .     A
C563   C565    1.397   .     A
C564   C566    1.397   .     A
C564   C574    1.398   .     A
C564   H580    1.084   .     S
C565   C567    1.396   .     A
C566   C568    1.397   .     A
C567   C569    1.394   .     A
C567   H581    1.085   .     S
C568   C570    1.393   .     A
C568   H582    1.085   .     S
C569   C575    1.400   .     A
C569   C571    1.412   .     A
C570   C576    1.400   .     A
C570   C572    1.412   .     A
C571   C573    1.416   .     A
C571   C1274   1.402   .     S
C572   C574    1.416   .     A
C572   C1273   1.402   1_554 S
C575   H583    1.084   .     S
C575   C1251   1.402   .     S
C576   H584    1.084   .     S
C576   C1252   1.401   1_554 S
Cu577  N593    2.013   .     S
Cu577  O595    1.964   .     S
Cu577  Cu578   2.679   .     S
Cu577  O599    1.959   .     S
Cu577  O597    1.963   .     S
Cu577  O601    1.958   .     S
Cu578  O598    1.963   .     S
Cu578  N594    2.013   .     S
Cu578  O600    1.959   .     S
Cu578  O596    1.964   .     S
Cu578  O602    1.958   .     S
O603   C604    1.417   .     S
C604   H606    1.115   .     S
C604   C607    1.534   .     S
C604   H605    1.111   .     S
C607   H609    1.111   .     S
C607   H608    1.112   .     S
C610   H613    1.111   .     S
C610   H612    1.111   .     S
C610   H611    1.111   .     S
C610   C685    1.527   .     S
O614   C615    1.416   .     S
C615   H617    1.117   .     S
C615   H616    1.111   .     S
C615   C618    1.531   .     S
C618   H620    1.111   .     S
C618   H619    1.112   .     S
C618   C153    1.524   1_565 S
C621   H624    1.111   .     S
C621   H622    1.110   .     S
C621   H623    1.110   .     S
C625   C634    1.449   .     S
C625   O676    1.290   .     A
C625   O673    1.291   .     A
C626   O674    1.291   .     A
C626   O675    1.290   .     A
C626   C633    1.449   .     S
C627   C652    1.409   .     A
C627   O681    1.386   .     S
C627   C1355   1.402   1_554 S
C628   C651    1.409   .     A
C628   O692    1.386   .     S
C628   C1356   1.401   .     S
C629   H663    1.083   .     S
C629   C634    1.401   .     A
C630   C633    1.401   .     A
C630   H664    1.083   .     S
C630   C476    1.383   1_655 S
C631   H665    1.083   .     S
C631   C633    1.401   .     A
C631   C473    1.383   1_655 S
C632   H666    1.083   .     S
C632   C634    1.401   .     A
C635   H667    1.082   .     S
C635   N672    1.367   .     A
C636   N671    1.367   .     A
C636   H668    1.082   .     S
C636   C169    1.417   1_565 S
C637   N672    1.367   .     A
C637   H669    1.082   .     S
C638   H670    1.082   .     S
C638   N671    1.367   .     A
C638   C167    1.417   1_565 S
C639   C644    1.449   .     S
C639   O677    1.291   .     A
C639   O680    1.292   .     A
C640   O679    1.291   .     A
C640   C643    1.449   .     S
C640   O678    1.291   .     A
C641   H657    1.084   .     S
C641   C651    1.397   .     A
C641   C643    1.397   .     A
C642   C644    1.397   .     A
C642   C652    1.398   .     A
C642   H658    1.084   .     S
C643   C645    1.396   .     A
C644   C646    1.397   .     A
C645   C647    1.394   .     A
C645   H659    1.085   .     S
C646   C648    1.393   .     A
C646   H660    1.085   .     S
C647   C653    1.400   .     A
C647   C649    1.412   .     A
C648   C654    1.400   .     A
C648   C650    1.412   .     A
C649   C651    1.416   .     A
C649   C1352   1.402   .     S
C650   C652    1.416   .     A
C650   C1351   1.402   1_554 S
C653   H661    1.084   .     S
C653   C1329   1.402   .     S
C654   H662    1.084   .     S
C654   C1330   1.401   1_554 S
Cu655  N671    2.013   .     S
Cu655  O673    1.964   .     S
Cu655  Cu656   2.679   .     S
Cu655  O677    1.959   .     S
Cu655  O675    1.963   .     S
Cu655  O679    1.958   .     S
Cu656  O676    1.963   .     S
Cu656  N672    2.013   .     S
Cu656  O678    1.959   .     S
Cu656  O674    1.964   .     S
Cu656  O680    1.958   .     S
O681   C682    1.417   .     S
C682   H684    1.115   .     S
C682   C685    1.534   .     S
C682   H683    1.111   .     S
C685   H687    1.111   .     S
C685   H686    1.112   .     S
C688   H691    1.111   .     S
C688   H690    1.111   .     S
C688   H689    1.111   .     S
C688   C529    1.527   1_655 S
O692   C693    1.416   .     S
C693   H695    1.117   .     S
C693   H694    1.111   .     S
C693   C696    1.531   .     S
C696   H698    1.111   .     S
C696   H697    1.112   .     S
C696   C231    1.524   1_565 S
C699   H702    1.111   .     S
C699   H700    1.110   .     S
C699   H701    1.110   .     S
C703   C712    1.449   .     S
C703   O754    1.290   .     A
C703   O751    1.291   .     A
C704   O752    1.291   .     A
C704   O753    1.290   .     A
C704   C711    1.449   .     S
C705   C730    1.409   .     A
C705   O759    1.386   .     S
C706   C729    1.409   .     A
C706   O770    1.386   .     S
C706   C30     1.401   1_556 S
C707   H741    1.083   .     S
C707   C712    1.401   .     A
C707   C865    1.383   1_455 S
C708   C711    1.401   .     A
C708   H742    1.083   .     S
C708   C788    1.383   .     S
C709   H743    1.083   .     S
C709   C711    1.401   .     A
C709   C785    1.383   .     S
C710   H744    1.083   .     S
C710   C712    1.401   .     A
C710   C864    1.383   1_455 S
C713   H745    1.082   .     S
C713   N750    1.367   .     A
C713   C1184   1.417   1_545 S
C714   N749    1.367   .     A
C714   H746    1.082   .     S
C714   C949    1.417   .     S
C715   N750    1.367   .     A
C715   H747    1.082   .     S
C715   C1182   1.417   1_545 S
C716   H748    1.082   .     S
C716   N749    1.367   .     A
C716   C947    1.417   .     S
C717   C722    1.449   .     S
C717   O755    1.291   .     A
C717   O758    1.292   .     A
C718   O757    1.291   .     A
C718   C721    1.449   .     S
C718   O756    1.291   .     A
C719   H735    1.084   .     S
C719   C729    1.397   .     A
C719   C721    1.397   .     A
C720   C722    1.397   .     A
C720   C730    1.398   .     A
C720   H736    1.084   .     S
C721   C723    1.396   .     A
C722   C724    1.397   .     A
C723   C725    1.394   .     A
C723   H737    1.085   .     S
C724   C726    1.393   .     A
C724   H738    1.085   .     S
C725   C731    1.400   .     A
C725   C727    1.412   .     A
C726   C732    1.400   .     A
C726   C728    1.412   .     A
C727   C729    1.416   .     A
C727   C26     1.402   1_556 S
C728   C730    1.416   .     A
C731   H739    1.084   .     S
C731   C3      1.402   1_556 S
C732   H740    1.084   .     S
Cu733  N749    2.013   .     S
Cu733  O751    1.964   .     S
Cu733  Cu734   2.679   .     S
Cu733  O755    1.959   .     S
Cu733  O753    1.963   .     S
Cu733  O757    1.958   .     S
Cu734  O754    1.963   .     S
Cu734  N750    2.013   .     S
Cu734  O756    1.959   .     S
Cu734  O752    1.964   .     S
Cu734  O758    1.958   .     S
O759   C760    1.417   .     S
C760   H762    1.115   .     S
C760   C763    1.534   .     S
C760   H761    1.111   .     S
C763   H765    1.111   .     S
C763   H764    1.112   .     S
C763   C922    1.527   1_455 S
C766   H769    1.111   .     S
C766   H768    1.111   .     S
C766   H767    1.111   .     S
C766   C841    1.527   .     S
O770   C771    1.416   .     S
C771   H773    1.117   .     S
C771   H772    1.111   .     S
C771   C774    1.531   .     S
C774   H776    1.111   .     S
C774   H775    1.112   .     S
C774   C1011   1.524   .     S
C777   H780    1.111   .     S
C777   H778    1.110   .     S
C777   H779    1.110   .     S
C777   C1242   1.524   1_545 S
C781   C790    1.449   .     S
C781   O832    1.290   .     A
C781   O829    1.291   .     A
C782   O830    1.291   .     A
C782   O831    1.290   .     A
C782   C789    1.449   .     S
C783   C808    1.409   .     A
C783   O837    1.386   .     S
C784   C807    1.409   .     A
C784   O848    1.386   .     S
C784   C108    1.401   1_556 S
C785   H819    1.083   .     S
C785   C790    1.401   .     A
C786   C789    1.401   .     A
C786   H820    1.083   .     S
C786   C866    1.383   .     S
C787   H821    1.083   .     S
C787   C789    1.401   .     A
C787   C863    1.383   .     S
C788   H822    1.083   .     S
C788   C790    1.401   .     A
C791   H823    1.082   .     S
C791   N828    1.367   .     A
C791   C1262   1.417   1_545 S
C792   N827    1.367   .     A
C792   H824    1.082   .     S
C792   C1027   1.417   .     S
C793   N828    1.367   .     A
C793   H825    1.082   .     S
C793   C1260   1.417   1_545 S
C794   H826    1.082   .     S
C794   N827    1.367   .     A
C794   C1025   1.417   .     S
C795   C800    1.449   .     S
C795   O833    1.291   .     A
C795   O836    1.292   .     A
C796   O835    1.291   .     A
C796   C799    1.449   .     S
C796   O834    1.291   .     A
C797   H813    1.084   .     S
C797   C807    1.397   .     A
C797   C799    1.397   .     A
C798   C800    1.397   .     A
C798   C808    1.398   .     A
C798   H814    1.084   .     S
C799   C801    1.396   .     A
C800   C802    1.397   .     A
C801   C803    1.394   .     A
C801   H815    1.085   .     S
C802   C804    1.393   .     A
C802   H816    1.085   .     S
C803   C809    1.400   .     A
C803   C805    1.412   .     A
C804   C810    1.400   .     A
C804   C806    1.412   .     A
C805   C807    1.416   .     A
C805   C104    1.402   1_556 S
C806   C808    1.416   .     A
C809   H817    1.084   .     S
C809   C81     1.402   1_556 S
C810   H818    1.084   .     S
Cu811  N827    2.013   .     S
Cu811  O829    1.964   .     S
Cu811  Cu812   2.679   .     S
Cu811  O833    1.959   .     S
Cu811  O831    1.963   .     S
Cu811  O835    1.958   .     S
Cu812  O832    1.963   .     S
Cu812  N828    2.013   .     S
Cu812  O834    1.959   .     S
Cu812  O830    1.964   .     S
Cu812  O836    1.958   .     S
O837   C838    1.417   .     S
C838   H840    1.115   .     S
C838   C841    1.534   .     S
C838   H839    1.111   .     S
C841   H843    1.111   .     S
C841   H842    1.112   .     S
C844   H847    1.111   .     S
C844   H846    1.111   .     S
C844   H845    1.111   .     S
C844   C919    1.527   .     S
O848   C849    1.416   .     S
C849   H851    1.117   .     S
C849   H850    1.111   .     S
C849   C852    1.531   .     S
C852   H854    1.111   .     S
C852   H853    1.112   .     S
C852   C1089   1.524   .     S
C855   H858    1.111   .     S
C855   H856    1.110   .     S
C855   H857    1.110   .     S
C855   C1320   1.524   1_545 S
C859   C868    1.449   .     S
C859   O910    1.290   .     A
C859   O907    1.291   .     A
C860   O908    1.291   .     A
C860   O909    1.290   .     A
C860   C867    1.449   .     S
C861   C886    1.409   .     A
C861   O915    1.386   .     S
C862   C885    1.409   .     A
C862   O926    1.386   .     S
C862   C186    1.401   1_556 S
C863   H897    1.083   .     S
C863   C868    1.401   .     A
C864   C867    1.401   .     A
C864   H898    1.083   .     S
C864   C710    1.383   1_655 S
C865   H899    1.083   .     S
C865   C867    1.401   .     A
C865   C707    1.383   1_655 S
C866   H900    1.083   .     S
C866   C868    1.401   .     A
C869   H901    1.082   .     S
C869   N906    1.367   .     A
C869   C1340   1.417   1_545 S
C870   N905    1.367   .     A
C870   H902    1.082   .     S
C870   C1105   1.417   .     S
C871   N906    1.367   .     A
C871   H903    1.082   .     S
C871   C1338   1.417   1_545 S
C872   H904    1.082   .     S
C872   N905    1.367   .     A
C872   C1103   1.417   .     S
C873   C878    1.449   .     S
C873   O911    1.291   .     A
C873   O914    1.292   .     A
C874   O913    1.291   .     A
C874   C877    1.449   .     S
C874   O912    1.291   .     A
C875   H891    1.084   .     S
C875   C885    1.397   .     A
C875   C877    1.397   .     A
C876   C878    1.397   .     A
C876   C886    1.398   .     A
C876   H892    1.084   .     S
C877   C879    1.396   .     A
C878   C880    1.397   .     A
C879   C881    1.394   .     A
C879   H893    1.085   .     S
C880   C882    1.393   .     A
C880   H894    1.085   .     S
C881   C887    1.400   .     A
C881   C883    1.412   .     A
C882   C888    1.400   .     A
C882   C884    1.412   .     A
C883   C885    1.416   .     A
C883   C182    1.402   1_556 S
C884   C886    1.416   .     A
C887   H895    1.084   .     S
C887   C159    1.402   1_556 S
C888   H896    1.084   .     S
Cu889  N905    2.013   .     S
Cu889  O907    1.964   .     S
Cu889  Cu890   2.679   .     S
Cu889  O911    1.959   .     S
Cu889  O909    1.963   .     S
Cu889  O913    1.958   .     S
Cu890  O910    1.963   .     S
Cu890  N906    2.013   .     S
Cu890  O912    1.959   .     S
Cu890  O908    1.964   .     S
Cu890  O914    1.958   .     S
O915   C916    1.417   .     S
C916   H918    1.115   .     S
C916   C919    1.534   .     S
C916   H917    1.111   .     S
C919   H921    1.111   .     S
C919   H920    1.112   .     S
C922   H925    1.111   .     S
C922   H924    1.111   .     S
C922   H923    1.111   .     S
C922   C763    1.527   1_655 S
O926   C927    1.416   .     S
C927   H929    1.117   .     S
C927   H928    1.111   .     S
C927   C930    1.531   .     S
C930   H932    1.111   .     S
C930   H931    1.112   .     S
C930   C1167   1.524   .     S
C933   H936    1.111   .     S
C933   H934    1.110   .     S
C933   H935    1.110   .     S
C933   C1398   1.524   1_545 S
C937   C946    1.449   .     S
C937   O988    1.290   .     A
C937   O985    1.291   .     A
C938   O986    1.291   .     A
C938   O987    1.290   .     A
C938   C945    1.449   .     S
C939   C964    1.409   .     A
C939   O993    1.386   .     S
C940   C963    1.409   .     A
C940   O1004   1.386   .     S
C940   C264    1.401   1_556 S
C941   H975    1.083   .     S
C941   C946    1.401   .     A
C941   C1099   1.383   1_455 S
C942   C945    1.401   .     A
C942   H976    1.083   .     S
C942   C1022   1.383   .     S
C943   H977    1.083   .     S
C943   C945    1.401   .     A
C943   C1019   1.383   .     S
C944   H978    1.083   .     S
C944   C946    1.401   .     A
C944   C1098   1.383   1_455 S
C947   H979    1.082   .     S
C947   N984    1.367   .     A
C948   N983    1.367   .     A
C948   H980    1.082   .     S
C948   C1183   1.417   .     S
C949   N984    1.367   .     A
C949   H981    1.082   .     S
C950   H982    1.082   .     S
C950   N983    1.367   .     A
C950   C1181   1.417   .     S
C951   C956    1.449   .     S
C951   O989    1.291   .     A
C951   O992    1.292   .     A
C952   O991    1.291   .     A
C952   C955    1.449   .     S
C952   O990    1.291   .     A
C953   H969    1.084   .     S
C953   C963    1.397   .     A
C953   C955    1.397   .     A
C954   C956    1.397   .     A
C954   C964    1.398   .     A
C954   H970    1.084   .     S
C955   C957    1.396   .     A
C956   C958    1.397   .     A
C957   C959    1.394   .     A
C957   H971    1.085   .     S
C958   C960    1.393   .     A
C958   H972    1.085   .     S
C959   C965    1.400   .     A
C959   C961    1.412   .     A
C960   C966    1.400   .     A
C960   C962    1.412   .     A
C961   C963    1.416   .     A
C961   C260    1.402   1_556 S
C962   C964    1.416   .     A
C965   H973    1.084   .     S
C965   C237    1.402   1_556 S
C966   H974    1.084   .     S
Cu967  N983    2.013   .     S
Cu967  O985    1.964   .     S
Cu967  Cu968   2.679   .     S
Cu967  O989    1.959   .     S
Cu967  O987    1.963   .     S
Cu967  O991    1.958   .     S
Cu968  O988    1.963   .     S
Cu968  N984    2.013   .     S
Cu968  O990    1.959   .     S
Cu968  O986    1.964   .     S
Cu968  O992    1.958   .     S
O993   C994    1.417   .     S
C994   H996    1.115   .     S
C994   C997    1.534   .     S
C994   H995    1.111   .     S
C997   H999    1.111   .     S
C997   H998    1.112   .     S
C997   C1156   1.527   1_455 S
C1000  H1003   1.111   .     S
C1000  H1002   1.111   .     S
C1000  H1001   1.111   .     S
C1000  C1075   1.527   .     S
O1004  C1005   1.416   .     S
C1005  H1007   1.117   .     S
C1005  H1006   1.111   .     S
C1005  C1008   1.531   .     S
C1008  H1010   1.111   .     S
C1008  H1009   1.112   .     S
C1008  C1245   1.524   .     S
C1011  H1014   1.111   .     S
C1011  H1012   1.110   .     S
C1011  H1013   1.110   .     S
C1015  C1024   1.449   .     S
C1015  O1066   1.290   .     A
C1015  O1063   1.291   .     A
C1016  O1064   1.291   .     A
C1016  O1065   1.290   .     A
C1016  C1023   1.449   .     S
C1017  C1042   1.409   .     A
C1017  O1071   1.386   .     S
C1018  C1041   1.409   .     A
C1018  O1082   1.386   .     S
C1018  C342    1.401   1_556 S
C1019  H1053   1.083   .     S
C1019  C1024   1.401   .     A
C1020  C1023   1.401   .     A
C1020  H1054   1.083   .     S
C1020  C1100   1.383   .     S
C1021  H1055   1.083   .     S
C1021  C1023   1.401   .     A
C1021  C1097   1.383   .     S
C1022  H1056   1.083   .     S
C1022  C1024   1.401   .     A
C1025  H1057   1.082   .     S
C1025  N1062   1.367   .     A
C1026  N1061   1.367   .     A
C1026  H1058   1.082   .     S
C1026  C1261   1.417   .     S
C1027  N1062   1.367   .     A
C1027  H1059   1.082   .     S
C1028  H1060   1.082   .     S
C1028  N1061   1.367   .     A
C1028  C1259   1.417   .     S
C1029  C1034   1.449   .     S
C1029  O1067   1.291   .     A
C1029  O1070   1.292   .     A
C1030  O1069   1.291   .     A
C1030  C1033   1.449   .     S
C1030  O1068   1.291   .     A
C1031  H1047   1.084   .     S
C1031  C1041   1.397   .     A
C1031  C1033   1.397   .     A
C1032  C1034   1.397   .     A
C1032  C1042   1.398   .     A
C1032  H1048   1.084   .     S
C1033  C1035   1.396   .     A
C1034  C1036   1.397   .     A
C1035  C1037   1.394   .     A
C1035  H1049   1.085   .     S
C1036  C1038   1.393   .     A
C1036  H1050   1.085   .     S
C1037  C1043   1.400   .     A
C1037  C1039   1.412   .     A
C1038  C1044   1.400   .     A
C1038  C1040   1.412   .     A
C1039  C1041   1.416   .     A
C1039  C338    1.402   1_556 S
C1040  C1042   1.416   .     A
C1043  H1051   1.084   .     S
C1043  C315    1.402   1_556 S
C1044  H1052   1.084   .     S
Cu1045 N1061   2.013   .     S
Cu1045 O1063   1.964   .     S
Cu1045 Cu1046  2.679   .     S
Cu1045 O1067   1.959   .     S
Cu1045 O1065   1.963   .     S
Cu1045 O1069   1.958   .     S
Cu1046 O1066   1.963   .     S
Cu1046 N1062   2.013   .     S
Cu1046 O1068   1.959   .     S
Cu1046 O1064   1.964   .     S
Cu1046 O1070   1.958   .     S
O1071  C1072   1.417   .     S
C1072  H1074   1.115   .     S
C1072  C1075   1.534   .     S
C1072  H1073   1.111   .     S
C1075  H1077   1.111   .     S
C1075  H1076   1.112   .     S
C1078  H1081   1.111   .     S
C1078  H1080   1.111   .     S
C1078  H1079   1.111   .     S
C1078  C1153   1.527   .     S
O1082  C1083   1.416   .     S
C1083  H1085   1.117   .     S
C1083  H1084   1.111   .     S
C1083  C1086   1.531   .     S
C1086  H1088   1.111   .     S
C1086  H1087   1.112   .     S
C1086  C1323   1.524   .     S
C1089  H1092   1.111   .     S
C1089  H1090   1.110   .     S
C1089  H1091   1.110   .     S
C1093  C1102   1.449   .     S
C1093  O1144   1.290   .     A
C1093  O1141   1.291   .     A
C1094  O1142   1.291   .     A
C1094  O1143   1.290   .     A
C1094  C1101   1.449   .     S
C1095  C1120   1.409   .     A
C1095  O1149   1.386   .     S
C1096  C1119   1.409   .     A
C1096  O1160   1.386   .     S
C1096  C420    1.401   1_556 S
C1097  H1131   1.083   .     S
C1097  C1102   1.401   .     A
C1098  C1101   1.401   .     A
C1098  H1132   1.083   .     S
C1098  C944    1.383   1_655 S
C1099  H1133   1.083   .     S
C1099  C1101   1.401   .     A
C1099  C941    1.383   1_655 S
C1100  H1134   1.083   .     S
C1100  C1102   1.401   .     A
C1103  H1135   1.082   .     S
C1103  N1140   1.367   .     A
C1104  N1139   1.367   .     A
C1104  H1136   1.082   .     S
C1104  C1339   1.417   .     S
C1105  N1140   1.367   .     A
C1105  H1137   1.082   .     S
C1106  H1138   1.082   .     S
C1106  N1139   1.367   .     A
C1106  C1337   1.417   .     S
C1107  C1112   1.449   .     S
C1107  O1145   1.291   .     A
C1107  O1148   1.292   .     A
C1108  O1147   1.291   .     A
C1108  C1111   1.449   .     S
C1108  O1146   1.291   .     A
C1109  H1125   1.084   .     S
C1109  C1119   1.397   .     A
C1109  C1111   1.397   .     A
C1110  C1112   1.397   .     A
C1110  C1120   1.398   .     A
C1110  H1126   1.084   .     S
C1111  C1113   1.396   .     A
C1112  C1114   1.397   .     A
C1113  C1115   1.394   .     A
C1113  H1127   1.085   .     S
C1114  C1116   1.393   .     A
C1114  H1128   1.085   .     S
C1115  C1121   1.400   .     A
C1115  C1117   1.412   .     A
C1116  C1122   1.400   .     A
C1116  C1118   1.412   .     A
C1117  C1119   1.416   .     A
C1117  C416    1.402   1_556 S
C1118  C1120   1.416   .     A
C1121  H1129   1.084   .     S
C1121  C393    1.402   1_556 S
C1122  H1130   1.084   .     S
Cu1123 N1139   2.013   .     S
Cu1123 O1141   1.964   .     S
Cu1123 Cu1124  2.679   .     S
Cu1123 O1145   1.959   .     S
Cu1123 O1143   1.963   .     S
Cu1123 O1147   1.958   .     S
Cu1124 O1144   1.963   .     S
Cu1124 N1140   2.013   .     S
Cu1124 O1146   1.959   .     S
Cu1124 O1142   1.964   .     S
Cu1124 O1148   1.958   .     S
O1149  C1150   1.417   .     S
C1150  H1152   1.115   .     S
C1150  C1153   1.534   .     S
C1150  H1151   1.111   .     S
C1153  H1155   1.111   .     S
C1153  H1154   1.112   .     S
C1156  H1159   1.111   .     S
C1156  H1158   1.111   .     S
C1156  H1157   1.111   .     S
C1156  C997    1.527   1_655 S
O1160  C1161   1.416   .     S
C1161  H1163   1.117   .     S
C1161  H1162   1.111   .     S
C1161  C1164   1.531   .     S
C1164  H1166   1.111   .     S
C1164  H1165   1.112   .     S
C1164  C1401   1.524   .     S
C1167  H1170   1.111   .     S
C1167  H1168   1.110   .     S
C1167  H1169   1.110   .     S
C1171  C1180   1.449   .     S
C1171  O1222   1.290   .     A
C1171  O1219   1.291   .     A
C1172  O1220   1.291   .     A
C1172  O1221   1.290   .     A
C1172  C1179   1.449   .     S
C1173  C1198   1.409   .     A
C1173  O1227   1.386   .     S
C1174  C1197   1.409   .     A
C1174  O1238   1.386   .     S
C1174  C498    1.401   1_556 S
C1175  H1209   1.083   .     S
C1175  C1180   1.401   .     A
C1175  C1333   1.383   1_455 S
C1176  C1179   1.401   .     A
C1176  H1210   1.083   .     S
C1176  C1256   1.383   .     S
C1177  H1211   1.083   .     S
C1177  C1179   1.401   .     A
C1177  C1253   1.383   .     S
C1178  H1212   1.083   .     S
C1178  C1180   1.401   .     A
C1178  C1332   1.383   1_455 S
C1181  H1213   1.082   .     S
C1181  N1218   1.367   .     A
C1182  N1217   1.367   .     A
C1182  H1214   1.082   .     S
C1182  C715    1.417   1_565 S
C1183  N1218   1.367   .     A
C1183  H1215   1.082   .     S
C1184  H1216   1.082   .     S
C1184  N1217   1.367   .     A
C1184  C713    1.417   1_565 S
C1185  C1190   1.449   .     S
C1185  O1223   1.291   .     A
C1185  O1226   1.292   .     A
C1186  O1225   1.291   .     A
C1186  C1189   1.449   .     S
C1186  O1224   1.291   .     A
C1187  H1203   1.084   .     S
C1187  C1197   1.397   .     A
C1187  C1189   1.397   .     A
C1188  C1190   1.397   .     A
C1188  C1198   1.398   .     A
C1188  H1204   1.084   .     S
C1189  C1191   1.396   .     A
C1190  C1192   1.397   .     A
C1191  C1193   1.394   .     A
C1191  H1205   1.085   .     S
C1192  C1194   1.393   .     A
C1192  H1206   1.085   .     S
C1193  C1199   1.400   .     A
C1193  C1195   1.412   .     A
C1194  C1200   1.400   .     A
C1194  C1196   1.412   .     A
C1195  C1197   1.416   .     A
C1195  C494    1.402   1_556 S
C1196  C1198   1.416   .     A
C1199  H1207   1.084   .     S
C1199  C471    1.402   1_556 S
C1200  H1208   1.084   .     S
Cu1201 N1217   2.013   .     S
Cu1201 O1219   1.964   .     S
Cu1201 Cu1202  2.679   .     S
Cu1201 O1223   1.959   .     S
Cu1201 O1221   1.963   .     S
Cu1201 O1225   1.958   .     S
Cu1202 O1222   1.963   .     S
Cu1202 N1218   2.013   .     S
Cu1202 O1224   1.959   .     S
Cu1202 O1220   1.964   .     S
Cu1202 O1226   1.958   .     S
O1227  C1228   1.417   .     S
C1228  H1230   1.115   .     S
C1228  C1231   1.534   .     S
C1228  H1229   1.111   .     S
C1231  H1233   1.111   .     S
C1231  H1232   1.112   .     S
C1231  C1390   1.527   1_455 S
C1234  H1237   1.111   .     S
C1234  H1236   1.111   .     S
C1234  H1235   1.111   .     S
C1234  C1309   1.527   .     S
O1238  C1239   1.416   .     S
C1239  H1241   1.117   .     S
C1239  H1240   1.111   .     S
C1239  C1242   1.531   .     S
C1242  H1244   1.111   .     S
C1242  H1243   1.112   .     S
C1242  C777    1.524   1_565 S
C1245  H1248   1.111   .     S
C1245  H1246   1.110   .     S
C1245  H1247   1.110   .     S
C1249  C1258   1.449   .     S
C1249  O1300   1.290   .     A
C1249  O1297   1.291   .     A
C1250  O1298   1.291   .     A
C1250  O1299   1.290   .     A
C1250  C1257   1.449   .     S
C1251  C1276   1.409   .     A
C1251  O1305   1.386   .     S
C1252  C1275   1.409   .     A
C1252  O1316   1.386   .     S
C1252  C576    1.401   1_556 S
C1253  H1287   1.083   .     S
C1253  C1258   1.401   .     A
C1254  C1257   1.401   .     A
C1254  H1288   1.083   .     S
C1254  C1334   1.383   .     S
C1255  H1289   1.083   .     S
C1255  C1257   1.401   .     A
C1255  C1331   1.383   .     S
C1256  H1290   1.083   .     S
C1256  C1258   1.401   .     A
C1259  H1291   1.082   .     S
C1259  N1296   1.367   .     A
C1260  N1295   1.367   .     A
C1260  H1292   1.082   .     S
C1260  C793    1.417   1_565 S
C1261  N1296   1.367   .     A
C1261  H1293   1.082   .     S
C1262  H1294   1.082   .     S
C1262  N1295   1.367   .     A
C1262  C791    1.417   1_565 S
C1263  C1268   1.449   .     S
C1263  O1301   1.291   .     A
C1263  O1304   1.292   .     A
C1264  O1303   1.291   .     A
C1264  C1267   1.449   .     S
C1264  O1302   1.291   .     A
C1265  H1281   1.084   .     S
C1265  C1275   1.397   .     A
C1265  C1267   1.397   .     A
C1266  C1268   1.397   .     A
C1266  C1276   1.398   .     A
C1266  H1282   1.084   .     S
C1267  C1269   1.396   .     A
C1268  C1270   1.397   .     A
C1269  C1271   1.394   .     A
C1269  H1283   1.085   .     S
C1270  C1272   1.393   .     A
C1270  H1284   1.085   .     S
C1271  C1277   1.400   .     A
C1271  C1273   1.412   .     A
C1272  C1278   1.400   .     A
C1272  C1274   1.412   .     A
C1273  C1275   1.416   .     A
C1273  C572    1.402   1_556 S
C1274  C1276   1.416   .     A
C1277  H1285   1.084   .     S
C1277  C549    1.402   1_556 S
C1278  H1286   1.084   .     S
Cu1279 N1295   2.013   .     S
Cu1279 O1297   1.964   .     S
Cu1279 Cu1280  2.679   .     S
Cu1279 O1301   1.959   .     S
Cu1279 O1299   1.963   .     S
Cu1279 O1303   1.958   .     S
Cu1280 O1300   1.963   .     S
Cu1280 N1296   2.013   .     S
Cu1280 O1302   1.959   .     S
Cu1280 O1298   1.964   .     S
Cu1280 O1304   1.958   .     S
O1305  C1306   1.417   .     S
C1306  H1308   1.115   .     S
C1306  C1309   1.534   .     S
C1306  H1307   1.111   .     S
C1309  H1311   1.111   .     S
C1309  H1310   1.112   .     S
C1312  H1315   1.111   .     S
C1312  H1314   1.111   .     S
C1312  H1313   1.111   .     S
C1312  C1387   1.527   .     S
O1316  C1317   1.416   .     S
C1317  H1319   1.117   .     S
C1317  H1318   1.111   .     S
C1317  C1320   1.531   .     S
C1320  H1322   1.111   .     S
C1320  H1321   1.112   .     S
C1320  C855    1.524   1_565 S
C1323  H1326   1.111   .     S
C1323  H1324   1.110   .     S
C1323  H1325   1.110   .     S
C1327  C1336   1.449   .     S
C1327  O1378   1.290   .     A
C1327  O1375   1.291   .     A
C1328  O1376   1.291   .     A
C1328  O1377   1.290   .     A
C1328  C1335   1.449   .     S
C1329  C1354   1.409   .     A
C1329  O1383   1.386   .     S
C1330  C1353   1.409   .     A
C1330  O1394   1.386   .     S
C1330  C654    1.401   1_556 S
C1331  H1365   1.083   .     S
C1331  C1336   1.401   .     A
C1332  C1335   1.401   .     A
C1332  H1366   1.083   .     S
C1332  C1178   1.383   1_655 S
C1333  H1367   1.083   .     S
C1333  C1335   1.401   .     A
C1333  C1175   1.383   1_655 S
C1334  H1368   1.083   .     S
C1334  C1336   1.401   .     A
C1337  H1369   1.082   .     S
C1337  N1374   1.367   .     A
C1338  N1373   1.367   .     A
C1338  H1370   1.082   .     S
C1338  C871    1.417   1_565 S
C1339  N1374   1.367   .     A
C1339  H1371   1.082   .     S
C1340  H1372   1.082   .     S
C1340  N1373   1.367   .     A
C1340  C869    1.417   1_565 S
C1341  C1346   1.449   .     S
C1341  O1379   1.291   .     A
C1341  O1382   1.292   .     A
C1342  O1381   1.291   .     A
C1342  C1345   1.449   .     S
C1342  O1380   1.291   .     A
C1343  H1359   1.084   .     S
C1343  C1353   1.397   .     A
C1343  C1345   1.397   .     A
C1344  C1346   1.397   .     A
C1344  C1354   1.398   .     A
C1344  H1360   1.084   .     S
C1345  C1347   1.396   .     A
C1346  C1348   1.397   .     A
C1347  C1349   1.394   .     A
C1347  H1361   1.085   .     S
C1348  C1350   1.393   .     A
C1348  H1362   1.085   .     S
C1349  C1355   1.400   .     A
C1349  C1351   1.412   .     A
C1350  C1356   1.400   .     A
C1350  C1352   1.412   .     A
C1351  C1353   1.416   .     A
C1351  C650    1.402   1_556 S
C1352  C1354   1.416   .     A
C1355  H1363   1.084   .     S
C1355  C627    1.402   1_556 S
C1356  H1364   1.084   .     S
Cu1357 N1373   2.013   .     S
Cu1357 O1375   1.964   .     S
Cu1357 Cu1358  2.679   .     S
Cu1357 O1379   1.959   .     S
Cu1357 O1377   1.963   .     S
Cu1357 O1381   1.958   .     S
Cu1358 O1378   1.963   .     S
Cu1358 N1374   2.013   .     S
Cu1358 O1380   1.959   .     S
Cu1358 O1376   1.964   .     S
Cu1358 O1382   1.958   .     S
O1383  C1384   1.417   .     S
C1384  H1386   1.115   .     S
C1384  C1387   1.534   .     S
C1384  H1385   1.111   .     S
C1387  H1389   1.111   .     S
C1387  H1388   1.112   .     S
C1390  H1393   1.111   .     S
C1390  H1392   1.111   .     S
C1390  H1391   1.111   .     S
C1390  C1231   1.527   1_655 S
O1394  C1395   1.416   .     S
C1395  H1397   1.117   .     S
C1395  H1396   1.111   .     S
C1395  C1398   1.531   .     S
C1398  H1400   1.111   .     S
C1398  H1399   1.112   .     S
C1398  C933    1.524   1_565 S
C1401  H1404   1.111   .     S
C1401  H1402   1.110   .     S
C1401  H1403   1.110   .     S
