data_str_m3_o10_o18_pcu_sym.89
_audit_creation_date              2020-01-03
_audit_creation_method            'Materials Studio'
_symmetry_space_group_name_H-M    'P1'
_symmetry_Int_Tables_number       1
_symmetry_cell_setting            triclinic
loop_
_symmetry_equiv_pos_as_xyz
  x,y,z
_cell_length_a                    23.7094
_cell_length_b                    25.0839
_cell_length_c                    27.6292
_cell_angle_alpha                 93.5428
_cell_angle_beta                  93.5806
_cell_angle_gamma                 93.8362
loop_
_atom_site_label
_atom_site_type_symbol
_atom_site_fract_x
_atom_site_fract_y
_atom_site_fract_z
_atom_site_U_iso_or_equiv
_atom_site_adp_type
_atom_site_occupancy
C1     C     0.01348   0.26416   0.24198   0.00000  Uiso   1.00
C2     C     0.31236   0.16338   0.15915   0.00000  Uiso   1.00
C3     C     0.03327   0.18078   0.39273   0.00000  Uiso   1.00
C4     C     0.30278   0.16079   0.10671   0.00000  Uiso   1.00
C5     C     0.02599   0.23670   0.46585   0.00000  Uiso   1.00
C6     C     0.32063   0.12265   0.02741   0.00000  Uiso   1.00
C7     C     0.00397   0.21757   0.41971   0.00000  Uiso   1.00
C8     C     0.00367   0.13215   0.07655   0.00000  Uiso   1.00
C9     C     0.08210   0.16100   0.41266   0.00000  Uiso   1.00
C10    C     0.25563   0.18389   0.08732   0.00000  Uiso   1.00
C11    C     0.10827   0.18377   0.45637   0.00000  Uiso   1.00
C12    C     0.31723   0.06804   0.24410   0.00000  Uiso   1.00
C13    C     0.23741   0.17395   0.03840   0.00000  Uiso   1.00
C14    C     0.07867   0.22113   0.48381   0.00000  Uiso   1.00
C15    C     0.26979   0.14129   0.00866   0.00000  Uiso   1.00
C16    C     0.16338   0.17128   0.47279   0.00000  Uiso   1.00
C17    C     0.18557   0.19190   0.01951   0.00000  Uiso   1.00
C18    C     0.06846   0.33285   0.19420   0.00000  Uiso   1.00
C19    C     0.07885   0.29220   0.15278   0.00000  Uiso   1.00
C20    C     0.24949   0.32913   0.19837   0.00000  Uiso   1.00
C21    C     0.24985   0.01321   0.14637   0.00000  Uiso   1.00
C22    C     0.15892   0.13850   0.18907   0.00000  Uiso   1.00
C23    C     0.15502   0.22936   0.04588   0.00000  Uiso   1.00
C24    C     0.17211   0.20460   0.30756   0.00000  Uiso   1.00
C25    C     0.19763   0.14012   0.44354   0.00000  Uiso   1.00
C26    C     0.10264   0.24375   0.02803   0.00000  Uiso   1.00
C27    C     0.25022   0.12616   0.46109   0.00000  Uiso   1.00
C28    C     0.01724   0.31575   0.22169   0.00000  Uiso   1.00
C29    C     0.30607   0.01264   0.22610   0.00000  Uiso   1.00
C30    C     0.02124   0.17084   0.34082   0.00000  Uiso   1.00
H31    H     0.08089   0.27319   0.04862   0.00000  Uiso   1.00
H32    H     0.18572   0.12652   0.40640   0.00000  Uiso   1.00
H33    H     0.09806   0.25655   0.16666   0.00000  Uiso   1.00
H34    H     0.03871   0.27945   0.13102   0.00000  Uiso   1.00
H35    H     0.10893   0.31106   0.12869   0.00000  Uiso   1.00
H36    H     0.06160   0.03753   0.17685   0.00000  Uiso   1.00
H37    H     0.10672   0.00552   0.21978   0.00000  Uiso   1.00
H38    H     0.25916   0.05710   0.14627   0.00000  Uiso   1.00
H39    H     0.20788   0.00260   0.12699   0.00000  Uiso   1.00
H40    H     0.28227   0.32595   0.12641   0.00000  Uiso   1.00
H41    H     0.23939   0.28525   0.19597   0.00000  Uiso   1.00
H42    H     0.27495   0.10198   0.43770   0.00000  Uiso   1.00
H43    H     0.21461   0.01399   0.21702   0.00000  Uiso   1.00
H44    H     0.16524   0.16968   0.16409   0.00000  Uiso   1.00
H45    H     0.18336   0.18605   0.34086   0.00000  Uiso   1.00
H46    H     0.23171   0.20641   0.11218   0.00000  Uiso   1.00
H47    H     0.10015   0.12953   0.39172   0.00000  Uiso   1.00
H48    H     0.04113   0.11480   0.09134   0.00000  Uiso   1.00
H49    H     0.29905   0.23313   0.40441   0.00000  Uiso   1.00
H50    H     0.00325   0.26544   0.48649   0.00000  Uiso   1.00
H51    H     0.01285   0.09867   0.00462   0.00000  Uiso   1.00
H52    H     0.17131   0.24991   0.07972   0.00000  Uiso   1.00
N53    N     0.14695   0.15216   0.23740   0.00000  Uiso   1.00
N54    N     0.18638   0.18117   0.26261   0.00000  Uiso   1.00
O55    O     0.29719   0.24631   0.25310   0.00000  Uiso   1.00
O56    O     0.15097   0.24763   0.30946   0.00000  Uiso   1.00
O57    O     0.03614   0.08702   0.24691   0.00000  Uiso   1.00
O58    O     0.05822   0.23702   0.24502   0.00000  Uiso   1.00
O59    O     0.27512   0.09632   0.25499   0.00000  Uiso   1.00
O60    O     0.30328   0.17397   0.32247   0.00000  Uiso   1.00
O61    O     0.03005   0.15937   0.17753   0.00000  Uiso   1.00
O62    O     0.06431   0.16467   0.31439   0.00000  Uiso   1.00
O63    O     0.26902   0.16866   0.18561   0.00000  Uiso   1.00
O64    O     0.15887   0.09170   0.17450   0.00000  Uiso   1.00
Zn65   Zn    0.27033   0.17287   0.25540   0.00000  Uiso   1.00
Zn66   Zn    0.06300   0.16046   0.24461   0.00000  Uiso   1.00
C67    C     0.34681   0.26416   0.24198   0.00000  Uiso   1.00
C68    C     0.64569   0.16338   0.15915   0.00000  Uiso   1.00
C69    C     0.36661   0.18078   0.39273   0.00000  Uiso   1.00
C70    C     0.63612   0.16079   0.10671   0.00000  Uiso   1.00
C71    C     0.35932   0.23670   0.46585   0.00000  Uiso   1.00
C72    C     0.65396   0.12265   0.02741   0.00000  Uiso   1.00
C73    C     0.33730   0.21757   0.41971   0.00000  Uiso   1.00
C74    C     0.33700   0.13215   0.07655   0.00000  Uiso   1.00
C75    C     0.41543   0.16100   0.41266   0.00000  Uiso   1.00
C76    C     0.58897   0.18389   0.08732   0.00000  Uiso   1.00
C77    C     0.44161   0.18377   0.45637   0.00000  Uiso   1.00
C78    C     0.65056   0.06804   0.24410   0.00000  Uiso   1.00
C79    C     0.57074   0.17395   0.03840   0.00000  Uiso   1.00
C80    C     0.41200   0.22113   0.48381   0.00000  Uiso   1.00
C81    C     0.60312   0.14129   0.00866   0.00000  Uiso   1.00
C82    C     0.49671   0.17128   0.47279   0.00000  Uiso   1.00
C83    C     0.51890   0.19190   0.01951   0.00000  Uiso   1.00
C84    C     0.40179   0.33285   0.19420   0.00000  Uiso   1.00
C85    C     0.41219   0.29220   0.15278   0.00000  Uiso   1.00
C86    C     0.58282   0.32913   0.19837   0.00000  Uiso   1.00
C87    C     0.58318   0.01321   0.14637   0.00000  Uiso   1.00
C88    C     0.49225   0.13850   0.18907   0.00000  Uiso   1.00
C89    C     0.48835   0.22936   0.04588   0.00000  Uiso   1.00
C90    C     0.50544   0.20460   0.30756   0.00000  Uiso   1.00
C91    C     0.53096   0.14012   0.44354   0.00000  Uiso   1.00
C92    C     0.43598   0.24375   0.02803   0.00000  Uiso   1.00
C93    C     0.58356   0.12616   0.46109   0.00000  Uiso   1.00
C94    C     0.35057   0.31575   0.22169   0.00000  Uiso   1.00
C95    C     0.63940   0.01264   0.22610   0.00000  Uiso   1.00
C96    C     0.35457   0.17084   0.34082   0.00000  Uiso   1.00
H97    H     0.41423   0.27319   0.04862   0.00000  Uiso   1.00
H98    H     0.51905   0.12652   0.40640   0.00000  Uiso   1.00
H99    H     0.43140   0.25655   0.16666   0.00000  Uiso   1.00
H100   H     0.37205   0.27945   0.13102   0.00000  Uiso   1.00
H101   H     0.44226   0.31106   0.12869   0.00000  Uiso   1.00
H102   H     0.39493   0.03753   0.17685   0.00000  Uiso   1.00
H103   H     0.44006   0.00552   0.21978   0.00000  Uiso   1.00
H104   H     0.59250   0.05710   0.14627   0.00000  Uiso   1.00
H105   H     0.54121   0.00260   0.12699   0.00000  Uiso   1.00
H106   H     0.61560   0.32595   0.12641   0.00000  Uiso   1.00
H107   H     0.57273   0.28525   0.19597   0.00000  Uiso   1.00
H108   H     0.60829   0.10198   0.43770   0.00000  Uiso   1.00
H109   H     0.54795   0.01399   0.21702   0.00000  Uiso   1.00
H110   H     0.49857   0.16968   0.16409   0.00000  Uiso   1.00
H111   H     0.51669   0.18605   0.34086   0.00000  Uiso   1.00
H112   H     0.56504   0.20641   0.11218   0.00000  Uiso   1.00
H113   H     0.43349   0.12953   0.39172   0.00000  Uiso   1.00
H114   H     0.37446   0.11480   0.09134   0.00000  Uiso   1.00
H115   H     0.63238   0.23313   0.40441   0.00000  Uiso   1.00
H116   H     0.33659   0.26544   0.48649   0.00000  Uiso   1.00
H117   H     0.34618   0.09867   0.00462   0.00000  Uiso   1.00
H118   H     0.50464   0.24991   0.07972   0.00000  Uiso   1.00
N119   N     0.48029   0.15216   0.23740   0.00000  Uiso   1.00
N120   N     0.51971   0.18117   0.26261   0.00000  Uiso   1.00
O121   O     0.63052   0.24631   0.25310   0.00000  Uiso   1.00
O122   O     0.48430   0.24763   0.30946   0.00000  Uiso   1.00
O123   O     0.36948   0.08702   0.24691   0.00000  Uiso   1.00
O124   O     0.39155   0.23702   0.24502   0.00000  Uiso   1.00
O125   O     0.60845   0.09632   0.25499   0.00000  Uiso   1.00
O126   O     0.63662   0.17397   0.32247   0.00000  Uiso   1.00
O127   O     0.36338   0.15937   0.17753   0.00000  Uiso   1.00
O128   O     0.39764   0.16467   0.31439   0.00000  Uiso   1.00
O129   O     0.60236   0.16866   0.18561   0.00000  Uiso   1.00
O130   O     0.49220   0.09170   0.17450   0.00000  Uiso   1.00
Zn131  Zn    0.60366   0.17287   0.25540   0.00000  Uiso   1.00
Zn132  Zn    0.39634   0.16046   0.24461   0.00000  Uiso   1.00
C133   C     0.68015   0.26416   0.24198   0.00000  Uiso   1.00
C134   C     0.97902   0.16338   0.15915   0.00000  Uiso   1.00
C135   C     0.69994   0.18078   0.39273   0.00000  Uiso   1.00
C136   C     0.96945   0.16079   0.10671   0.00000  Uiso   1.00
C137   C     0.69266   0.23670   0.46585   0.00000  Uiso   1.00
C138   C     0.98729   0.12265   0.02741   0.00000  Uiso   1.00
C139   C     0.67063   0.21757   0.41971   0.00000  Uiso   1.00
C140   C     0.67034   0.13215   0.07655   0.00000  Uiso   1.00
C141   C     0.74877   0.16100   0.41266   0.00000  Uiso   1.00
C142   C     0.92230   0.18389   0.08732   0.00000  Uiso   1.00
C143   C     0.77494   0.18377   0.45637   0.00000  Uiso   1.00
C144   C     0.98390   0.06804   0.24410   0.00000  Uiso   1.00
C145   C     0.90408   0.17395   0.03840   0.00000  Uiso   1.00
C146   C     0.74533   0.22113   0.48381   0.00000  Uiso   1.00
C147   C     0.93646   0.14129   0.00866   0.00000  Uiso   1.00
C148   C     0.83004   0.17128   0.47279   0.00000  Uiso   1.00
C149   C     0.85224   0.19190   0.01951   0.00000  Uiso   1.00
C150   C     0.73512   0.33285   0.19420   0.00000  Uiso   1.00
C151   C     0.74552   0.29220   0.15278   0.00000  Uiso   1.00
C152   C     0.91615   0.32913   0.19837   0.00000  Uiso   1.00
C153   C     0.91651   0.01321   0.14637   0.00000  Uiso   1.00
C154   C     0.82559   0.13850   0.18907   0.00000  Uiso   1.00
C155   C     0.82168   0.22936   0.04588   0.00000  Uiso   1.00
C156   C     0.83878   0.20460   0.30756   0.00000  Uiso   1.00
C157   C     0.86430   0.14012   0.44354   0.00000  Uiso   1.00
C158   C     0.76931   0.24375   0.02803   0.00000  Uiso   1.00
C159   C     0.91689   0.12616   0.46109   0.00000  Uiso   1.00
C160   C     0.68390   0.31575   0.22169   0.00000  Uiso   1.00
C161   C     0.97273   0.01264   0.22610   0.00000  Uiso   1.00
C162   C     0.68791   0.17084   0.34082   0.00000  Uiso   1.00
H163   H     0.74756   0.27319   0.04862   0.00000  Uiso   1.00
H164   H     0.85238   0.12652   0.40640   0.00000  Uiso   1.00
H165   H     0.76473   0.25655   0.16666   0.00000  Uiso   1.00
H166   H     0.70538   0.27945   0.13102   0.00000  Uiso   1.00
H167   H     0.77560   0.31106   0.12869   0.00000  Uiso   1.00
H168   H     0.72826   0.03753   0.17685   0.00000  Uiso   1.00
H169   H     0.77339   0.00552   0.21978   0.00000  Uiso   1.00
H170   H     0.92583   0.05710   0.14627   0.00000  Uiso   1.00
H171   H     0.87455   0.00260   0.12699   0.00000  Uiso   1.00
H172   H     0.94893   0.32595   0.12641   0.00000  Uiso   1.00
H173   H     0.90606   0.28525   0.19597   0.00000  Uiso   1.00
H174   H     0.94162   0.10198   0.43770   0.00000  Uiso   1.00
H175   H     0.88128   0.01399   0.21702   0.00000  Uiso   1.00
H176   H     0.83191   0.16968   0.16409   0.00000  Uiso   1.00
H177   H     0.85002   0.18605   0.34086   0.00000  Uiso   1.00
H178   H     0.89838   0.20641   0.11218   0.00000  Uiso   1.00
H179   H     0.76682   0.12953   0.39172   0.00000  Uiso   1.00
H180   H     0.70780   0.11480   0.09134   0.00000  Uiso   1.00
H181   H     0.96571   0.23313   0.40441   0.00000  Uiso   1.00
H182   H     0.66992   0.26544   0.48649   0.00000  Uiso   1.00
H183   H     0.67952   0.09867   0.00462   0.00000  Uiso   1.00
H184   H     0.83798   0.24991   0.07972   0.00000  Uiso   1.00
N185   N     0.81362   0.15216   0.23740   0.00000  Uiso   1.00
N186   N     0.85305   0.18117   0.26261   0.00000  Uiso   1.00
O187   O     0.96386   0.24631   0.25310   0.00000  Uiso   1.00
O188   O     0.81763   0.24763   0.30946   0.00000  Uiso   1.00
O189   O     0.70281   0.08702   0.24691   0.00000  Uiso   1.00
O190   O     0.72488   0.23702   0.24502   0.00000  Uiso   1.00
O191   O     0.94178   0.09632   0.25499   0.00000  Uiso   1.00
O192   O     0.96995   0.17397   0.32247   0.00000  Uiso   1.00
O193   O     0.69672   0.15937   0.17753   0.00000  Uiso   1.00
O194   O     0.73098   0.16467   0.31439   0.00000  Uiso   1.00
O195   O     0.93569   0.16866   0.18561   0.00000  Uiso   1.00
O196   O     0.82553   0.09170   0.17450   0.00000  Uiso   1.00
Zn197  Zn    0.93700   0.17287   0.25540   0.00000  Uiso   1.00
Zn198  Zn    0.72967   0.16046   0.24461   0.00000  Uiso   1.00
C199   C     0.01348   0.59749   0.24198   0.00000  Uiso   1.00
C200   C     0.31236   0.49671   0.15915   0.00000  Uiso   1.00
C201   C     0.03327   0.51411   0.39273   0.00000  Uiso   1.00
C202   C     0.30278   0.49413   0.10671   0.00000  Uiso   1.00
C203   C     0.02599   0.57004   0.46585   0.00000  Uiso   1.00
C204   C     0.32063   0.45599   0.02741   0.00000  Uiso   1.00
C205   C     0.00397   0.55090   0.41971   0.00000  Uiso   1.00
C206   C     0.00367   0.46549   0.07655   0.00000  Uiso   1.00
C207   C     0.08210   0.49433   0.41266   0.00000  Uiso   1.00
C208   C     0.25563   0.51723   0.08732   0.00000  Uiso   1.00
C209   C     0.10827   0.51711   0.45637   0.00000  Uiso   1.00
C210   C     0.31723   0.40138   0.24410   0.00000  Uiso   1.00
C211   C     0.23741   0.50728   0.03840   0.00000  Uiso   1.00
C212   C     0.07867   0.55447   0.48381   0.00000  Uiso   1.00
C213   C     0.26979   0.47462   0.00866   0.00000  Uiso   1.00
C214   C     0.16338   0.50461   0.47279   0.00000  Uiso   1.00
C215   C     0.18557   0.52523   0.01951   0.00000  Uiso   1.00
C216   C     0.06846   0.66618   0.19420   0.00000  Uiso   1.00
C217   C     0.07885   0.62553   0.15278   0.00000  Uiso   1.00
C218   C     0.24949   0.66246   0.19837   0.00000  Uiso   1.00
C219   C     0.24985   0.34654   0.14637   0.00000  Uiso   1.00
C220   C     0.15892   0.47183   0.18907   0.00000  Uiso   1.00
C221   C     0.15502   0.56269   0.04588   0.00000  Uiso   1.00
C222   C     0.17211   0.53793   0.30756   0.00000  Uiso   1.00
C223   C     0.19763   0.47345   0.44354   0.00000  Uiso   1.00
C224   C     0.10264   0.57708   0.02803   0.00000  Uiso   1.00
C225   C     0.25022   0.45949   0.46109   0.00000  Uiso   1.00
C226   C     0.01724   0.64908   0.22169   0.00000  Uiso   1.00
C227   C     0.30607   0.34597   0.22610   0.00000  Uiso   1.00
C228   C     0.02124   0.50418   0.34082   0.00000  Uiso   1.00
H229   H     0.08089   0.60652   0.04862   0.00000  Uiso   1.00
H230   H     0.18572   0.45985   0.40640   0.00000  Uiso   1.00
H231   H     0.09806   0.58988   0.16666   0.00000  Uiso   1.00
H232   H     0.03871   0.61279   0.13102   0.00000  Uiso   1.00
H233   H     0.10893   0.64440   0.12869   0.00000  Uiso   1.00
H234   H     0.06160   0.37087   0.17685   0.00000  Uiso   1.00
H235   H     0.10672   0.33885   0.21978   0.00000  Uiso   1.00
H236   H     0.25916   0.39044   0.14627   0.00000  Uiso   1.00
H237   H     0.20788   0.33594   0.12699   0.00000  Uiso   1.00
H238   H     0.28227   0.65929   0.12641   0.00000  Uiso   1.00
H239   H     0.23939   0.61859   0.19597   0.00000  Uiso   1.00
H240   H     0.27495   0.43531   0.43770   0.00000  Uiso   1.00
H241   H     0.21461   0.34732   0.21702   0.00000  Uiso   1.00
H242   H     0.16524   0.50301   0.16409   0.00000  Uiso   1.00
H243   H     0.18336   0.51939   0.34086   0.00000  Uiso   1.00
H244   H     0.23171   0.53975   0.11218   0.00000  Uiso   1.00
H245   H     0.10015   0.46287   0.39172   0.00000  Uiso   1.00
H246   H     0.04113   0.44814   0.09134   0.00000  Uiso   1.00
H247   H     0.29905   0.56646   0.40441   0.00000  Uiso   1.00
H248   H     0.00325   0.59877   0.48649   0.00000  Uiso   1.00
H249   H     0.01285   0.43201   0.00462   0.00000  Uiso   1.00
H250   H     0.17131   0.58324   0.07972   0.00000  Uiso   1.00
N251   N     0.14695   0.48550   0.23740   0.00000  Uiso   1.00
N252   N     0.18638   0.51450   0.26261   0.00000  Uiso   1.00
O253   O     0.29719   0.57964   0.25310   0.00000  Uiso   1.00
O254   O     0.15097   0.58096   0.30946   0.00000  Uiso   1.00
O255   O     0.03614   0.42036   0.24691   0.00000  Uiso   1.00
O256   O     0.05822   0.57035   0.24502   0.00000  Uiso   1.00
O257   O     0.27512   0.42965   0.25499   0.00000  Uiso   1.00
O258   O     0.30328   0.50730   0.32247   0.00000  Uiso   1.00
O259   O     0.03005   0.49270   0.17753   0.00000  Uiso   1.00
O260   O     0.06431   0.49801   0.31439   0.00000  Uiso   1.00
O261   O     0.26902   0.50199   0.18561   0.00000  Uiso   1.00
O262   O     0.15887   0.42503   0.17450   0.00000  Uiso   1.00
Zn263  Zn    0.27033   0.50621   0.25540   0.00000  Uiso   1.00
Zn264  Zn    0.06300   0.49379   0.24461   0.00000  Uiso   1.00
C265   C     0.34681   0.59749   0.24198   0.00000  Uiso   1.00
C266   C     0.64569   0.49671   0.15915   0.00000  Uiso   1.00
C267   C     0.36661   0.51411   0.39273   0.00000  Uiso   1.00
C268   C     0.63612   0.49413   0.10671   0.00000  Uiso   1.00
C269   C     0.35932   0.57004   0.46585   0.00000  Uiso   1.00
C270   C     0.65396   0.45599   0.02741   0.00000  Uiso   1.00
C271   C     0.33730   0.55090   0.41971   0.00000  Uiso   1.00
C272   C     0.33700   0.46549   0.07655   0.00000  Uiso   1.00
C273   C     0.41543   0.49433   0.41266   0.00000  Uiso   1.00
C274   C     0.58897   0.51723   0.08732   0.00000  Uiso   1.00
C275   C     0.44161   0.51711   0.45637   0.00000  Uiso   1.00
C276   C     0.65056   0.40138   0.24410   0.00000  Uiso   1.00
C277   C     0.57074   0.50728   0.03840   0.00000  Uiso   1.00
C278   C     0.41200   0.55447   0.48381   0.00000  Uiso   1.00
C279   C     0.60312   0.47462   0.00866   0.00000  Uiso   1.00
C280   C     0.49671   0.50461   0.47279   0.00000  Uiso   1.00
C281   C     0.51890   0.52523   0.01951   0.00000  Uiso   1.00
C282   C     0.40179   0.66618   0.19420   0.00000  Uiso   1.00
C283   C     0.41219   0.62553   0.15278   0.00000  Uiso   1.00
C284   C     0.58282   0.66246   0.19837   0.00000  Uiso   1.00
C285   C     0.58318   0.34654   0.14637   0.00000  Uiso   1.00
C286   C     0.49225   0.47183   0.18907   0.00000  Uiso   1.00
C287   C     0.48835   0.56269   0.04588   0.00000  Uiso   1.00
C288   C     0.50544   0.53793   0.30756   0.00000  Uiso   1.00
C289   C     0.53096   0.47345   0.44354   0.00000  Uiso   1.00
C290   C     0.43598   0.57708   0.02803   0.00000  Uiso   1.00
C291   C     0.58356   0.45949   0.46109   0.00000  Uiso   1.00
C292   C     0.35057   0.64908   0.22169   0.00000  Uiso   1.00
C293   C     0.63940   0.34597   0.22610   0.00000  Uiso   1.00
C294   C     0.35457   0.50418   0.34082   0.00000  Uiso   1.00
H295   H     0.41423   0.60652   0.04862   0.00000  Uiso   1.00
H296   H     0.51905   0.45985   0.40640   0.00000  Uiso   1.00
H297   H     0.43140   0.58988   0.16666   0.00000  Uiso   1.00
H298   H     0.37205   0.61279   0.13102   0.00000  Uiso   1.00
H299   H     0.44226   0.64440   0.12869   0.00000  Uiso   1.00
H300   H     0.39493   0.37087   0.17685   0.00000  Uiso   1.00
H301   H     0.44006   0.33885   0.21978   0.00000  Uiso   1.00
H302   H     0.59250   0.39044   0.14627   0.00000  Uiso   1.00
H303   H     0.54121   0.33594   0.12699   0.00000  Uiso   1.00
H304   H     0.61560   0.65929   0.12641   0.00000  Uiso   1.00
H305   H     0.57273   0.61859   0.19597   0.00000  Uiso   1.00
H306   H     0.60829   0.43531   0.43770   0.00000  Uiso   1.00
H307   H     0.54795   0.34732   0.21702   0.00000  Uiso   1.00
H308   H     0.49857   0.50301   0.16409   0.00000  Uiso   1.00
H309   H     0.51669   0.51939   0.34086   0.00000  Uiso   1.00
H310   H     0.56504   0.53975   0.11218   0.00000  Uiso   1.00
H311   H     0.43349   0.46287   0.39172   0.00000  Uiso   1.00
H312   H     0.37446   0.44814   0.09134   0.00000  Uiso   1.00
H313   H     0.63238   0.56646   0.40441   0.00000  Uiso   1.00
H314   H     0.33659   0.59877   0.48649   0.00000  Uiso   1.00
H315   H     0.34618   0.43201   0.00462   0.00000  Uiso   1.00
H316   H     0.50464   0.58324   0.07972   0.00000  Uiso   1.00
N317   N     0.48029   0.48550   0.23740   0.00000  Uiso   1.00
N318   N     0.51971   0.51450   0.26261   0.00000  Uiso   1.00
O319   O     0.63052   0.57964   0.25310   0.00000  Uiso   1.00
O320   O     0.48430   0.58096   0.30946   0.00000  Uiso   1.00
O321   O     0.36948   0.42036   0.24691   0.00000  Uiso   1.00
O322   O     0.39155   0.57035   0.24502   0.00000  Uiso   1.00
O323   O     0.60845   0.42965   0.25499   0.00000  Uiso   1.00
O324   O     0.63662   0.50730   0.32247   0.00000  Uiso   1.00
O325   O     0.36338   0.49270   0.17753   0.00000  Uiso   1.00
O326   O     0.39764   0.49801   0.31439   0.00000  Uiso   1.00
O327   O     0.60236   0.50199   0.18561   0.00000  Uiso   1.00
O328   O     0.49220   0.42503   0.17450   0.00000  Uiso   1.00
Zn329  Zn    0.60366   0.50621   0.25540   0.00000  Uiso   1.00
Zn330  Zn    0.39634   0.49379   0.24461   0.00000  Uiso   1.00
C331   C     0.68015   0.59749   0.24198   0.00000  Uiso   1.00
C332   C     0.97902   0.49671   0.15915   0.00000  Uiso   1.00
C333   C     0.69994   0.51411   0.39273   0.00000  Uiso   1.00
C334   C     0.96945   0.49413   0.10671   0.00000  Uiso   1.00
C335   C     0.69266   0.57004   0.46585   0.00000  Uiso   1.00
C336   C     0.98729   0.45599   0.02741   0.00000  Uiso   1.00
C337   C     0.67063   0.55090   0.41971   0.00000  Uiso   1.00
C338   C     0.67034   0.46549   0.07655   0.00000  Uiso   1.00
C339   C     0.74877   0.49433   0.41266   0.00000  Uiso   1.00
C340   C     0.92230   0.51723   0.08732   0.00000  Uiso   1.00
C341   C     0.77494   0.51711   0.45637   0.00000  Uiso   1.00
C342   C     0.98390   0.40138   0.24410   0.00000  Uiso   1.00
C343   C     0.90408   0.50728   0.03840   0.00000  Uiso   1.00
C344   C     0.74533   0.55447   0.48381   0.00000  Uiso   1.00
C345   C     0.93646   0.47462   0.00866   0.00000  Uiso   1.00
C346   C     0.83004   0.50461   0.47279   0.00000  Uiso   1.00
C347   C     0.85224   0.52523   0.01951   0.00000  Uiso   1.00
C348   C     0.73512   0.66618   0.19420   0.00000  Uiso   1.00
C349   C     0.74552   0.62553   0.15278   0.00000  Uiso   1.00
C350   C     0.91615   0.66246   0.19837   0.00000  Uiso   1.00
C351   C     0.91651   0.34654   0.14637   0.00000  Uiso   1.00
C352   C     0.82559   0.47183   0.18907   0.00000  Uiso   1.00
C353   C     0.82168   0.56269   0.04588   0.00000  Uiso   1.00
C354   C     0.83878   0.53793   0.30756   0.00000  Uiso   1.00
C355   C     0.86430   0.47345   0.44354   0.00000  Uiso   1.00
C356   C     0.76931   0.57708   0.02803   0.00000  Uiso   1.00
C357   C     0.91689   0.45949   0.46109   0.00000  Uiso   1.00
C358   C     0.68390   0.64908   0.22169   0.00000  Uiso   1.00
C359   C     0.97273   0.34597   0.22610   0.00000  Uiso   1.00
C360   C     0.68791   0.50418   0.34082   0.00000  Uiso   1.00
H361   H     0.74756   0.60652   0.04862   0.00000  Uiso   1.00
H362   H     0.85238   0.45985   0.40640   0.00000  Uiso   1.00
H363   H     0.76473   0.58988   0.16666   0.00000  Uiso   1.00
H364   H     0.70538   0.61279   0.13102   0.00000  Uiso   1.00
H365   H     0.77560   0.64440   0.12869   0.00000  Uiso   1.00
H366   H     0.72826   0.37087   0.17685   0.00000  Uiso   1.00
H367   H     0.77339   0.33885   0.21978   0.00000  Uiso   1.00
H368   H     0.92583   0.39044   0.14627   0.00000  Uiso   1.00
H369   H     0.87455   0.33594   0.12699   0.00000  Uiso   1.00
H370   H     0.94893   0.65929   0.12641   0.00000  Uiso   1.00
H371   H     0.90606   0.61859   0.19597   0.00000  Uiso   1.00
H372   H     0.94162   0.43531   0.43770   0.00000  Uiso   1.00
H373   H     0.88128   0.34732   0.21702   0.00000  Uiso   1.00
H374   H     0.83191   0.50301   0.16409   0.00000  Uiso   1.00
H375   H     0.85002   0.51939   0.34086   0.00000  Uiso   1.00
H376   H     0.89838   0.53975   0.11218   0.00000  Uiso   1.00
H377   H     0.76682   0.46287   0.39172   0.00000  Uiso   1.00
H378   H     0.70780   0.44814   0.09134   0.00000  Uiso   1.00
H379   H     0.96571   0.56646   0.40441   0.00000  Uiso   1.00
H380   H     0.66992   0.59877   0.48649   0.00000  Uiso   1.00
H381   H     0.67952   0.43201   0.00462   0.00000  Uiso   1.00
H382   H     0.83798   0.58324   0.07972   0.00000  Uiso   1.00
N383   N     0.81362   0.48550   0.23740   0.00000  Uiso   1.00
N384   N     0.85305   0.51450   0.26261   0.00000  Uiso   1.00
O385   O     0.96386   0.57964   0.25310   0.00000  Uiso   1.00
O386   O     0.81763   0.58096   0.30946   0.00000  Uiso   1.00
O387   O     0.70281   0.42036   0.24691   0.00000  Uiso   1.00
O388   O     0.72488   0.57035   0.24502   0.00000  Uiso   1.00
O389   O     0.94178   0.42965   0.25499   0.00000  Uiso   1.00
O390   O     0.96995   0.50730   0.32247   0.00000  Uiso   1.00
O391   O     0.69672   0.49270   0.17753   0.00000  Uiso   1.00
O392   O     0.73098   0.49801   0.31439   0.00000  Uiso   1.00
O393   O     0.93569   0.50199   0.18561   0.00000  Uiso   1.00
O394   O     0.82553   0.42503   0.17450   0.00000  Uiso   1.00
Zn395  Zn    0.93700   0.50621   0.25540   0.00000  Uiso   1.00
Zn396  Zn    0.72967   0.49379   0.24461   0.00000  Uiso   1.00
C397   C     0.01348   0.93082   0.24198   0.00000  Uiso   1.00
C398   C     0.31236   0.83005   0.15915   0.00000  Uiso   1.00
C399   C     0.03327   0.84745   0.39273   0.00000  Uiso   1.00
C400   C     0.30278   0.82746   0.10671   0.00000  Uiso   1.00
C401   C     0.02599   0.90337   0.46585   0.00000  Uiso   1.00
C402   C     0.32063   0.78932   0.02741   0.00000  Uiso   1.00
C403   C     0.00397   0.88423   0.41971   0.00000  Uiso   1.00
C404   C     0.00367   0.79882   0.07655   0.00000  Uiso   1.00
C405   C     0.08210   0.82767   0.41266   0.00000  Uiso   1.00
C406   C     0.25563   0.85056   0.08732   0.00000  Uiso   1.00
C407   C     0.10827   0.85044   0.45637   0.00000  Uiso   1.00
C408   C     0.31723   0.73471   0.24410   0.00000  Uiso   1.00
C409   C     0.23741   0.84062   0.03840   0.00000  Uiso   1.00
C410   C     0.07867   0.88780   0.48381   0.00000  Uiso   1.00
C411   C     0.26979   0.80795   0.00866   0.00000  Uiso   1.00
C412   C     0.16338   0.83794   0.47279   0.00000  Uiso   1.00
C413   C     0.18557   0.85857   0.01951   0.00000  Uiso   1.00
C414   C     0.06846   0.99951   0.19420   0.00000  Uiso   1.00
C415   C     0.07885   0.95886   0.15278   0.00000  Uiso   1.00
C416   C     0.24949   0.99579   0.19837   0.00000  Uiso   1.00
C417   C     0.24985   0.67988   0.14637   0.00000  Uiso   1.00
C418   C     0.15892   0.80516   0.18907   0.00000  Uiso   1.00
C419   C     0.15502   0.89602   0.04588   0.00000  Uiso   1.00
C420   C     0.17211   0.87127   0.30756   0.00000  Uiso   1.00
C421   C     0.19763   0.80678   0.44354   0.00000  Uiso   1.00
C422   C     0.10264   0.91042   0.02803   0.00000  Uiso   1.00
C423   C     0.25022   0.79282   0.46109   0.00000  Uiso   1.00
C424   C     0.01724   0.98241   0.22169   0.00000  Uiso   1.00
C425   C     0.30607   0.67930   0.22610   0.00000  Uiso   1.00
C426   C     0.02124   0.83751   0.34082   0.00000  Uiso   1.00
H427   H     0.08089   0.93986   0.04862   0.00000  Uiso   1.00
H428   H     0.18572   0.79319   0.40640   0.00000  Uiso   1.00
H429   H     0.09806   0.92322   0.16666   0.00000  Uiso   1.00
H430   H     0.03871   0.94612   0.13102   0.00000  Uiso   1.00
H431   H     0.10893   0.97773   0.12869   0.00000  Uiso   1.00
H432   H     0.06160   0.70420   0.17685   0.00000  Uiso   1.00
H433   H     0.10672   0.67218   0.21978   0.00000  Uiso   1.00
H434   H     0.25916   0.72377   0.14627   0.00000  Uiso   1.00
H435   H     0.20788   0.66927   0.12699   0.00000  Uiso   1.00
H436   H     0.28227   0.99262   0.12641   0.00000  Uiso   1.00
H437   H     0.23939   0.95192   0.19597   0.00000  Uiso   1.00
H438   H     0.27495   0.76864   0.43770   0.00000  Uiso   1.00
H439   H     0.21461   0.68065   0.21702   0.00000  Uiso   1.00
H440   H     0.16524   0.83635   0.16409   0.00000  Uiso   1.00
H441   H     0.18336   0.85272   0.34086   0.00000  Uiso   1.00
H442   H     0.23171   0.87308   0.11218   0.00000  Uiso   1.00
H443   H     0.10015   0.79620   0.39172   0.00000  Uiso   1.00
H444   H     0.04113   0.78147   0.09134   0.00000  Uiso   1.00
H445   H     0.29905   0.89979   0.40441   0.00000  Uiso   1.00
H446   H     0.00325   0.93211   0.48649   0.00000  Uiso   1.00
H447   H     0.01285   0.76534   0.00462   0.00000  Uiso   1.00
H448   H     0.17131   0.91657   0.07972   0.00000  Uiso   1.00
N449   N     0.14695   0.81883   0.23740   0.00000  Uiso   1.00
N450   N     0.18638   0.84784   0.26261   0.00000  Uiso   1.00
O451   O     0.29719   0.91298   0.25310   0.00000  Uiso   1.00
O452   O     0.15097   0.91430   0.30946   0.00000  Uiso   1.00
O453   O     0.03614   0.75369   0.24691   0.00000  Uiso   1.00
O454   O     0.05822   0.90368   0.24502   0.00000  Uiso   1.00
O455   O     0.27512   0.76298   0.25499   0.00000  Uiso   1.00
O456   O     0.30328   0.84063   0.32247   0.00000  Uiso   1.00
O457   O     0.03005   0.82603   0.17753   0.00000  Uiso   1.00
O458   O     0.06431   0.83134   0.31439   0.00000  Uiso   1.00
O459   O     0.26902   0.83533   0.18561   0.00000  Uiso   1.00
O460   O     0.15887   0.75836   0.17450   0.00000  Uiso   1.00
Zn461  Zn    0.27033   0.83954   0.25540   0.00000  Uiso   1.00
Zn462  Zn    0.06300   0.82713   0.24461   0.00000  Uiso   1.00
C463   C     0.34681   0.93082   0.24198   0.00000  Uiso   1.00
C464   C     0.64569   0.83005   0.15915   0.00000  Uiso   1.00
C465   C     0.36661   0.84745   0.39273   0.00000  Uiso   1.00
C466   C     0.63612   0.82746   0.10671   0.00000  Uiso   1.00
C467   C     0.35932   0.90337   0.46585   0.00000  Uiso   1.00
C468   C     0.65396   0.78932   0.02741   0.00000  Uiso   1.00
C469   C     0.33730   0.88423   0.41971   0.00000  Uiso   1.00
C470   C     0.33700   0.79882   0.07655   0.00000  Uiso   1.00
C471   C     0.41543   0.82767   0.41266   0.00000  Uiso   1.00
C472   C     0.58897   0.85056   0.08732   0.00000  Uiso   1.00
C473   C     0.44161   0.85044   0.45637   0.00000  Uiso   1.00
C474   C     0.65056   0.73471   0.24410   0.00000  Uiso   1.00
C475   C     0.57074   0.84062   0.03840   0.00000  Uiso   1.00
C476   C     0.41200   0.88780   0.48381   0.00000  Uiso   1.00
C477   C     0.60312   0.80795   0.00866   0.00000  Uiso   1.00
C478   C     0.49671   0.83794   0.47279   0.00000  Uiso   1.00
C479   C     0.51890   0.85857   0.01951   0.00000  Uiso   1.00
C480   C     0.40179   0.99951   0.19420   0.00000  Uiso   1.00
C481   C     0.41219   0.95886   0.15278   0.00000  Uiso   1.00
C482   C     0.58282   0.99579   0.19837   0.00000  Uiso   1.00
C483   C     0.58318   0.67988   0.14637   0.00000  Uiso   1.00
C484   C     0.49225   0.80516   0.18907   0.00000  Uiso   1.00
C485   C     0.48835   0.89602   0.04588   0.00000  Uiso   1.00
C486   C     0.50544   0.87127   0.30756   0.00000  Uiso   1.00
C487   C     0.53096   0.80678   0.44354   0.00000  Uiso   1.00
C488   C     0.43598   0.91042   0.02803   0.00000  Uiso   1.00
C489   C     0.58356   0.79282   0.46109   0.00000  Uiso   1.00
C490   C     0.35057   0.98241   0.22169   0.00000  Uiso   1.00
C491   C     0.63940   0.67930   0.22610   0.00000  Uiso   1.00
C492   C     0.35457   0.83751   0.34082   0.00000  Uiso   1.00
H493   H     0.41423   0.93986   0.04862   0.00000  Uiso   1.00
H494   H     0.51905   0.79319   0.40640   0.00000  Uiso   1.00
H495   H     0.43140   0.92322   0.16666   0.00000  Uiso   1.00
H496   H     0.37205   0.94612   0.13102   0.00000  Uiso   1.00
H497   H     0.44226   0.97773   0.12869   0.00000  Uiso   1.00
H498   H     0.39493   0.70420   0.17685   0.00000  Uiso   1.00
H499   H     0.44006   0.67218   0.21978   0.00000  Uiso   1.00
H500   H     0.59250   0.72377   0.14627   0.00000  Uiso   1.00
H501   H     0.54121   0.66927   0.12699   0.00000  Uiso   1.00
H502   H     0.61560   0.99262   0.12641   0.00000  Uiso   1.00
H503   H     0.57273   0.95192   0.19597   0.00000  Uiso   1.00
H504   H     0.60829   0.76864   0.43770   0.00000  Uiso   1.00
H505   H     0.54795   0.68065   0.21702   0.00000  Uiso   1.00
H506   H     0.49857   0.83635   0.16409   0.00000  Uiso   1.00
H507   H     0.51669   0.85272   0.34086   0.00000  Uiso   1.00
H508   H     0.56504   0.87308   0.11218   0.00000  Uiso   1.00
H509   H     0.43349   0.79620   0.39172   0.00000  Uiso   1.00
H510   H     0.37446   0.78147   0.09134   0.00000  Uiso   1.00
H511   H     0.63238   0.89979   0.40441   0.00000  Uiso   1.00
H512   H     0.33659   0.93211   0.48649   0.00000  Uiso   1.00
H513   H     0.34618   0.76534   0.00462   0.00000  Uiso   1.00
H514   H     0.50464   0.91657   0.07972   0.00000  Uiso   1.00
N515   N     0.48029   0.81883   0.23740   0.00000  Uiso   1.00
N516   N     0.51971   0.84784   0.26261   0.00000  Uiso   1.00
O517   O     0.63052   0.91298   0.25310   0.00000  Uiso   1.00
O518   O     0.48430   0.91430   0.30946   0.00000  Uiso   1.00
O519   O     0.36948   0.75369   0.24691   0.00000  Uiso   1.00
O520   O     0.39155   0.90368   0.24502   0.00000  Uiso   1.00
O521   O     0.60845   0.76298   0.25499   0.00000  Uiso   1.00
O522   O     0.63662   0.84063   0.32247   0.00000  Uiso   1.00
O523   O     0.36338   0.82603   0.17753   0.00000  Uiso   1.00
O524   O     0.39764   0.83134   0.31439   0.00000  Uiso   1.00
O525   O     0.60236   0.83533   0.18561   0.00000  Uiso   1.00
O526   O     0.49220   0.75836   0.17450   0.00000  Uiso   1.00
Zn527  Zn    0.60366   0.83954   0.25540   0.00000  Uiso   1.00
Zn528  Zn    0.39634   0.82713   0.24461   0.00000  Uiso   1.00
C529   C     0.68015   0.93082   0.24198   0.00000  Uiso   1.00
C530   C     0.97902   0.83005   0.15915   0.00000  Uiso   1.00
C531   C     0.69994   0.84745   0.39273   0.00000  Uiso   1.00
C532   C     0.96945   0.82746   0.10671   0.00000  Uiso   1.00
C533   C     0.69266   0.90337   0.46585   0.00000  Uiso   1.00
C534   C     0.98729   0.78932   0.02741   0.00000  Uiso   1.00
C535   C     0.67063   0.88423   0.41971   0.00000  Uiso   1.00
C536   C     0.67034   0.79882   0.07655   0.00000  Uiso   1.00
C537   C     0.74877   0.82767   0.41266   0.00000  Uiso   1.00
C538   C     0.92230   0.85056   0.08732   0.00000  Uiso   1.00
C539   C     0.77494   0.85044   0.45637   0.00000  Uiso   1.00
C540   C     0.98390   0.73471   0.24410   0.00000  Uiso   1.00
C541   C     0.90408   0.84062   0.03840   0.00000  Uiso   1.00
C542   C     0.74533   0.88780   0.48381   0.00000  Uiso   1.00
C543   C     0.93646   0.80795   0.00866   0.00000  Uiso   1.00
C544   C     0.83004   0.83794   0.47279   0.00000  Uiso   1.00
C545   C     0.85224   0.85857   0.01951   0.00000  Uiso   1.00
C546   C     0.73512   0.99951   0.19420   0.00000  Uiso   1.00
C547   C     0.74552   0.95886   0.15278   0.00000  Uiso   1.00
C548   C     0.91615   0.99579   0.19837   0.00000  Uiso   1.00
C549   C     0.91651   0.67988   0.14637   0.00000  Uiso   1.00
C550   C     0.82559   0.80516   0.18907   0.00000  Uiso   1.00
C551   C     0.82168   0.89602   0.04588   0.00000  Uiso   1.00
C552   C     0.83878   0.87127   0.30756   0.00000  Uiso   1.00
C553   C     0.86430   0.80678   0.44354   0.00000  Uiso   1.00
C554   C     0.76931   0.91042   0.02803   0.00000  Uiso   1.00
C555   C     0.91689   0.79282   0.46109   0.00000  Uiso   1.00
C556   C     0.68390   0.98241   0.22169   0.00000  Uiso   1.00
C557   C     0.97273   0.67930   0.22610   0.00000  Uiso   1.00
C558   C     0.68791   0.83751   0.34082   0.00000  Uiso   1.00
H559   H     0.74756   0.93986   0.04862   0.00000  Uiso   1.00
H560   H     0.85238   0.79319   0.40640   0.00000  Uiso   1.00
H561   H     0.76473   0.92322   0.16666   0.00000  Uiso   1.00
H562   H     0.70538   0.94612   0.13102   0.00000  Uiso   1.00
H563   H     0.77560   0.97773   0.12869   0.00000  Uiso   1.00
H564   H     0.72826   0.70420   0.17685   0.00000  Uiso   1.00
H565   H     0.77339   0.67218   0.21978   0.00000  Uiso   1.00
H566   H     0.92583   0.72377   0.14627   0.00000  Uiso   1.00
H567   H     0.87455   0.66927   0.12699   0.00000  Uiso   1.00
H568   H     0.94893   0.99262   0.12641   0.00000  Uiso   1.00
H569   H     0.90606   0.95192   0.19597   0.00000  Uiso   1.00
H570   H     0.94162   0.76864   0.43770   0.00000  Uiso   1.00
H571   H     0.88128   0.68065   0.21702   0.00000  Uiso   1.00
H572   H     0.83191   0.83635   0.16409   0.00000  Uiso   1.00
H573   H     0.85002   0.85272   0.34086   0.00000  Uiso   1.00
H574   H     0.89838   0.87308   0.11218   0.00000  Uiso   1.00
H575   H     0.76682   0.79620   0.39172   0.00000  Uiso   1.00
H576   H     0.70780   0.78147   0.09134   0.00000  Uiso   1.00
H577   H     0.96571   0.89979   0.40441   0.00000  Uiso   1.00
H578   H     0.66992   0.93211   0.48649   0.00000  Uiso   1.00
H579   H     0.67952   0.76534   0.00462   0.00000  Uiso   1.00
H580   H     0.83798   0.91657   0.07972   0.00000  Uiso   1.00
N581   N     0.81362   0.81883   0.23740   0.00000  Uiso   1.00
N582   N     0.85305   0.84784   0.26261   0.00000  Uiso   1.00
O583   O     0.96386   0.91298   0.25310   0.00000  Uiso   1.00
O584   O     0.81763   0.91430   0.30946   0.00000  Uiso   1.00
O585   O     0.70281   0.75369   0.24691   0.00000  Uiso   1.00
O586   O     0.72488   0.90368   0.24502   0.00000  Uiso   1.00
O587   O     0.94178   0.76298   0.25499   0.00000  Uiso   1.00
O588   O     0.96995   0.84063   0.32247   0.00000  Uiso   1.00
O589   O     0.69672   0.82603   0.17753   0.00000  Uiso   1.00
O590   O     0.73098   0.83134   0.31439   0.00000  Uiso   1.00
O591   O     0.93569   0.83533   0.18561   0.00000  Uiso   1.00
O592   O     0.82553   0.75836   0.17450   0.00000  Uiso   1.00
Zn593  Zn    0.93700   0.83954   0.25540   0.00000  Uiso   1.00
Zn594  Zn    0.72967   0.82713   0.24461   0.00000  Uiso   1.00
C595   C     0.01348   0.26416   0.74198   0.00000  Uiso   1.00
C596   C     0.31236   0.16338   0.65915   0.00000  Uiso   1.00
C597   C     0.03327   0.18078   0.89273   0.00000  Uiso   1.00
C598   C     0.30278   0.16079   0.60671   0.00000  Uiso   1.00
C599   C     0.02599   0.23670   0.96585   0.00000  Uiso   1.00
C600   C     0.32063   0.12265   0.52741   0.00000  Uiso   1.00
C601   C     0.00397   0.21757   0.91971   0.00000  Uiso   1.00
C602   C     0.00367   0.13215   0.57655   0.00000  Uiso   1.00
C603   C     0.08210   0.16100   0.91266   0.00000  Uiso   1.00
C604   C     0.25563   0.18389   0.58732   0.00000  Uiso   1.00
C605   C     0.10827   0.18377   0.95637   0.00000  Uiso   1.00
C606   C     0.31723   0.06804   0.74410   0.00000  Uiso   1.00
C607   C     0.23741   0.17395   0.53840   0.00000  Uiso   1.00
C608   C     0.07867   0.22113   0.98381   0.00000  Uiso   1.00
C609   C     0.26979   0.14129   0.50866   0.00000  Uiso   1.00
C610   C     0.16338   0.17128   0.97279   0.00000  Uiso   1.00
C611   C     0.18557   0.19190   0.51951   0.00000  Uiso   1.00
C612   C     0.06846   0.33285   0.69420   0.00000  Uiso   1.00
C613   C     0.07885   0.29220   0.65278   0.00000  Uiso   1.00
C614   C     0.24949   0.32913   0.69837   0.00000  Uiso   1.00
C615   C     0.24985   0.01321   0.64637   0.00000  Uiso   1.00
C616   C     0.15892   0.13850   0.68907   0.00000  Uiso   1.00
C617   C     0.15502   0.22936   0.54588   0.00000  Uiso   1.00
C618   C     0.17211   0.20460   0.80756   0.00000  Uiso   1.00
C619   C     0.19763   0.14012   0.94354   0.00000  Uiso   1.00
C620   C     0.10264   0.24375   0.52803   0.00000  Uiso   1.00
C621   C     0.25022   0.12616   0.96109   0.00000  Uiso   1.00
C622   C     0.01724   0.31575   0.72169   0.00000  Uiso   1.00
C623   C     0.30607   0.01264   0.72610   0.00000  Uiso   1.00
C624   C     0.02124   0.17084   0.84082   0.00000  Uiso   1.00
H625   H     0.08089   0.27319   0.54862   0.00000  Uiso   1.00
H626   H     0.18572   0.12652   0.90640   0.00000  Uiso   1.00
H627   H     0.09806   0.25655   0.66666   0.00000  Uiso   1.00
H628   H     0.03871   0.27945   0.63102   0.00000  Uiso   1.00
H629   H     0.10893   0.31106   0.62869   0.00000  Uiso   1.00
H630   H     0.06160   0.03753   0.67685   0.00000  Uiso   1.00
H631   H     0.10672   0.00552   0.71978   0.00000  Uiso   1.00
H632   H     0.25916   0.05710   0.64627   0.00000  Uiso   1.00
H633   H     0.20788   0.00260   0.62699   0.00000  Uiso   1.00
H634   H     0.28227   0.32595   0.62641   0.00000  Uiso   1.00
H635   H     0.23939   0.28525   0.69597   0.00000  Uiso   1.00
H636   H     0.27495   0.10198   0.93770   0.00000  Uiso   1.00
H637   H     0.21461   0.01399   0.71702   0.00000  Uiso   1.00
H638   H     0.16524   0.16968   0.66409   0.00000  Uiso   1.00
H639   H     0.18336   0.18605   0.84086   0.00000  Uiso   1.00
H640   H     0.23171   0.20641   0.61218   0.00000  Uiso   1.00
H641   H     0.10015   0.12953   0.89172   0.00000  Uiso   1.00
H642   H     0.04113   0.11480   0.59134   0.00000  Uiso   1.00
H643   H     0.29905   0.23313   0.90441   0.00000  Uiso   1.00
H644   H     0.00325   0.26544   0.98649   0.00000  Uiso   1.00
H645   H     0.01285   0.09867   0.50462   0.00000  Uiso   1.00
H646   H     0.17131   0.24991   0.57972   0.00000  Uiso   1.00
N647   N     0.14695   0.15216   0.73740   0.00000  Uiso   1.00
N648   N     0.18638   0.18117   0.76261   0.00000  Uiso   1.00
O649   O     0.29719   0.24631   0.75310   0.00000  Uiso   1.00
O650   O     0.15097   0.24763   0.80946   0.00000  Uiso   1.00
O651   O     0.03614   0.08702   0.74691   0.00000  Uiso   1.00
O652   O     0.05822   0.23702   0.74502   0.00000  Uiso   1.00
O653   O     0.27512   0.09632   0.75499   0.00000  Uiso   1.00
O654   O     0.30328   0.17397   0.82247   0.00000  Uiso   1.00
O655   O     0.03005   0.15937   0.67753   0.00000  Uiso   1.00
O656   O     0.06431   0.16467   0.81439   0.00000  Uiso   1.00
O657   O     0.26902   0.16866   0.68561   0.00000  Uiso   1.00
O658   O     0.15887   0.09170   0.67450   0.00000  Uiso   1.00
Zn659  Zn    0.27033   0.17287   0.75540   0.00000  Uiso   1.00
Zn660  Zn    0.06300   0.16046   0.74461   0.00000  Uiso   1.00
C661   C     0.34681   0.26416   0.74198   0.00000  Uiso   1.00
C662   C     0.64569   0.16338   0.65915   0.00000  Uiso   1.00
C663   C     0.36661   0.18078   0.89273   0.00000  Uiso   1.00
C664   C     0.63612   0.16079   0.60671   0.00000  Uiso   1.00
C665   C     0.35932   0.23670   0.96585   0.00000  Uiso   1.00
C666   C     0.65396   0.12265   0.52741   0.00000  Uiso   1.00
C667   C     0.33730   0.21757   0.91971   0.00000  Uiso   1.00
C668   C     0.33700   0.13215   0.57655   0.00000  Uiso   1.00
C669   C     0.41543   0.16100   0.91266   0.00000  Uiso   1.00
C670   C     0.58897   0.18389   0.58732   0.00000  Uiso   1.00
C671   C     0.44161   0.18377   0.95637   0.00000  Uiso   1.00
C672   C     0.65056   0.06804   0.74410   0.00000  Uiso   1.00
C673   C     0.57074   0.17395   0.53840   0.00000  Uiso   1.00
C674   C     0.41200   0.22113   0.98381   0.00000  Uiso   1.00
C675   C     0.60312   0.14129   0.50866   0.00000  Uiso   1.00
C676   C     0.49671   0.17128   0.97279   0.00000  Uiso   1.00
C677   C     0.51890   0.19190   0.51951   0.00000  Uiso   1.00
C678   C     0.40179   0.33285   0.69420   0.00000  Uiso   1.00
C679   C     0.41219   0.29220   0.65278   0.00000  Uiso   1.00
C680   C     0.58282   0.32913   0.69837   0.00000  Uiso   1.00
C681   C     0.58318   0.01321   0.64637   0.00000  Uiso   1.00
C682   C     0.49225   0.13850   0.68907   0.00000  Uiso   1.00
C683   C     0.48835   0.22936   0.54588   0.00000  Uiso   1.00
C684   C     0.50544   0.20460   0.80756   0.00000  Uiso   1.00
C685   C     0.53096   0.14012   0.94354   0.00000  Uiso   1.00
C686   C     0.43598   0.24375   0.52803   0.00000  Uiso   1.00
C687   C     0.58356   0.12616   0.96109   0.00000  Uiso   1.00
C688   C     0.35057   0.31575   0.72169   0.00000  Uiso   1.00
C689   C     0.63940   0.01264   0.72610   0.00000  Uiso   1.00
C690   C     0.35457   0.17084   0.84082   0.00000  Uiso   1.00
H691   H     0.41423   0.27319   0.54862   0.00000  Uiso   1.00
H692   H     0.51905   0.12652   0.90640   0.00000  Uiso   1.00
H693   H     0.43140   0.25655   0.66666   0.00000  Uiso   1.00
H694   H     0.37205   0.27945   0.63102   0.00000  Uiso   1.00
H695   H     0.44226   0.31106   0.62869   0.00000  Uiso   1.00
H696   H     0.39493   0.03753   0.67685   0.00000  Uiso   1.00
H697   H     0.44006   0.00552   0.71978   0.00000  Uiso   1.00
H698   H     0.59250   0.05710   0.64627   0.00000  Uiso   1.00
H699   H     0.54121   0.00260   0.62699   0.00000  Uiso   1.00
H700   H     0.61560   0.32595   0.62641   0.00000  Uiso   1.00
H701   H     0.57273   0.28525   0.69597   0.00000  Uiso   1.00
H702   H     0.60829   0.10198   0.93770   0.00000  Uiso   1.00
H703   H     0.54795   0.01399   0.71702   0.00000  Uiso   1.00
H704   H     0.49857   0.16968   0.66409   0.00000  Uiso   1.00
H705   H     0.51669   0.18605   0.84086   0.00000  Uiso   1.00
H706   H     0.56504   0.20641   0.61218   0.00000  Uiso   1.00
H707   H     0.43349   0.12953   0.89172   0.00000  Uiso   1.00
H708   H     0.37446   0.11480   0.59134   0.00000  Uiso   1.00
H709   H     0.63238   0.23313   0.90441   0.00000  Uiso   1.00
H710   H     0.33659   0.26544   0.98649   0.00000  Uiso   1.00
H711   H     0.34618   0.09867   0.50462   0.00000  Uiso   1.00
H712   H     0.50464   0.24991   0.57972   0.00000  Uiso   1.00
N713   N     0.48029   0.15216   0.73740   0.00000  Uiso   1.00
N714   N     0.51971   0.18117   0.76261   0.00000  Uiso   1.00
O715   O     0.63052   0.24631   0.75310   0.00000  Uiso   1.00
O716   O     0.48430   0.24763   0.80946   0.00000  Uiso   1.00
O717   O     0.36948   0.08702   0.74691   0.00000  Uiso   1.00
O718   O     0.39155   0.23702   0.74502   0.00000  Uiso   1.00
O719   O     0.60845   0.09632   0.75499   0.00000  Uiso   1.00
O720   O     0.63662   0.17397   0.82247   0.00000  Uiso   1.00
O721   O     0.36338   0.15937   0.67753   0.00000  Uiso   1.00
O722   O     0.39764   0.16467   0.81439   0.00000  Uiso   1.00
O723   O     0.60236   0.16866   0.68561   0.00000  Uiso   1.00
O724   O     0.49220   0.09170   0.67450   0.00000  Uiso   1.00
Zn725  Zn    0.60366   0.17287   0.75540   0.00000  Uiso   1.00
Zn726  Zn    0.39634   0.16046   0.74461   0.00000  Uiso   1.00
C727   C     0.68015   0.26416   0.74198   0.00000  Uiso   1.00
C728   C     0.97902   0.16338   0.65915   0.00000  Uiso   1.00
C729   C     0.69994   0.18078   0.89273   0.00000  Uiso   1.00
C730   C     0.96945   0.16079   0.60671   0.00000  Uiso   1.00
C731   C     0.69266   0.23670   0.96585   0.00000  Uiso   1.00
C732   C     0.98729   0.12265   0.52741   0.00000  Uiso   1.00
C733   C     0.67063   0.21757   0.91971   0.00000  Uiso   1.00
C734   C     0.67034   0.13215   0.57655   0.00000  Uiso   1.00
C735   C     0.74877   0.16100   0.91266   0.00000  Uiso   1.00
C736   C     0.92230   0.18389   0.58732   0.00000  Uiso   1.00
C737   C     0.77494   0.18377   0.95637   0.00000  Uiso   1.00
C738   C     0.98390   0.06804   0.74410   0.00000  Uiso   1.00
C739   C     0.90408   0.17395   0.53840   0.00000  Uiso   1.00
C740   C     0.74533   0.22113   0.98381   0.00000  Uiso   1.00
C741   C     0.93646   0.14129   0.50866   0.00000  Uiso   1.00
C742   C     0.83004   0.17128   0.97279   0.00000  Uiso   1.00
C743   C     0.85224   0.19190   0.51951   0.00000  Uiso   1.00
C744   C     0.73512   0.33285   0.69420   0.00000  Uiso   1.00
C745   C     0.74552   0.29220   0.65278   0.00000  Uiso   1.00
C746   C     0.91615   0.32913   0.69837   0.00000  Uiso   1.00
C747   C     0.91651   0.01321   0.64637   0.00000  Uiso   1.00
C748   C     0.82559   0.13850   0.68907   0.00000  Uiso   1.00
C749   C     0.82168   0.22936   0.54588   0.00000  Uiso   1.00
C750   C     0.83878   0.20460   0.80756   0.00000  Uiso   1.00
C751   C     0.86430   0.14012   0.94354   0.00000  Uiso   1.00
C752   C     0.76931   0.24375   0.52803   0.00000  Uiso   1.00
C753   C     0.91689   0.12616   0.96109   0.00000  Uiso   1.00
C754   C     0.68390   0.31575   0.72169   0.00000  Uiso   1.00
C755   C     0.97273   0.01264   0.72610   0.00000  Uiso   1.00
C756   C     0.68791   0.17084   0.84082   0.00000  Uiso   1.00
H757   H     0.74756   0.27319   0.54862   0.00000  Uiso   1.00
H758   H     0.85238   0.12652   0.90640   0.00000  Uiso   1.00
H759   H     0.76473   0.25655   0.66666   0.00000  Uiso   1.00
H760   H     0.70538   0.27945   0.63102   0.00000  Uiso   1.00
H761   H     0.77560   0.31106   0.62869   0.00000  Uiso   1.00
H762   H     0.72826   0.03753   0.67685   0.00000  Uiso   1.00
H763   H     0.77339   0.00552   0.71978   0.00000  Uiso   1.00
H764   H     0.92583   0.05710   0.64627   0.00000  Uiso   1.00
H765   H     0.87455   0.00260   0.62699   0.00000  Uiso   1.00
H766   H     0.94893   0.32595   0.62641   0.00000  Uiso   1.00
H767   H     0.90606   0.28525   0.69597   0.00000  Uiso   1.00
H768   H     0.94162   0.10198   0.93770   0.00000  Uiso   1.00
H769   H     0.88128   0.01399   0.71702   0.00000  Uiso   1.00
H770   H     0.83191   0.16968   0.66409   0.00000  Uiso   1.00
H771   H     0.85002   0.18605   0.84086   0.00000  Uiso   1.00
H772   H     0.89838   0.20641   0.61218   0.00000  Uiso   1.00
H773   H     0.76682   0.12953   0.89172   0.00000  Uiso   1.00
H774   H     0.70780   0.11480   0.59134   0.00000  Uiso   1.00
H775   H     0.96571   0.23313   0.90441   0.00000  Uiso   1.00
H776   H     0.66992   0.26544   0.98649   0.00000  Uiso   1.00
H777   H     0.67952   0.09867   0.50462   0.00000  Uiso   1.00
H778   H     0.83798   0.24991   0.57972   0.00000  Uiso   1.00
N779   N     0.81362   0.15216   0.73740   0.00000  Uiso   1.00
N780   N     0.85305   0.18117   0.76261   0.00000  Uiso   1.00
O781   O     0.96386   0.24631   0.75310   0.00000  Uiso   1.00
O782   O     0.81763   0.24763   0.80946   0.00000  Uiso   1.00
O783   O     0.70281   0.08702   0.74691   0.00000  Uiso   1.00
O784   O     0.72488   0.23702   0.74502   0.00000  Uiso   1.00
O785   O     0.94178   0.09632   0.75499   0.00000  Uiso   1.00
O786   O     0.96995   0.17397   0.82247   0.00000  Uiso   1.00
O787   O     0.69672   0.15937   0.67753   0.00000  Uiso   1.00
O788   O     0.73098   0.16467   0.81439   0.00000  Uiso   1.00
O789   O     0.93569   0.16866   0.68561   0.00000  Uiso   1.00
O790   O     0.82553   0.09170   0.67450   0.00000  Uiso   1.00
Zn791  Zn    0.93700   0.17287   0.75540   0.00000  Uiso   1.00
Zn792  Zn    0.72967   0.16046   0.74461   0.00000  Uiso   1.00
C793   C     0.01348   0.59749   0.74198   0.00000  Uiso   1.00
C794   C     0.31236   0.49671   0.65915   0.00000  Uiso   1.00
C795   C     0.03327   0.51411   0.89273   0.00000  Uiso   1.00
C796   C     0.30278   0.49413   0.60671   0.00000  Uiso   1.00
C797   C     0.02599   0.57004   0.96585   0.00000  Uiso   1.00
C798   C     0.32063   0.45599   0.52741   0.00000  Uiso   1.00
C799   C     0.00397   0.55090   0.91971   0.00000  Uiso   1.00
C800   C     0.00367   0.46549   0.57655   0.00000  Uiso   1.00
C801   C     0.08210   0.49433   0.91266   0.00000  Uiso   1.00
C802   C     0.25563   0.51723   0.58732   0.00000  Uiso   1.00
C803   C     0.10827   0.51711   0.95637   0.00000  Uiso   1.00
C804   C     0.31723   0.40138   0.74410   0.00000  Uiso   1.00
C805   C     0.23741   0.50728   0.53840   0.00000  Uiso   1.00
C806   C     0.07867   0.55447   0.98381   0.00000  Uiso   1.00
C807   C     0.26979   0.47462   0.50866   0.00000  Uiso   1.00
C808   C     0.16338   0.50461   0.97279   0.00000  Uiso   1.00
C809   C     0.18557   0.52523   0.51951   0.00000  Uiso   1.00
C810   C     0.06846   0.66618   0.69420   0.00000  Uiso   1.00
C811   C     0.07885   0.62553   0.65278   0.00000  Uiso   1.00
C812   C     0.24949   0.66246   0.69837   0.00000  Uiso   1.00
C813   C     0.24985   0.34654   0.64637   0.00000  Uiso   1.00
C814   C     0.15892   0.47183   0.68907   0.00000  Uiso   1.00
C815   C     0.15502   0.56269   0.54588   0.00000  Uiso   1.00
C816   C     0.17211   0.53793   0.80756   0.00000  Uiso   1.00
C817   C     0.19763   0.47345   0.94354   0.00000  Uiso   1.00
C818   C     0.10264   0.57708   0.52803   0.00000  Uiso   1.00
C819   C     0.25022   0.45949   0.96109   0.00000  Uiso   1.00
C820   C     0.01724   0.64908   0.72169   0.00000  Uiso   1.00
C821   C     0.30607   0.34597   0.72610   0.00000  Uiso   1.00
C822   C     0.02124   0.50418   0.84082   0.00000  Uiso   1.00
H823   H     0.08089   0.60652   0.54862   0.00000  Uiso   1.00
H824   H     0.18572   0.45985   0.90640   0.00000  Uiso   1.00
H825   H     0.09806   0.58988   0.66666   0.00000  Uiso   1.00
H826   H     0.03871   0.61279   0.63102   0.00000  Uiso   1.00
H827   H     0.10893   0.64440   0.62869   0.00000  Uiso   1.00
H828   H     0.06160   0.37087   0.67685   0.00000  Uiso   1.00
H829   H     0.10672   0.33885   0.71978   0.00000  Uiso   1.00
H830   H     0.25916   0.39044   0.64627   0.00000  Uiso   1.00
H831   H     0.20788   0.33594   0.62699   0.00000  Uiso   1.00
H832   H     0.28227   0.65929   0.62641   0.00000  Uiso   1.00
H833   H     0.23939   0.61859   0.69597   0.00000  Uiso   1.00
H834   H     0.27495   0.43531   0.93770   0.00000  Uiso   1.00
H835   H     0.21461   0.34732   0.71702   0.00000  Uiso   1.00
H836   H     0.16524   0.50301   0.66409   0.00000  Uiso   1.00
H837   H     0.18336   0.51939   0.84086   0.00000  Uiso   1.00
H838   H     0.23171   0.53975   0.61218   0.00000  Uiso   1.00
H839   H     0.10015   0.46287   0.89172   0.00000  Uiso   1.00
H840   H     0.04113   0.44814   0.59134   0.00000  Uiso   1.00
H841   H     0.29905   0.56646   0.90441   0.00000  Uiso   1.00
H842   H     0.00325   0.59877   0.98649   0.00000  Uiso   1.00
H843   H     0.01285   0.43201   0.50462   0.00000  Uiso   1.00
H844   H     0.17131   0.58324   0.57972   0.00000  Uiso   1.00
N845   N     0.14695   0.48550   0.73740   0.00000  Uiso   1.00
N846   N     0.18638   0.51450   0.76261   0.00000  Uiso   1.00
O847   O     0.29719   0.57964   0.75310   0.00000  Uiso   1.00
O848   O     0.15097   0.58096   0.80946   0.00000  Uiso   1.00
O849   O     0.03614   0.42036   0.74691   0.00000  Uiso   1.00
O850   O     0.05822   0.57035   0.74502   0.00000  Uiso   1.00
O851   O     0.27512   0.42965   0.75499   0.00000  Uiso   1.00
O852   O     0.30328   0.50730   0.82247   0.00000  Uiso   1.00
O853   O     0.03005   0.49270   0.67753   0.00000  Uiso   1.00
O854   O     0.06431   0.49801   0.81439   0.00000  Uiso   1.00
O855   O     0.26902   0.50199   0.68561   0.00000  Uiso   1.00
O856   O     0.15887   0.42503   0.67450   0.00000  Uiso   1.00
Zn857  Zn    0.27033   0.50621   0.75540   0.00000  Uiso   1.00
Zn858  Zn    0.06300   0.49379   0.74461   0.00000  Uiso   1.00
C859   C     0.34681   0.59749   0.74198   0.00000  Uiso   1.00
C860   C     0.64569   0.49671   0.65915   0.00000  Uiso   1.00
C861   C     0.36661   0.51411   0.89273   0.00000  Uiso   1.00
C862   C     0.63612   0.49413   0.60671   0.00000  Uiso   1.00
C863   C     0.35932   0.57004   0.96585   0.00000  Uiso   1.00
C864   C     0.65396   0.45599   0.52741   0.00000  Uiso   1.00
C865   C     0.33730   0.55090   0.91971   0.00000  Uiso   1.00
C866   C     0.33700   0.46549   0.57655   0.00000  Uiso   1.00
C867   C     0.41543   0.49433   0.91266   0.00000  Uiso   1.00
C868   C     0.58897   0.51723   0.58732   0.00000  Uiso   1.00
C869   C     0.44161   0.51711   0.95637   0.00000  Uiso   1.00
C870   C     0.65056   0.40138   0.74410   0.00000  Uiso   1.00
C871   C     0.57074   0.50728   0.53840   0.00000  Uiso   1.00
C872   C     0.41200   0.55447   0.98381   0.00000  Uiso   1.00
C873   C     0.60312   0.47462   0.50866   0.00000  Uiso   1.00
C874   C     0.49671   0.50461   0.97279   0.00000  Uiso   1.00
C875   C     0.51890   0.52523   0.51951   0.00000  Uiso   1.00
C876   C     0.40179   0.66618   0.69420   0.00000  Uiso   1.00
C877   C     0.41219   0.62553   0.65278   0.00000  Uiso   1.00
C878   C     0.58282   0.66246   0.69837   0.00000  Uiso   1.00
C879   C     0.58318   0.34654   0.64637   0.00000  Uiso   1.00
C880   C     0.49225   0.47183   0.68907   0.00000  Uiso   1.00
C881   C     0.48835   0.56269   0.54588   0.00000  Uiso   1.00
C882   C     0.50544   0.53793   0.80756   0.00000  Uiso   1.00
C883   C     0.53096   0.47345   0.94354   0.00000  Uiso   1.00
C884   C     0.43598   0.57708   0.52803   0.00000  Uiso   1.00
C885   C     0.58356   0.45949   0.96109   0.00000  Uiso   1.00
C886   C     0.35057   0.64908   0.72169   0.00000  Uiso   1.00
C887   C     0.63940   0.34597   0.72610   0.00000  Uiso   1.00
C888   C     0.35457   0.50418   0.84082   0.00000  Uiso   1.00
H889   H     0.41423   0.60652   0.54862   0.00000  Uiso   1.00
H890   H     0.51905   0.45985   0.90640   0.00000  Uiso   1.00
H891   H     0.43140   0.58988   0.66666   0.00000  Uiso   1.00
H892   H     0.37205   0.61279   0.63102   0.00000  Uiso   1.00
H893   H     0.44226   0.64440   0.62869   0.00000  Uiso   1.00
H894   H     0.39493   0.37087   0.67685   0.00000  Uiso   1.00
H895   H     0.44006   0.33885   0.71978   0.00000  Uiso   1.00
H896   H     0.59250   0.39044   0.64627   0.00000  Uiso   1.00
H897   H     0.54121   0.33594   0.62699   0.00000  Uiso   1.00
H898   H     0.61560   0.65929   0.62641   0.00000  Uiso   1.00
H899   H     0.57273   0.61859   0.69597   0.00000  Uiso   1.00
H900   H     0.60829   0.43531   0.93770   0.00000  Uiso   1.00
H901   H     0.54795   0.34732   0.71702   0.00000  Uiso   1.00
H902   H     0.49857   0.50301   0.66409   0.00000  Uiso   1.00
H903   H     0.51669   0.51939   0.84086   0.00000  Uiso   1.00
H904   H     0.56504   0.53975   0.61218   0.00000  Uiso   1.00
H905   H     0.43349   0.46287   0.89172   0.00000  Uiso   1.00
H906   H     0.37446   0.44814   0.59134   0.00000  Uiso   1.00
H907   H     0.63238   0.56646   0.90441   0.00000  Uiso   1.00
H908   H     0.33659   0.59877   0.98649   0.00000  Uiso   1.00
H909   H     0.34618   0.43201   0.50462   0.00000  Uiso   1.00
H910   H     0.50464   0.58324   0.57972   0.00000  Uiso   1.00
N911   N     0.48029   0.48550   0.73740   0.00000  Uiso   1.00
N912   N     0.51971   0.51450   0.76261   0.00000  Uiso   1.00
O913   O     0.63052   0.57964   0.75310   0.00000  Uiso   1.00
O914   O     0.48430   0.58096   0.80946   0.00000  Uiso   1.00
O915   O     0.36948   0.42036   0.74691   0.00000  Uiso   1.00
O916   O     0.39155   0.57035   0.74502   0.00000  Uiso   1.00
O917   O     0.60845   0.42965   0.75499   0.00000  Uiso   1.00
O918   O     0.63662   0.50730   0.82247   0.00000  Uiso   1.00
O919   O     0.36338   0.49270   0.67753   0.00000  Uiso   1.00
O920   O     0.39764   0.49801   0.81439   0.00000  Uiso   1.00
O921   O     0.60236   0.50199   0.68561   0.00000  Uiso   1.00
O922   O     0.49220   0.42503   0.67450   0.00000  Uiso   1.00
Zn923  Zn    0.60366   0.50621   0.75540   0.00000  Uiso   1.00
Zn924  Zn    0.39634   0.49379   0.74461   0.00000  Uiso   1.00
C925   C     0.68015   0.59749   0.74198   0.00000  Uiso   1.00
C926   C     0.97902   0.49671   0.65915   0.00000  Uiso   1.00
C927   C     0.69994   0.51411   0.89273   0.00000  Uiso   1.00
C928   C     0.96945   0.49413   0.60671   0.00000  Uiso   1.00
C929   C     0.69266   0.57004   0.96585   0.00000  Uiso   1.00
C930   C     0.98729   0.45599   0.52741   0.00000  Uiso   1.00
C931   C     0.67063   0.55090   0.91971   0.00000  Uiso   1.00
C932   C     0.67034   0.46549   0.57655   0.00000  Uiso   1.00
C933   C     0.74877   0.49433   0.91266   0.00000  Uiso   1.00
C934   C     0.92230   0.51723   0.58732   0.00000  Uiso   1.00
C935   C     0.77494   0.51711   0.95637   0.00000  Uiso   1.00
C936   C     0.98390   0.40138   0.74410   0.00000  Uiso   1.00
C937   C     0.90408   0.50728   0.53840   0.00000  Uiso   1.00
C938   C     0.74533   0.55447   0.98381   0.00000  Uiso   1.00
C939   C     0.93646   0.47462   0.50866   0.00000  Uiso   1.00
C940   C     0.83004   0.50461   0.97279   0.00000  Uiso   1.00
C941   C     0.85224   0.52523   0.51951   0.00000  Uiso   1.00
C942   C     0.73512   0.66618   0.69420   0.00000  Uiso   1.00
C943   C     0.74552   0.62553   0.65278   0.00000  Uiso   1.00
C944   C     0.91615   0.66246   0.69837   0.00000  Uiso   1.00
C945   C     0.91651   0.34654   0.64637   0.00000  Uiso   1.00
C946   C     0.82559   0.47183   0.68907   0.00000  Uiso   1.00
C947   C     0.82168   0.56269   0.54588   0.00000  Uiso   1.00
C948   C     0.83878   0.53793   0.80756   0.00000  Uiso   1.00
C949   C     0.86430   0.47345   0.94354   0.00000  Uiso   1.00
C950   C     0.76931   0.57708   0.52803   0.00000  Uiso   1.00
C951   C     0.91689   0.45949   0.96109   0.00000  Uiso   1.00
C952   C     0.68390   0.64908   0.72169   0.00000  Uiso   1.00
C953   C     0.97273   0.34597   0.72610   0.00000  Uiso   1.00
C954   C     0.68791   0.50418   0.84082   0.00000  Uiso   1.00
H955   H     0.74756   0.60652   0.54862   0.00000  Uiso   1.00
H956   H     0.85238   0.45985   0.90640   0.00000  Uiso   1.00
H957   H     0.76473   0.58988   0.66666   0.00000  Uiso   1.00
H958   H     0.70538   0.61279   0.63102   0.00000  Uiso   1.00
H959   H     0.77560   0.64440   0.62869   0.00000  Uiso   1.00
H960   H     0.72826   0.37087   0.67685   0.00000  Uiso   1.00
H961   H     0.77339   0.33885   0.71978   0.00000  Uiso   1.00
H962   H     0.92583   0.39044   0.64627   0.00000  Uiso   1.00
H963   H     0.87455   0.33594   0.62699   0.00000  Uiso   1.00
H964   H     0.94893   0.65929   0.62641   0.00000  Uiso   1.00
H965   H     0.90606   0.61859   0.69597   0.00000  Uiso   1.00
H966   H     0.94162   0.43531   0.93770   0.00000  Uiso   1.00
H967   H     0.88128   0.34732   0.71702   0.00000  Uiso   1.00
H968   H     0.83191   0.50301   0.66409   0.00000  Uiso   1.00
H969   H     0.85002   0.51939   0.84086   0.00000  Uiso   1.00
H970   H     0.89838   0.53975   0.61218   0.00000  Uiso   1.00
H971   H     0.76682   0.46287   0.89172   0.00000  Uiso   1.00
H972   H     0.70780   0.44814   0.59134   0.00000  Uiso   1.00
H973   H     0.96571   0.56646   0.90441   0.00000  Uiso   1.00
H974   H     0.66992   0.59877   0.98649   0.00000  Uiso   1.00
H975   H     0.67952   0.43201   0.50462   0.00000  Uiso   1.00
H976   H     0.83798   0.58324   0.57972   0.00000  Uiso   1.00
N977   N     0.81362   0.48550   0.73740   0.00000  Uiso   1.00
N978   N     0.85305   0.51450   0.76261   0.00000  Uiso   1.00
O979   O     0.96386   0.57964   0.75310   0.00000  Uiso   1.00
O980   O     0.81763   0.58096   0.80946   0.00000  Uiso   1.00
O981   O     0.70281   0.42036   0.74691   0.00000  Uiso   1.00
O982   O     0.72488   0.57035   0.74502   0.00000  Uiso   1.00
O983   O     0.94178   0.42965   0.75499   0.00000  Uiso   1.00
O984   O     0.96995   0.50730   0.82247   0.00000  Uiso   1.00
O985   O     0.69672   0.49270   0.67753   0.00000  Uiso   1.00
O986   O     0.73098   0.49801   0.81439   0.00000  Uiso   1.00
O987   O     0.93569   0.50199   0.68561   0.00000  Uiso   1.00
O988   O     0.82553   0.42503   0.67450   0.00000  Uiso   1.00
Zn989  Zn    0.93700   0.50621   0.75540   0.00000  Uiso   1.00
Zn990  Zn    0.72967   0.49379   0.74461   0.00000  Uiso   1.00
C991   C     0.01348   0.93082   0.74198   0.00000  Uiso   1.00
C992   C     0.31236   0.83005   0.65915   0.00000  Uiso   1.00
C993   C     0.03327   0.84745   0.89273   0.00000  Uiso   1.00
C994   C     0.30278   0.82746   0.60671   0.00000  Uiso   1.00
C995   C     0.02599   0.90337   0.96585   0.00000  Uiso   1.00
C996   C     0.32063   0.78932   0.52741   0.00000  Uiso   1.00
C997   C     0.00397   0.88423   0.91971   0.00000  Uiso   1.00
C998   C     0.00367   0.79882   0.57655   0.00000  Uiso   1.00
C999   C     0.08210   0.82767   0.91266   0.00000  Uiso   1.00
C1000  C     0.25563   0.85056   0.58732   0.00000  Uiso   1.00
C1001  C     0.10827   0.85044   0.95637   0.00000  Uiso   1.00
C1002  C     0.31723   0.73471   0.74410   0.00000  Uiso   1.00
C1003  C     0.23741   0.84062   0.53840   0.00000  Uiso   1.00
C1004  C     0.07867   0.88780   0.98381   0.00000  Uiso   1.00
C1005  C     0.26979   0.80795   0.50866   0.00000  Uiso   1.00
C1006  C     0.16338   0.83794   0.97279   0.00000  Uiso   1.00
C1007  C     0.18557   0.85857   0.51951   0.00000  Uiso   1.00
C1008  C     0.06846   0.99951   0.69420   0.00000  Uiso   1.00
C1009  C     0.07885   0.95886   0.65278   0.00000  Uiso   1.00
C1010  C     0.24949   0.99579   0.69837   0.00000  Uiso   1.00
C1011  C     0.24985   0.67988   0.64637   0.00000  Uiso   1.00
C1012  C     0.15892   0.80516   0.68907   0.00000  Uiso   1.00
C1013  C     0.15502   0.89602   0.54588   0.00000  Uiso   1.00
C1014  C     0.17211   0.87127   0.80756   0.00000  Uiso   1.00
C1015  C     0.19763   0.80678   0.94354   0.00000  Uiso   1.00
C1016  C     0.10264   0.91042   0.52803   0.00000  Uiso   1.00
C1017  C     0.25022   0.79282   0.96109   0.00000  Uiso   1.00
C1018  C     0.01724   0.98241   0.72169   0.00000  Uiso   1.00
C1019  C     0.30607   0.67930   0.72610   0.00000  Uiso   1.00
C1020  C     0.02124   0.83751   0.84082   0.00000  Uiso   1.00
H1021  H     0.08089   0.93986   0.54862   0.00000  Uiso   1.00
H1022  H     0.18572   0.79319   0.90640   0.00000  Uiso   1.00
H1023  H     0.09806   0.92322   0.66666   0.00000  Uiso   1.00
H1024  H     0.03871   0.94612   0.63102   0.00000  Uiso   1.00
H1025  H     0.10893   0.97773   0.62869   0.00000  Uiso   1.00
H1026  H     0.06160   0.70420   0.67685   0.00000  Uiso   1.00
H1027  H     0.10672   0.67218   0.71978   0.00000  Uiso   1.00
H1028  H     0.25916   0.72377   0.64627   0.00000  Uiso   1.00
H1029  H     0.20788   0.66927   0.62699   0.00000  Uiso   1.00
H1030  H     0.28227   0.99262   0.62641   0.00000  Uiso   1.00
H1031  H     0.23939   0.95192   0.69597   0.00000  Uiso   1.00
H1032  H     0.27495   0.76864   0.93770   0.00000  Uiso   1.00
H1033  H     0.21461   0.68065   0.71702   0.00000  Uiso   1.00
H1034  H     0.16524   0.83635   0.66409   0.00000  Uiso   1.00
H1035  H     0.18336   0.85272   0.84086   0.00000  Uiso   1.00
H1036  H     0.23171   0.87308   0.61218   0.00000  Uiso   1.00
H1037  H     0.10015   0.79620   0.89172   0.00000  Uiso   1.00
H1038  H     0.04113   0.78147   0.59134   0.00000  Uiso   1.00
H1039  H     0.29905   0.89979   0.90441   0.00000  Uiso   1.00
H1040  H     0.00325   0.93211   0.98649   0.00000  Uiso   1.00
H1041  H     0.01285   0.76534   0.50462   0.00000  Uiso   1.00
H1042  H     0.17131   0.91657   0.57972   0.00000  Uiso   1.00
N1043  N     0.14695   0.81883   0.73740   0.00000  Uiso   1.00
N1044  N     0.18638   0.84784   0.76261   0.00000  Uiso   1.00
O1045  O     0.29719   0.91298   0.75310   0.00000  Uiso   1.00
O1046  O     0.15097   0.91430   0.80946   0.00000  Uiso   1.00
O1047  O     0.03614   0.75369   0.74691   0.00000  Uiso   1.00
O1048  O     0.05822   0.90368   0.74502   0.00000  Uiso   1.00
O1049  O     0.27512   0.76298   0.75499   0.00000  Uiso   1.00
O1050  O     0.30328   0.84063   0.82247   0.00000  Uiso   1.00
O1051  O     0.03005   0.82603   0.67753   0.00000  Uiso   1.00
O1052  O     0.06431   0.83134   0.81439   0.00000  Uiso   1.00
O1053  O     0.26902   0.83533   0.68561   0.00000  Uiso   1.00
O1054  O     0.15887   0.75836   0.67450   0.00000  Uiso   1.00
Zn1055 Zn    0.27033   0.83954   0.75540   0.00000  Uiso   1.00
Zn1056 Zn    0.06300   0.82713   0.74461   0.00000  Uiso   1.00
C1057  C     0.34681   0.93082   0.74198   0.00000  Uiso   1.00
C1058  C     0.64569   0.83005   0.65915   0.00000  Uiso   1.00
C1059  C     0.36661   0.84745   0.89273   0.00000  Uiso   1.00
C1060  C     0.63612   0.82746   0.60671   0.00000  Uiso   1.00
C1061  C     0.35932   0.90337   0.96585   0.00000  Uiso   1.00
C1062  C     0.65396   0.78932   0.52741   0.00000  Uiso   1.00
C1063  C     0.33730   0.88423   0.91971   0.00000  Uiso   1.00
C1064  C     0.33700   0.79882   0.57655   0.00000  Uiso   1.00
C1065  C     0.41543   0.82767   0.91266   0.00000  Uiso   1.00
C1066  C     0.58897   0.85056   0.58732   0.00000  Uiso   1.00
C1067  C     0.44161   0.85044   0.95637   0.00000  Uiso   1.00
C1068  C     0.65056   0.73471   0.74410   0.00000  Uiso   1.00
C1069  C     0.57074   0.84062   0.53840   0.00000  Uiso   1.00
C1070  C     0.41200   0.88780   0.98381   0.00000  Uiso   1.00
C1071  C     0.60312   0.80795   0.50866   0.00000  Uiso   1.00
C1072  C     0.49671   0.83794   0.97279   0.00000  Uiso   1.00
C1073  C     0.51890   0.85857   0.51951   0.00000  Uiso   1.00
C1074  C     0.40179   0.99951   0.69420   0.00000  Uiso   1.00
C1075  C     0.41219   0.95886   0.65278   0.00000  Uiso   1.00
C1076  C     0.58282   0.99579   0.69837   0.00000  Uiso   1.00
C1077  C     0.58318   0.67988   0.64637   0.00000  Uiso   1.00
C1078  C     0.49225   0.80516   0.68907   0.00000  Uiso   1.00
C1079  C     0.48835   0.89602   0.54588   0.00000  Uiso   1.00
C1080  C     0.50544   0.87127   0.80756   0.00000  Uiso   1.00
C1081  C     0.53096   0.80678   0.94354   0.00000  Uiso   1.00
C1082  C     0.43598   0.91042   0.52803   0.00000  Uiso   1.00
C1083  C     0.58356   0.79282   0.96109   0.00000  Uiso   1.00
C1084  C     0.35057   0.98241   0.72169   0.00000  Uiso   1.00
C1085  C     0.63940   0.67930   0.72610   0.00000  Uiso   1.00
C1086  C     0.35457   0.83751   0.84082   0.00000  Uiso   1.00
H1087  H     0.41423   0.93986   0.54862   0.00000  Uiso   1.00
H1088  H     0.51905   0.79319   0.90640   0.00000  Uiso   1.00
H1089  H     0.43140   0.92322   0.66666   0.00000  Uiso   1.00
H1090  H     0.37205   0.94612   0.63102   0.00000  Uiso   1.00
H1091  H     0.44226   0.97773   0.62869   0.00000  Uiso   1.00
H1092  H     0.39493   0.70420   0.67685   0.00000  Uiso   1.00
H1093  H     0.44006   0.67218   0.71978   0.00000  Uiso   1.00
H1094  H     0.59250   0.72377   0.64627   0.00000  Uiso   1.00
H1095  H     0.54121   0.66927   0.62699   0.00000  Uiso   1.00
H1096  H     0.61560   0.99262   0.62641   0.00000  Uiso   1.00
H1097  H     0.57273   0.95192   0.69597   0.00000  Uiso   1.00
H1098  H     0.60829   0.76864   0.93770   0.00000  Uiso   1.00
H1099  H     0.54795   0.68065   0.71702   0.00000  Uiso   1.00
H1100  H     0.49857   0.83635   0.66409   0.00000  Uiso   1.00
H1101  H     0.51669   0.85272   0.84086   0.00000  Uiso   1.00
H1102  H     0.56504   0.87308   0.61218   0.00000  Uiso   1.00
H1103  H     0.43349   0.79620   0.89172   0.00000  Uiso   1.00
H1104  H     0.37446   0.78147   0.59134   0.00000  Uiso   1.00
H1105  H     0.63238   0.89979   0.90441   0.00000  Uiso   1.00
H1106  H     0.33659   0.93211   0.98649   0.00000  Uiso   1.00
H1107  H     0.34618   0.76534   0.50462   0.00000  Uiso   1.00
H1108  H     0.50464   0.91657   0.57972   0.00000  Uiso   1.00
N1109  N     0.48029   0.81883   0.73740   0.00000  Uiso   1.00
N1110  N     0.51971   0.84784   0.76261   0.00000  Uiso   1.00
O1111  O     0.63052   0.91298   0.75310   0.00000  Uiso   1.00
O1112  O     0.48430   0.91430   0.80946   0.00000  Uiso   1.00
O1113  O     0.36948   0.75369   0.74691   0.00000  Uiso   1.00
O1114  O     0.39155   0.90368   0.74502   0.00000  Uiso   1.00
O1115  O     0.60845   0.76298   0.75499   0.00000  Uiso   1.00
O1116  O     0.63662   0.84063   0.82247   0.00000  Uiso   1.00
O1117  O     0.36338   0.82603   0.67753   0.00000  Uiso   1.00
O1118  O     0.39764   0.83134   0.81439   0.00000  Uiso   1.00
O1119  O     0.60236   0.83533   0.68561   0.00000  Uiso   1.00
O1120  O     0.49220   0.75836   0.67450   0.00000  Uiso   1.00
Zn1121 Zn    0.60366   0.83954   0.75540   0.00000  Uiso   1.00
Zn1122 Zn    0.39634   0.82713   0.74461   0.00000  Uiso   1.00
C1123  C     0.68015   0.93082   0.74198   0.00000  Uiso   1.00
C1124  C     0.97902   0.83005   0.65915   0.00000  Uiso   1.00
C1125  C     0.69994   0.84745   0.89273   0.00000  Uiso   1.00
C1126  C     0.96945   0.82746   0.60671   0.00000  Uiso   1.00
C1127  C     0.69266   0.90337   0.96585   0.00000  Uiso   1.00
C1128  C     0.98729   0.78932   0.52741   0.00000  Uiso   1.00
C1129  C     0.67063   0.88423   0.91971   0.00000  Uiso   1.00
C1130  C     0.67034   0.79882   0.57655   0.00000  Uiso   1.00
C1131  C     0.74877   0.82767   0.91266   0.00000  Uiso   1.00
C1132  C     0.92230   0.85056   0.58732   0.00000  Uiso   1.00
C1133  C     0.77494   0.85044   0.95637   0.00000  Uiso   1.00
C1134  C     0.98390   0.73471   0.74410   0.00000  Uiso   1.00
C1135  C     0.90408   0.84062   0.53840   0.00000  Uiso   1.00
C1136  C     0.74533   0.88780   0.98381   0.00000  Uiso   1.00
C1137  C     0.93646   0.80795   0.50866   0.00000  Uiso   1.00
C1138  C     0.83004   0.83794   0.97279   0.00000  Uiso   1.00
C1139  C     0.85224   0.85857   0.51951   0.00000  Uiso   1.00
C1140  C     0.73512   0.99951   0.69420   0.00000  Uiso   1.00
C1141  C     0.74552   0.95886   0.65278   0.00000  Uiso   1.00
C1142  C     0.91615   0.99579   0.69837   0.00000  Uiso   1.00
C1143  C     0.91651   0.67988   0.64637   0.00000  Uiso   1.00
C1144  C     0.82559   0.80516   0.68907   0.00000  Uiso   1.00
C1145  C     0.82168   0.89602   0.54588   0.00000  Uiso   1.00
C1146  C     0.83878   0.87127   0.80756   0.00000  Uiso   1.00
C1147  C     0.86430   0.80678   0.94354   0.00000  Uiso   1.00
C1148  C     0.76931   0.91042   0.52803   0.00000  Uiso   1.00
C1149  C     0.91689   0.79282   0.96109   0.00000  Uiso   1.00
C1150  C     0.68390   0.98241   0.72169   0.00000  Uiso   1.00
C1151  C     0.97273   0.67930   0.72610   0.00000  Uiso   1.00
C1152  C     0.68791   0.83751   0.84082   0.00000  Uiso   1.00
H1153  H     0.74756   0.93986   0.54862   0.00000  Uiso   1.00
H1154  H     0.85238   0.79319   0.90640   0.00000  Uiso   1.00
H1155  H     0.76473   0.92322   0.66666   0.00000  Uiso   1.00
H1156  H     0.70538   0.94612   0.63102   0.00000  Uiso   1.00
H1157  H     0.77560   0.97773   0.62869   0.00000  Uiso   1.00
H1158  H     0.72826   0.70420   0.67685   0.00000  Uiso   1.00
H1159  H     0.77339   0.67218   0.71978   0.00000  Uiso   1.00
H1160  H     0.92583   0.72377   0.64627   0.00000  Uiso   1.00
H1161  H     0.87455   0.66927   0.62699   0.00000  Uiso   1.00
H1162  H     0.94893   0.99262   0.62641   0.00000  Uiso   1.00
H1163  H     0.90606   0.95192   0.69597   0.00000  Uiso   1.00
H1164  H     0.94162   0.76864   0.93770   0.00000  Uiso   1.00
H1165  H     0.88128   0.68065   0.71702   0.00000  Uiso   1.00
H1166  H     0.83191   0.83635   0.66409   0.00000  Uiso   1.00
H1167  H     0.85002   0.85272   0.84086   0.00000  Uiso   1.00
H1168  H     0.89838   0.87308   0.61218   0.00000  Uiso   1.00
H1169  H     0.76682   0.79620   0.89172   0.00000  Uiso   1.00
H1170  H     0.70780   0.78147   0.59134   0.00000  Uiso   1.00
H1171  H     0.96571   0.89979   0.90441   0.00000  Uiso   1.00
H1172  H     0.66992   0.93211   0.98649   0.00000  Uiso   1.00
H1173  H     0.67952   0.76534   0.50462   0.00000  Uiso   1.00
H1174  H     0.83798   0.91657   0.57972   0.00000  Uiso   1.00
N1175  N     0.81362   0.81883   0.73740   0.00000  Uiso   1.00
N1176  N     0.85305   0.84784   0.76261   0.00000  Uiso   1.00
O1177  O     0.96386   0.91298   0.75310   0.00000  Uiso   1.00
O1178  O     0.81763   0.91430   0.80946   0.00000  Uiso   1.00
O1179  O     0.70281   0.75369   0.74691   0.00000  Uiso   1.00
O1180  O     0.72488   0.90368   0.74502   0.00000  Uiso   1.00
O1181  O     0.94178   0.76298   0.75499   0.00000  Uiso   1.00
O1182  O     0.96995   0.84063   0.82247   0.00000  Uiso   1.00
O1183  O     0.69672   0.82603   0.67753   0.00000  Uiso   1.00
O1184  O     0.73098   0.83134   0.81439   0.00000  Uiso   1.00
O1185  O     0.93569   0.83533   0.68561   0.00000  Uiso   1.00
O1186  O     0.82553   0.75836   0.67450   0.00000  Uiso   1.00
Zn1187 Zn    0.93700   0.83954   0.75540   0.00000  Uiso   1.00
Zn1188 Zn    0.72967   0.82713   0.74461   0.00000  Uiso   1.00
loop_
_geom_bond_atom_site_label_1
_geom_bond_atom_site_label_2
_geom_bond_distance
_geom_bond_site_symmetry_2
_ccdc_geom_bond_type
C1     C28     1.441   .     S
C1     O58     1.299   .     A
C1     O187    1.293   1_455 S
C2     C4      1.449   .     S
C2     O63     1.307   .     A
C2     O127    1.295   .     S
C3     C9      1.386   .     A
C3     C30     1.448   .     S
C3     C7      1.398   .     A
C4     C10     1.387   .     A
C4     C74     1.399   .     S
C5     C14     1.404   .     A
C5     H50     1.084   .     S
C5     C7      1.391   .     A
C6     C15     1.403   .     A
C6     C74     1.390   .     S
C6     H117    1.084   .     S
C7     H181    1.083   1_455 S
C8     H48     1.083   .     S
C8     C136    1.399   1_455 S
C8     C138    1.390   1_455 S
C9     C11     1.394   .     A
C9     H47     1.077   .     S
C10    H46     1.075   .     S
C10    C13     1.395   .     A
C11    C16     1.418   .     A
C11    C14     1.419   .     A
C12    C29     1.448   .     S
C12    O59     1.302   .     A
C12    O123    1.293   .     S
C13    C17     1.417   .     A
C13    C15     1.420   .     A
C14    C620    1.386   .     S
C15    C621    1.387   1_554 S
C16    C25     1.419   .     A
C16    C611    1.417   .     S
C17    C23     1.418   .     A
C17    C610    1.417   1_554 S
C18    C28     1.524   .     S
C18    C19     1.528   .     S
C18    H234    1.111   .     S
C18    H235    1.111   .     S
C19    H35     1.108   .     S
C19    H33     1.109   .     S
C19    H34     1.111   .     S
C20    H41     1.107   .     S
C20    C219    1.528   .     S
C20    C227    1.523   .     S
C20    H241    1.110   .     S
C21    H39     1.108   .     S
C21    H38     1.109   .     S
C21    C416    1.528   1_545 S
C21    H436    1.110   1_545 S
C22    N53     1.409   .     S
C22    H44     1.084   .     S
C22    O64     1.217   .     D
C23    H52     1.076   .     S
C23    C26     1.386   .     A
C24    O56     1.220   .     D
C24    H45     1.083   .     S
C24    N54     1.411   .     S
C25    C27     1.384   .     A
C25    H32     1.076   .     S
C26    H31     1.082   .     S
C26    C608    1.386   1_554 S
C27    H42     1.084   .     S
C27    C609    1.387   .     S
C28    C359    1.347   1_455 S
C29    C490    1.347   1_545 S
C29    C416    1.523   1_545 S
C30    O62     1.304   .     A
C30    O192    1.297   1_455 S
H36    C414    1.111   1_545 S
H37    C414    1.111   1_545 S
H40    C219    1.110   .     S
H43    C416    1.110   1_545 S
H49    C73     1.083   .     S
H51    C138    1.084   1_455 S
N53    N54     1.286   .     D
N53    Zn66    2.036   .     S
N54    Zn65    2.036   .     S
O55    Zn65    1.915   .     S
O55    C67     1.293   .     S
O57    Zn66    1.915   .     S
O57    C144    1.293   1_455 S
O58    Zn66    1.931   .     S
O59    Zn65    1.931   .     S
O60    Zn65    1.964   .     S
O60    C96     1.297   .     S
O61    Zn66    1.964   .     S
O61    C134    1.295   1_455 S
O62    Zn66    1.923   .     S
O63    Zn65    1.923   .     S
C67    C94     1.441   .     S
C67    O124    1.299   .     A
C68    C70     1.449   .     S
C68    O129    1.307   .     A
C68    O193    1.295   .     S
C69    C75     1.386   .     A
C69    C96     1.448   .     S
C69    C73     1.398   .     A
C70    C76     1.387   .     A
C70    C140    1.399   .     S
C71    C80     1.404   .     A
C71    H116    1.084   .     S
C71    C73     1.391   .     A
C72    C81     1.403   .     A
C72    C140    1.390   .     S
C72    H183    1.084   .     S
C74    H114    1.083   .     S
C75    C77     1.394   .     A
C75    H113    1.077   .     S
C76    H112    1.075   .     S
C76    C79     1.395   .     A
C77    C82     1.418   .     A
C77    C80     1.419   .     A
C78    C95     1.448   .     S
C78    O125    1.302   .     A
C78    O189    1.293   .     S
C79    C83     1.417   .     A
C79    C81     1.420   .     A
C80    C686    1.386   .     S
C81    C687    1.387   1_554 S
C82    C91     1.419   .     A
C82    C677    1.417   .     S
C83    C89     1.418   .     A
C83    C676    1.417   1_554 S
C84    C94     1.524   .     S
C84    C85     1.528   .     S
C84    H300    1.111   .     S
C84    H301    1.111   .     S
C85    H101    1.108   .     S
C85    H99     1.109   .     S
C85    H100    1.111   .     S
C86    H107    1.107   .     S
C86    C285    1.528   .     S
C86    C293    1.523   .     S
C86    H307    1.110   .     S
C87    H105    1.108   .     S
C87    H104    1.109   .     S
C87    C482    1.528   1_545 S
C87    H502    1.110   1_545 S
C88    N119    1.409   .     S
C88    H110    1.084   .     S
C88    O130    1.217   .     D
C89    H118    1.076   .     S
C89    C92     1.386   .     A
C90    O122    1.220   .     D
C90    H111    1.083   .     S
C90    N120    1.411   .     S
C91    C93     1.384   .     A
C91    H98     1.076   .     S
C92    H97     1.082   .     S
C92    C674    1.386   1_554 S
C93    H108    1.084   .     S
C93    C675    1.387   .     S
C94    C227    1.347   .     S
C95    C556    1.347   1_545 S
C95    C482    1.523   1_545 S
C96    O128    1.304   .     A
H102   C480    1.111   1_545 S
H103   C480    1.111   1_545 S
H106   C285    1.110   .     S
H109   C482    1.110   1_545 S
H115   C139    1.083   .     S
N119   N120    1.286   .     D
N119   Zn132   2.036   .     S
N120   Zn131   2.036   .     S
O121   Zn131   1.915   .     S
O121   C133    1.293   .     S
O123   Zn132   1.915   .     S
O124   Zn132   1.931   .     S
O125   Zn131   1.931   .     S
O126   Zn131   1.964   .     S
O126   C162    1.297   .     S
O127   Zn132   1.964   .     S
O128   Zn132   1.923   .     S
O129   Zn131   1.923   .     S
C133   C160    1.441   .     S
C133   O190    1.299   .     A
C134   C136    1.449   .     S
C134   O195    1.307   .     A
C134   O61     1.295   1_655 S
C135   C141    1.386   .     A
C135   C162    1.448   .     S
C135   C139    1.398   .     A
C136   C142    1.387   .     A
C136   C8      1.399   1_655 S
C137   C146    1.404   .     A
C137   H182    1.084   .     S
C137   C139    1.391   .     A
C138   C147    1.403   .     A
C138   C8      1.390   1_655 S
C138   H51     1.084   1_655 S
C140   H180    1.083   .     S
C141   C143    1.394   .     A
C141   H179    1.077   .     S
C142   H178    1.075   .     S
C142   C145    1.395   .     A
C143   C148    1.418   .     A
C143   C146    1.419   .     A
C144   C161    1.448   .     S
C144   O191    1.302   .     A
C144   O57     1.293   1_655 S
C145   C149    1.417   .     A
C145   C147    1.420   .     A
C146   C752    1.386   .     S
C147   C753    1.387   1_554 S
C148   C157    1.419   .     A
C148   C743    1.417   .     S
C149   C155    1.418   .     A
C149   C742    1.417   1_554 S
C150   C160    1.524   .     S
C150   C151    1.528   .     S
C150   H366    1.111   .     S
C150   H367    1.111   .     S
C151   H167    1.108   .     S
C151   H165    1.109   .     S
C151   H166    1.111   .     S
C152   H173    1.107   .     S
C152   C351    1.528   .     S
C152   C359    1.523   .     S
C152   H373    1.110   .     S
C153   H171    1.108   .     S
C153   H170    1.109   .     S
C153   C548    1.528   1_545 S
C153   H568    1.110   1_545 S
C154   N185    1.409   .     S
C154   H176    1.084   .     S
C154   O196    1.217   .     D
C155   H184    1.076   .     S
C155   C158    1.386   .     A
C156   O188    1.220   .     D
C156   H177    1.083   .     S
C156   N186    1.411   .     S
C157   C159    1.384   .     A
C157   H164    1.076   .     S
C158   H163    1.082   .     S
C158   C740    1.386   1_554 S
C159   H174    1.084   .     S
C159   C741    1.387   .     S
C160   C293    1.347   .     S
C161   C424    1.347   1_645 S
C161   C548    1.523   1_545 S
C162   O194    1.304   .     A
H168   C546    1.111   1_545 S
H169   C546    1.111   1_545 S
H172   C351    1.110   .     S
H175   C548    1.110   1_545 S
H181   C7      1.083   1_655 S
N185   N186    1.286   .     D
N185   Zn198   2.036   .     S
N186   Zn197   2.036   .     S
O187   Zn197   1.915   .     S
O187   C1      1.293   1_655 S
O189   Zn198   1.915   .     S
O190   Zn198   1.931   .     S
O191   Zn197   1.931   .     S
O192   Zn197   1.964   .     S
O192   C30     1.297   1_655 S
O193   Zn198   1.964   .     S
O194   Zn198   1.923   .     S
O195   Zn197   1.923   .     S
C199   C226    1.441   .     S
C199   O256    1.299   .     A
C199   O385    1.293   1_455 S
C200   C202    1.449   .     S
C200   O261    1.307   .     A
C200   O325    1.295   .     S
C201   C207    1.386   .     A
C201   C228    1.448   .     S
C201   C205    1.398   .     A
C202   C208    1.387   .     A
C202   C272    1.399   .     S
C203   C212    1.404   .     A
C203   H248    1.084   .     S
C203   C205    1.391   .     A
C204   C213    1.403   .     A
C204   C272    1.390   .     S
C204   H315    1.084   .     S
C205   H379    1.083   1_455 S
C206   H246    1.083   .     S
C206   C334    1.399   1_455 S
C206   C336    1.390   1_455 S
C207   C209    1.394   .     A
C207   H245    1.077   .     S
C208   H244    1.075   .     S
C208   C211    1.395   .     A
C209   C214    1.418   .     A
C209   C212    1.419   .     A
C210   C227    1.448   .     S
C210   O257    1.302   .     A
C210   O321    1.293   .     S
C211   C215    1.417   .     A
C211   C213    1.420   .     A
C212   C818    1.386   .     S
C213   C819    1.387   1_554 S
C214   C223    1.419   .     A
C214   C809    1.417   .     S
C215   C221    1.418   .     A
C215   C808    1.417   1_554 S
C216   C226    1.524   .     S
C216   C217    1.528   .     S
C216   H432    1.111   .     S
C216   H433    1.111   .     S
C217   H233    1.108   .     S
C217   H231    1.109   .     S
C217   H232    1.111   .     S
C218   H239    1.107   .     S
C218   C417    1.528   .     S
C218   C425    1.523   .     S
C218   H439    1.110   .     S
C219   H237    1.108   .     S
C219   H236    1.109   .     S
C220   N251    1.409   .     S
C220   H242    1.084   .     S
C220   O262    1.217   .     D
C221   H250    1.076   .     S
C221   C224    1.386   .     A
C222   O254    1.220   .     D
C222   H243    1.083   .     S
C222   N252    1.411   .     S
C223   C225    1.384   .     A
C223   H230    1.076   .     S
C224   H229    1.082   .     S
C224   C806    1.386   1_554 S
C225   H240    1.084   .     S
C225   C807    1.387   .     S
C226   C557    1.347   1_455 S
C228   O260    1.304   .     A
C228   O390    1.297   1_455 S
H238   C417    1.110   .     S
H247   C271    1.083   .     S
H249   C336    1.084   1_455 S
N251   N252    1.286   .     D
N251   Zn264   2.036   .     S
N252   Zn263   2.036   .     S
O253   Zn263   1.915   .     S
O253   C265    1.293   .     S
O255   Zn264   1.915   .     S
O255   C342    1.293   1_455 S
O256   Zn264   1.931   .     S
O257   Zn263   1.931   .     S
O258   Zn263   1.964   .     S
O258   C294    1.297   .     S
O259   Zn264   1.964   .     S
O259   C332    1.295   1_455 S
O260   Zn264   1.923   .     S
O261   Zn263   1.923   .     S
C265   C292    1.441   .     S
C265   O322    1.299   .     A
C266   C268    1.449   .     S
C266   O327    1.307   .     A
C266   O391    1.295   .     S
C267   C273    1.386   .     A
C267   C294    1.448   .     S
C267   C271    1.398   .     A
C268   C274    1.387   .     A
C268   C338    1.399   .     S
C269   C278    1.404   .     A
C269   H314    1.084   .     S
C269   C271    1.391   .     A
C270   C279    1.403   .     A
C270   C338    1.390   .     S
C270   H381    1.084   .     S
C272   H312    1.083   .     S
C273   C275    1.394   .     A
C273   H311    1.077   .     S
C274   H310    1.075   .     S
C274   C277    1.395   .     A
C275   C280    1.418   .     A
C275   C278    1.419   .     A
C276   C293    1.448   .     S
C276   O323    1.302   .     A
C276   O387    1.293   .     S
C277   C281    1.417   .     A
C277   C279    1.420   .     A
C278   C884    1.386   .     S
C279   C885    1.387   1_554 S
C280   C289    1.419   .     A
C280   C875    1.417   .     S
C281   C287    1.418   .     A
C281   C874    1.417   1_554 S
C282   C292    1.524   .     S
C282   C283    1.528   .     S
C282   H498    1.111   .     S
C282   H499    1.111   .     S
C283   H299    1.108   .     S
C283   H297    1.109   .     S
C283   H298    1.111   .     S
C284   H305    1.107   .     S
C284   C483    1.528   .     S
C284   C491    1.523   .     S
C284   H505    1.110   .     S
C285   H303    1.108   .     S
C285   H302    1.109   .     S
C286   N317    1.409   .     S
C286   H308    1.084   .     S
C286   O328    1.217   .     D
C287   H316    1.076   .     S
C287   C290    1.386   .     A
C288   O320    1.220   .     D
C288   H309    1.083   .     S
C288   N318    1.411   .     S
C289   C291    1.384   .     A
C289   H296    1.076   .     S
C290   H295    1.082   .     S
C290   C872    1.386   1_554 S
C291   H306    1.084   .     S
C291   C873    1.387   .     S
C292   C425    1.347   .     S
C294   O326    1.304   .     A
H304   C483    1.110   .     S
H313   C337    1.083   .     S
N317   N318    1.286   .     D
N317   Zn330   2.036   .     S
N318   Zn329   2.036   .     S
O319   Zn329   1.915   .     S
O319   C331    1.293   .     S
O321   Zn330   1.915   .     S
O322   Zn330   1.931   .     S
O323   Zn329   1.931   .     S
O324   Zn329   1.964   .     S
O324   C360    1.297   .     S
O325   Zn330   1.964   .     S
O326   Zn330   1.923   .     S
O327   Zn329   1.923   .     S
C331   C358    1.441   .     S
C331   O388    1.299   .     A
C332   C334    1.449   .     S
C332   O393    1.307   .     A
C332   O259    1.295   1_655 S
C333   C339    1.386   .     A
C333   C360    1.448   .     S
C333   C337    1.398   .     A
C334   C340    1.387   .     A
C334   C206    1.399   1_655 S
C335   C344    1.404   .     A
C335   H380    1.084   .     S
C335   C337    1.391   .     A
C336   C345    1.403   .     A
C336   C206    1.390   1_655 S
C336   H249    1.084   1_655 S
C338   H378    1.083   .     S
C339   C341    1.394   .     A
C339   H377    1.077   .     S
C340   H376    1.075   .     S
C340   C343    1.395   .     A
C341   C346    1.418   .     A
C341   C344    1.419   .     A
C342   C359    1.448   .     S
C342   O389    1.302   .     A
C342   O255    1.293   1_655 S
C343   C347    1.417   .     A
C343   C345    1.420   .     A
C344   C950    1.386   .     S
C345   C951    1.387   1_554 S
C346   C355    1.419   .     A
C346   C941    1.417   .     S
C347   C353    1.418   .     A
C347   C940    1.417   1_554 S
C348   C358    1.524   .     S
C348   C349    1.528   .     S
C348   H564    1.111   .     S
C348   H565    1.111   .     S
C349   H365    1.108   .     S
C349   H363    1.109   .     S
C349   H364    1.111   .     S
C350   H371    1.107   .     S
C350   C549    1.528   .     S
C350   C557    1.523   .     S
C350   H571    1.110   .     S
C351   H369    1.108   .     S
C351   H368    1.109   .     S
C352   N383    1.409   .     S
C352   H374    1.084   .     S
C352   O394    1.217   .     D
C353   H382    1.076   .     S
C353   C356    1.386   .     A
C354   O386    1.220   .     D
C354   H375    1.083   .     S
C354   N384    1.411   .     S
C355   C357    1.384   .     A
C355   H362    1.076   .     S
C356   H361    1.082   .     S
C356   C938    1.386   1_554 S
C357   H372    1.084   .     S
C357   C939    1.387   .     S
C358   C491    1.347   .     S
C359   C28     1.347   1_655 S
C360   O392    1.304   .     A
H370   C549    1.110   .     S
H379   C205    1.083   1_655 S
N383   N384    1.286   .     D
N383   Zn396   2.036   .     S
N384   Zn395   2.036   .     S
O385   Zn395   1.915   .     S
O385   C199    1.293   1_655 S
O387   Zn396   1.915   .     S
O388   Zn396   1.931   .     S
O389   Zn395   1.931   .     S
O390   Zn395   1.964   .     S
O390   C228    1.297   1_655 S
O391   Zn396   1.964   .     S
O392   Zn396   1.923   .     S
O393   Zn395   1.923   .     S
C397   C424    1.441   .     S
C397   O454    1.299   .     A
C397   O583    1.293   1_455 S
C398   C400    1.449   .     S
C398   O459    1.307   .     A
C398   O523    1.295   .     S
C399   C405    1.386   .     A
C399   C426    1.448   .     S
C399   C403    1.398   .     A
C400   C406    1.387   .     A
C400   C470    1.399   .     S
C401   C410    1.404   .     A
C401   H446    1.084   .     S
C401   C403    1.391   .     A
C402   C411    1.403   .     A
C402   C470    1.390   .     S
C402   H513    1.084   .     S
C403   H577    1.083   1_455 S
C404   H444    1.083   .     S
C404   C532    1.399   1_455 S
C404   C534    1.390   1_455 S
C405   C407    1.394   .     A
C405   H443    1.077   .     S
C406   H442    1.075   .     S
C406   C409    1.395   .     A
C407   C412    1.418   .     A
C407   C410    1.419   .     A
C408   C425    1.448   .     S
C408   O455    1.302   .     A
C408   O519    1.293   .     S
C409   C413    1.417   .     A
C409   C411    1.420   .     A
C410   C1016   1.386   .     S
C411   C1017   1.387   1_554 S
C412   C421    1.419   .     A
C412   C1007   1.417   .     S
C413   C419    1.418   .     A
C413   C1006   1.417   1_554 S
C414   C424    1.524   .     S
C414   C415    1.528   .     S
C414   H36     1.111   1_565 S
C414   H37     1.111   1_565 S
C415   H431    1.108   .     S
C415   H429    1.109   .     S
C415   H430    1.111   .     S
C416   H437    1.107   .     S
C416   C21     1.528   1_565 S
C416   C29     1.523   1_565 S
C416   H43     1.110   1_565 S
C417   H435    1.108   .     S
C417   H434    1.109   .     S
C418   N449    1.409   .     S
C418   H440    1.084   .     S
C418   O460    1.217   .     D
C419   H448    1.076   .     S
C419   C422    1.386   .     A
C420   O452    1.220   .     D
C420   H441    1.083   .     S
C420   N450    1.411   .     S
C421   C423    1.384   .     A
C421   H428    1.076   .     S
C422   H427    1.082   .     S
C422   C1004   1.386   1_554 S
C423   H438    1.084   .     S
C423   C1005   1.387   .     S
C424   C161    1.347   1_465 S
C426   O458    1.304   .     A
C426   O588    1.297   1_455 S
H436   C21     1.110   1_565 S
H445   C469    1.083   .     S
H447   C534    1.084   1_455 S
N449   N450    1.286   .     D
N449   Zn462   2.036   .     S
N450   Zn461   2.036   .     S
O451   Zn461   1.915   .     S
O451   C463    1.293   .     S
O453   Zn462   1.915   .     S
O453   C540    1.293   1_455 S
O454   Zn462   1.931   .     S
O455   Zn461   1.931   .     S
O456   Zn461   1.964   .     S
O456   C492    1.297   .     S
O457   Zn462   1.964   .     S
O457   C530    1.295   1_455 S
O458   Zn462   1.923   .     S
O459   Zn461   1.923   .     S
C463   C490    1.441   .     S
C463   O520    1.299   .     A
C464   C466    1.449   .     S
C464   O525    1.307   .     A
C464   O589    1.295   .     S
C465   C471    1.386   .     A
C465   C492    1.448   .     S
C465   C469    1.398   .     A
C466   C472    1.387   .     A
C466   C536    1.399   .     S
C467   C476    1.404   .     A
C467   H512    1.084   .     S
C467   C469    1.391   .     A
C468   C477    1.403   .     A
C468   C536    1.390   .     S
C468   H579    1.084   .     S
C470   H510    1.083   .     S
C471   C473    1.394   .     A
C471   H509    1.077   .     S
C472   H508    1.075   .     S
C472   C475    1.395   .     A
C473   C478    1.418   .     A
C473   C476    1.419   .     A
C474   C491    1.448   .     S
C474   O521    1.302   .     A
C474   O585    1.293   .     S
C475   C479    1.417   .     A
C475   C477    1.420   .     A
C476   C1082   1.386   .     S
C477   C1083   1.387   1_554 S
C478   C487    1.419   .     A
C478   C1073   1.417   .     S
C479   C485    1.418   .     A
C479   C1072   1.417   1_554 S
C480   C490    1.524   .     S
C480   C481    1.528   .     S
C480   H102    1.111   1_565 S
C480   H103    1.111   1_565 S
C481   H497    1.108   .     S
C481   H495    1.109   .     S
C481   H496    1.111   .     S
C482   H503    1.107   .     S
C482   C87     1.528   1_565 S
C482   C95     1.523   1_565 S
C482   H109    1.110   1_565 S
C483   H501    1.108   .     S
C483   H500    1.109   .     S
C484   N515    1.409   .     S
C484   H506    1.084   .     S
C484   O526    1.217   .     D
C485   H514    1.076   .     S
C485   C488    1.386   .     A
C486   O518    1.220   .     D
C486   H507    1.083   .     S
C486   N516    1.411   .     S
C487   C489    1.384   .     A
C487   H494    1.076   .     S
C488   H493    1.082   .     S
C488   C1070   1.386   1_554 S
C489   H504    1.084   .     S
C489   C1071   1.387   .     S
C490   C29     1.347   1_565 S
C492   O524    1.304   .     A
H502   C87     1.110   1_565 S
H511   C535    1.083   .     S
N515   N516    1.286   .     D
N515   Zn528   2.036   .     S
N516   Zn527   2.036   .     S
O517   Zn527   1.915   .     S
O517   C529    1.293   .     S
O519   Zn528   1.915   .     S
O520   Zn528   1.931   .     S
O521   Zn527   1.931   .     S
O522   Zn527   1.964   .     S
O522   C558    1.297   .     S
O523   Zn528   1.964   .     S
O524   Zn528   1.923   .     S
O525   Zn527   1.923   .     S
C529   C556    1.441   .     S
C529   O586    1.299   .     A
C530   C532    1.449   .     S
C530   O591    1.307   .     A
C530   O457    1.295   1_655 S
C531   C537    1.386   .     A
C531   C558    1.448   .     S
C531   C535    1.398   .     A
C532   C538    1.387   .     A
C532   C404    1.399   1_655 S
C533   C542    1.404   .     A
C533   H578    1.084   .     S
C533   C535    1.391   .     A
C534   C543    1.403   .     A
C534   C404    1.390   1_655 S
C534   H447    1.084   1_655 S
C536   H576    1.083   .     S
C537   C539    1.394   .     A
C537   H575    1.077   .     S
C538   H574    1.075   .     S
C538   C541    1.395   .     A
C539   C544    1.418   .     A
C539   C542    1.419   .     A
C540   C557    1.448   .     S
C540   O587    1.302   .     A
C540   O453    1.293   1_655 S
C541   C545    1.417   .     A
C541   C543    1.420   .     A
C542   C1148   1.386   .     S
C543   C1149   1.387   1_554 S
C544   C553    1.419   .     A
C544   C1139   1.417   .     S
C545   C551    1.418   .     A
C545   C1138   1.417   1_554 S
C546   C556    1.524   .     S
C546   C547    1.528   .     S
C546   H168    1.111   1_565 S
C546   H169    1.111   1_565 S
C547   H563    1.108   .     S
C547   H561    1.109   .     S
C547   H562    1.111   .     S
C548   H569    1.107   .     S
C548   C153    1.528   1_565 S
C548   C161    1.523   1_565 S
C548   H175    1.110   1_565 S
C549   H567    1.108   .     S
C549   H566    1.109   .     S
C550   N581    1.409   .     S
C550   H572    1.084   .     S
C550   O592    1.217   .     D
C551   H580    1.076   .     S
C551   C554    1.386   .     A
C552   O584    1.220   .     D
C552   H573    1.083   .     S
C552   N582    1.411   .     S
C553   C555    1.384   .     A
C553   H560    1.076   .     S
C554   H559    1.082   .     S
C554   C1136   1.386   1_554 S
C555   H570    1.084   .     S
C555   C1137   1.387   .     S
C556   C95     1.347   1_565 S
C557   C226    1.347   1_655 S
C558   O590    1.304   .     A
H568   C153    1.110   1_565 S
H577   C403    1.083   1_655 S
N581   N582    1.286   .     D
N581   Zn594   2.036   .     S
N582   Zn593   2.036   .     S
O583   Zn593   1.915   .     S
O583   C397    1.293   1_655 S
O585   Zn594   1.915   .     S
O586   Zn594   1.931   .     S
O587   Zn593   1.931   .     S
O588   Zn593   1.964   .     S
O588   C426    1.297   1_655 S
O589   Zn594   1.964   .     S
O590   Zn594   1.923   .     S
O591   Zn593   1.923   .     S
C595   C622    1.441   .     S
C595   O652    1.299   .     A
C595   O781    1.293   1_455 S
C596   C598    1.449   .     S
C596   O657    1.307   .     A
C596   O721    1.295   .     S
C597   C603    1.386   .     A
C597   C624    1.448   .     S
C597   C601    1.398   .     A
C598   C604    1.387   .     A
C598   C668    1.399   .     S
C599   C608    1.404   .     A
C599   H644    1.084   .     S
C599   C601    1.391   .     A
C600   C609    1.403   .     A
C600   C668    1.390   .     S
C600   H711    1.084   .     S
C601   H775    1.083   1_455 S
C602   H642    1.083   .     S
C602   C730    1.399   1_455 S
C602   C732    1.390   1_455 S
C603   C605    1.394   .     A
C603   H641    1.077   .     S
C604   H640    1.075   .     S
C604   C607    1.395   .     A
C605   C610    1.418   .     A
C605   C608    1.419   .     A
C606   C623    1.448   .     S
C606   O653    1.302   .     A
C606   O717    1.293   .     S
C607   C611    1.417   .     A
C607   C609    1.420   .     A
C608   C26     1.386   1_556 S
C610   C619    1.419   .     A
C610   C17     1.417   1_556 S
C611   C617    1.418   .     A
C612   C622    1.524   .     S
C612   C613    1.528   .     S
C612   H828    1.111   .     S
C612   H829    1.111   .     S
C613   H629    1.108   .     S
C613   H627    1.109   .     S
C613   H628    1.111   .     S
C614   H635    1.107   .     S
C614   C813    1.528   .     S
C614   C821    1.523   .     S
C614   H835    1.110   .     S
C615   H633    1.108   .     S
C615   H632    1.109   .     S
C615   C1010   1.528   1_545 S
C615   H1030   1.110   1_545 S
C616   N647    1.409   .     S
C616   H638    1.084   .     S
C616   O658    1.217   .     D
C617   H646    1.076   .     S
C617   C620    1.386   .     A
C618   O650    1.220   .     D
C618   H639    1.083   .     S
C618   N648    1.411   .     S
C619   C621    1.384   .     A
C619   H626    1.076   .     S
C620   H625    1.082   .     S
C621   H636    1.084   .     S
C621   C15     1.387   1_556 S
C622   C953    1.347   1_455 S
C623   C1084   1.347   1_545 S
C623   C1010   1.523   1_545 S
C624   O656    1.304   .     A
C624   O786    1.297   1_455 S
H630   C1008   1.111   1_545 S
H631   C1008   1.111   1_545 S
H634   C813    1.110   .     S
H637   C1010   1.110   1_545 S
H643   C667    1.083   .     S
H645   C732    1.084   1_455 S
N647   N648    1.286   .     D
N647   Zn660   2.036   .     S
N648   Zn659   2.036   .     S
O649   Zn659   1.915   .     S
O649   C661    1.293   .     S
O651   Zn660   1.915   .     S
O651   C738    1.293   1_455 S
O652   Zn660   1.931   .     S
O653   Zn659   1.931   .     S
O654   Zn659   1.964   .     S
O654   C690    1.297   .     S
O655   Zn660   1.964   .     S
O655   C728    1.295   1_455 S
O656   Zn660   1.923   .     S
O657   Zn659   1.923   .     S
C661   C688    1.441   .     S
C661   O718    1.299   .     A
C662   C664    1.449   .     S
C662   O723    1.307   .     A
C662   O787    1.295   .     S
C663   C669    1.386   .     A
C663   C690    1.448   .     S
C663   C667    1.398   .     A
C664   C670    1.387   .     A
C664   C734    1.399   .     S
C665   C674    1.404   .     A
C665   H710    1.084   .     S
C665   C667    1.391   .     A
C666   C675    1.403   .     A
C666   C734    1.390   .     S
C666   H777    1.084   .     S
C668   H708    1.083   .     S
C669   C671    1.394   .     A
C669   H707    1.077   .     S
C670   H706    1.075   .     S
C670   C673    1.395   .     A
C671   C676    1.418   .     A
C671   C674    1.419   .     A
C672   C689    1.448   .     S
C672   O719    1.302   .     A
C672   O783    1.293   .     S
C673   C677    1.417   .     A
C673   C675    1.420   .     A
C674   C92     1.386   1_556 S
C676   C685    1.419   .     A
C676   C83     1.417   1_556 S
C677   C683    1.418   .     A
C678   C688    1.524   .     S
C678   C679    1.528   .     S
C678   H894    1.111   .     S
C678   H895    1.111   .     S
C679   H695    1.108   .     S
C679   H693    1.109   .     S
C679   H694    1.111   .     S
C680   H701    1.107   .     S
C680   C879    1.528   .     S
C680   C887    1.523   .     S
C680   H901    1.110   .     S
C681   H699    1.108   .     S
C681   H698    1.109   .     S
C681   C1076   1.528   1_545 S
C681   H1096   1.110   1_545 S
C682   N713    1.409   .     S
C682   H704    1.084   .     S
C682   O724    1.217   .     D
C683   H712    1.076   .     S
C683   C686    1.386   .     A
C684   O716    1.220   .     D
C684   H705    1.083   .     S
C684   N714    1.411   .     S
C685   C687    1.384   .     A
C685   H692    1.076   .     S
C686   H691    1.082   .     S
C687   H702    1.084   .     S
C687   C81     1.387   1_556 S
C688   C821    1.347   .     S
C689   C1150   1.347   1_545 S
C689   C1076   1.523   1_545 S
C690   O722    1.304   .     A
H696   C1074   1.111   1_545 S
H697   C1074   1.111   1_545 S
H700   C879    1.110   .     S
H703   C1076   1.110   1_545 S
H709   C733    1.083   .     S
N713   N714    1.286   .     D
N713   Zn726   2.036   .     S
N714   Zn725   2.036   .     S
O715   Zn725   1.915   .     S
O715   C727    1.293   .     S
O717   Zn726   1.915   .     S
O718   Zn726   1.931   .     S
O719   Zn725   1.931   .     S
O720   Zn725   1.964   .     S
O720   C756    1.297   .     S
O721   Zn726   1.964   .     S
O722   Zn726   1.923   .     S
O723   Zn725   1.923   .     S
C727   C754    1.441   .     S
C727   O784    1.299   .     A
C728   C730    1.449   .     S
C728   O789    1.307   .     A
C728   O655    1.295   1_655 S
C729   C735    1.386   .     A
C729   C756    1.448   .     S
C729   C733    1.398   .     A
C730   C736    1.387   .     A
C730   C602    1.399   1_655 S
C731   C740    1.404   .     A
C731   H776    1.084   .     S
C731   C733    1.391   .     A
C732   C741    1.403   .     A
C732   C602    1.390   1_655 S
C732   H645    1.084   1_655 S
C734   H774    1.083   .     S
C735   C737    1.394   .     A
C735   H773    1.077   .     S
C736   H772    1.075   .     S
C736   C739    1.395   .     A
C737   C742    1.418   .     A
C737   C740    1.419   .     A
C738   C755    1.448   .     S
C738   O785    1.302   .     A
C738   O651    1.293   1_655 S
C739   C743    1.417   .     A
C739   C741    1.420   .     A
C740   C158    1.386   1_556 S
C742   C751    1.419   .     A
C742   C149    1.417   1_556 S
C743   C749    1.418   .     A
C744   C754    1.524   .     S
C744   C745    1.528   .     S
C744   H960    1.111   .     S
C744   H961    1.111   .     S
C745   H761    1.108   .     S
C745   H759    1.109   .     S
C745   H760    1.111   .     S
C746   H767    1.107   .     S
C746   C945    1.528   .     S
C746   C953    1.523   .     S
C746   H967    1.110   .     S
C747   H765    1.108   .     S
C747   H764    1.109   .     S
C747   C1142   1.528   1_545 S
C747   H1162   1.110   1_545 S
C748   N779    1.409   .     S
C748   H770    1.084   .     S
C748   O790    1.217   .     D
C749   H778    1.076   .     S
C749   C752    1.386   .     A
C750   O782    1.220   .     D
C750   H771    1.083   .     S
C750   N780    1.411   .     S
C751   C753    1.384   .     A
C751   H758    1.076   .     S
C752   H757    1.082   .     S
C753   H768    1.084   .     S
C753   C147    1.387   1_556 S
C754   C887    1.347   .     S
C755   C1018   1.347   1_645 S
C755   C1142   1.523   1_545 S
C756   O788    1.304   .     A
H762   C1140   1.111   1_545 S
H763   C1140   1.111   1_545 S
H766   C945    1.110   .     S
H769   C1142   1.110   1_545 S
H775   C601    1.083   1_655 S
N779   N780    1.286   .     D
N779   Zn792   2.036   .     S
N780   Zn791   2.036   .     S
O781   Zn791   1.915   .     S
O781   C595    1.293   1_655 S
O783   Zn792   1.915   .     S
O784   Zn792   1.931   .     S
O785   Zn791   1.931   .     S
O786   Zn791   1.964   .     S
O786   C624    1.297   1_655 S
O787   Zn792   1.964   .     S
O788   Zn792   1.923   .     S
O789   Zn791   1.923   .     S
C793   C820    1.441   .     S
C793   O850    1.299   .     A
C793   O979    1.293   1_455 S
C794   C796    1.449   .     S
C794   O855    1.307   .     A
C794   O919    1.295   .     S
C795   C801    1.386   .     A
C795   C822    1.448   .     S
C795   C799    1.398   .     A
C796   C802    1.387   .     A
C796   C866    1.399   .     S
C797   C806    1.404   .     A
C797   H842    1.084   .     S
C797   C799    1.391   .     A
C798   C807    1.403   .     A
C798   C866    1.390   .     S
C798   H909    1.084   .     S
C799   H973    1.083   1_455 S
C800   H840    1.083   .     S
C800   C928    1.399   1_455 S
C800   C930    1.390   1_455 S
C801   C803    1.394   .     A
C801   H839    1.077   .     S
C802   H838    1.075   .     S
C802   C805    1.395   .     A
C803   C808    1.418   .     A
C803   C806    1.419   .     A
C804   C821    1.448   .     S
C804   O851    1.302   .     A
C804   O915    1.293   .     S
C805   C809    1.417   .     A
C805   C807    1.420   .     A
C806   C224    1.386   1_556 S
C808   C817    1.419   .     A
C808   C215    1.417   1_556 S
C809   C815    1.418   .     A
C810   C820    1.524   .     S
C810   C811    1.528   .     S
C810   H1026   1.111   .     S
C810   H1027   1.111   .     S
C811   H827    1.108   .     S
C811   H825    1.109   .     S
C811   H826    1.111   .     S
C812   H833    1.107   .     S
C812   C1011   1.528   .     S
C812   C1019   1.523   .     S
C812   H1033   1.110   .     S
C813   H831    1.108   .     S
C813   H830    1.109   .     S
C814   N845    1.409   .     S
C814   H836    1.084   .     S
C814   O856    1.217   .     D
C815   H844    1.076   .     S
C815   C818    1.386   .     A
C816   O848    1.220   .     D
C816   H837    1.083   .     S
C816   N846    1.411   .     S
C817   C819    1.384   .     A
C817   H824    1.076   .     S
C818   H823    1.082   .     S
C819   H834    1.084   .     S
C819   C213    1.387   1_556 S
C820   C1151   1.347   1_455 S
C822   O854    1.304   .     A
C822   O984    1.297   1_455 S
H832   C1011   1.110   .     S
H841   C865    1.083   .     S
H843   C930    1.084   1_455 S
N845   N846    1.286   .     D
N845   Zn858   2.036   .     S
N846   Zn857   2.036   .     S
O847   Zn857   1.915   .     S
O847   C859    1.293   .     S
O849   Zn858   1.915   .     S
O849   C936    1.293   1_455 S
O850   Zn858   1.931   .     S
O851   Zn857   1.931   .     S
O852   Zn857   1.964   .     S
O852   C888    1.297   .     S
O853   Zn858   1.964   .     S
O853   C926    1.295   1_455 S
O854   Zn858   1.923   .     S
O855   Zn857   1.923   .     S
C859   C886    1.441   .     S
C859   O916    1.299   .     A
C860   C862    1.449   .     S
C860   O921    1.307   .     A
C860   O985    1.295   .     S
C861   C867    1.386   .     A
C861   C888    1.448   .     S
C861   C865    1.398   .     A
C862   C868    1.387   .     A
C862   C932    1.399   .     S
C863   C872    1.404   .     A
C863   H908    1.084   .     S
C863   C865    1.391   .     A
C864   C873    1.403   .     A
C864   C932    1.390   .     S
C864   H975    1.084   .     S
C866   H906    1.083   .     S
C867   C869    1.394   .     A
C867   H905    1.077   .     S
C868   H904    1.075   .     S
C868   C871    1.395   .     A
C869   C874    1.418   .     A
C869   C872    1.419   .     A
C870   C887    1.448   .     S
C870   O917    1.302   .     A
C870   O981    1.293   .     S
C871   C875    1.417   .     A
C871   C873    1.420   .     A
C872   C290    1.386   1_556 S
C874   C883    1.419   .     A
C874   C281    1.417   1_556 S
C875   C881    1.418   .     A
C876   C886    1.524   .     S
C876   C877    1.528   .     S
C876   H1092   1.111   .     S
C876   H1093   1.111   .     S
C877   H893    1.108   .     S
C877   H891    1.109   .     S
C877   H892    1.111   .     S
C878   H899    1.107   .     S
C878   C1077   1.528   .     S
C878   C1085   1.523   .     S
C878   H1099   1.110   .     S
C879   H897    1.108   .     S
C879   H896    1.109   .     S
C880   N911    1.409   .     S
C880   H902    1.084   .     S
C880   O922    1.217   .     D
C881   H910    1.076   .     S
C881   C884    1.386   .     A
C882   O914    1.220   .     D
C882   H903    1.083   .     S
C882   N912    1.411   .     S
C883   C885    1.384   .     A
C883   H890    1.076   .     S
C884   H889    1.082   .     S
C885   H900    1.084   .     S
C885   C279    1.387   1_556 S
C886   C1019   1.347   .     S
C888   O920    1.304   .     A
H898   C1077   1.110   .     S
H907   C931    1.083   .     S
N911   N912    1.286   .     D
N911   Zn924   2.036   .     S
N912   Zn923   2.036   .     S
O913   Zn923   1.915   .     S
O913   C925    1.293   .     S
O915   Zn924   1.915   .     S
O916   Zn924   1.931   .     S
O917   Zn923   1.931   .     S
O918   Zn923   1.964   .     S
O918   C954    1.297   .     S
O919   Zn924   1.964   .     S
O920   Zn924   1.923   .     S
O921   Zn923   1.923   .     S
C925   C952    1.441   .     S
C925   O982    1.299   .     A
C926   C928    1.449   .     S
C926   O987    1.307   .     A
C926   O853    1.295   1_655 S
C927   C933    1.386   .     A
C927   C954    1.448   .     S
C927   C931    1.398   .     A
C928   C934    1.387   .     A
C928   C800    1.399   1_655 S
C929   C938    1.404   .     A
C929   H974    1.084   .     S
C929   C931    1.391   .     A
C930   C939    1.403   .     A
C930   C800    1.390   1_655 S
C930   H843    1.084   1_655 S
C932   H972    1.083   .     S
C933   C935    1.394   .     A
C933   H971    1.077   .     S
C934   H970    1.075   .     S
C934   C937    1.395   .     A
C935   C940    1.418   .     A
C935   C938    1.419   .     A
C936   C953    1.448   .     S
C936   O983    1.302   .     A
C936   O849    1.293   1_655 S
C937   C941    1.417   .     A
C937   C939    1.420   .     A
C938   C356    1.386   1_556 S
C940   C949    1.419   .     A
C940   C347    1.417   1_556 S
C941   C947    1.418   .     A
C942   C952    1.524   .     S
C942   C943    1.528   .     S
C942   H1158   1.111   .     S
C942   H1159   1.111   .     S
C943   H959    1.108   .     S
C943   H957    1.109   .     S
C943   H958    1.111   .     S
C944   H965    1.107   .     S
C944   C1143   1.528   .     S
C944   C1151   1.523   .     S
C944   H1165   1.110   .     S
C945   H963    1.108   .     S
C945   H962    1.109   .     S
C946   N977    1.409   .     S
C946   H968    1.084   .     S
C946   O988    1.217   .     D
C947   H976    1.076   .     S
C947   C950    1.386   .     A
C948   O980    1.220   .     D
C948   H969    1.083   .     S
C948   N978    1.411   .     S
C949   C951    1.384   .     A
C949   H956    1.076   .     S
C950   H955    1.082   .     S
C951   H966    1.084   .     S
C951   C345    1.387   1_556 S
C952   C1085   1.347   .     S
C953   C622    1.347   1_655 S
C954   O986    1.304   .     A
H964   C1143   1.110   .     S
H973   C799    1.083   1_655 S
N977   N978    1.286   .     D
N977   Zn990   2.036   .     S
N978   Zn989   2.036   .     S
O979   Zn989   1.915   .     S
O979   C793    1.293   1_655 S
O981   Zn990   1.915   .     S
O982   Zn990   1.931   .     S
O983   Zn989   1.931   .     S
O984   Zn989   1.964   .     S
O984   C822    1.297   1_655 S
O985   Zn990   1.964   .     S
O986   Zn990   1.923   .     S
O987   Zn989   1.923   .     S
C991   C1018   1.441   .     S
C991   O1048   1.299   .     A
C991   O1177   1.293   1_455 S
C992   C994    1.449   .     S
C992   O1053   1.307   .     A
C992   O1117   1.295   .     S
C993   C999    1.386   .     A
C993   C1020   1.448   .     S
C993   C997    1.398   .     A
C994   C1000   1.387   .     A
C994   C1064   1.399   .     S
C995   C1004   1.404   .     A
C995   H1040   1.084   .     S
C995   C997    1.391   .     A
C996   C1005   1.403   .     A
C996   C1064   1.390   .     S
C996   H1107   1.084   .     S
C997   H1171   1.083   1_455 S
C998   H1038   1.083   .     S
C998   C1126   1.399   1_455 S
C998   C1128   1.390   1_455 S
C999   C1001   1.394   .     A
C999   H1037   1.077   .     S
C1000  H1036   1.075   .     S
C1000  C1003   1.395   .     A
C1001  C1006   1.418   .     A
C1001  C1004   1.419   .     A
C1002  C1019   1.448   .     S
C1002  O1049   1.302   .     A
C1002  O1113   1.293   .     S
C1003  C1007   1.417   .     A
C1003  C1005   1.420   .     A
C1004  C422    1.386   1_556 S
C1006  C1015   1.419   .     A
C1006  C413    1.417   1_556 S
C1007  C1013   1.418   .     A
C1008  C1018   1.524   .     S
C1008  C1009   1.528   .     S
C1008  H630    1.111   1_565 S
C1008  H631    1.111   1_565 S
C1009  H1025   1.108   .     S
C1009  H1023   1.109   .     S
C1009  H1024   1.111   .     S
C1010  H1031   1.107   .     S
C1010  C615    1.528   1_565 S
C1010  C623    1.523   1_565 S
C1010  H637    1.110   1_565 S
C1011  H1029   1.108   .     S
C1011  H1028   1.109   .     S
C1012  N1043   1.409   .     S
C1012  H1034   1.084   .     S
C1012  O1054   1.217   .     D
C1013  H1042   1.076   .     S
C1013  C1016   1.386   .     A
C1014  O1046   1.220   .     D
C1014  H1035   1.083   .     S
C1014  N1044   1.411   .     S
C1015  C1017   1.384   .     A
C1015  H1022   1.076   .     S
C1016  H1021   1.082   .     S
C1017  H1032   1.084   .     S
C1017  C411    1.387   1_556 S
C1018  C755    1.347   1_465 S
C1020  O1052   1.304   .     A
C1020  O1182   1.297   1_455 S
H1030  C615    1.110   1_565 S
H1039  C1063   1.083   .     S
H1041  C1128   1.084   1_455 S
N1043  N1044   1.286   .     D
N1043  Zn1056  2.036   .     S
N1044  Zn1055  2.036   .     S
O1045  Zn1055  1.915   .     S
O1045  C1057   1.293   .     S
O1047  Zn1056  1.915   .     S
O1047  C1134   1.293   1_455 S
O1048  Zn1056  1.931   .     S
O1049  Zn1055  1.931   .     S
O1050  Zn1055  1.964   .     S
O1050  C1086   1.297   .     S
O1051  Zn1056  1.964   .     S
O1051  C1124   1.295   1_455 S
O1052  Zn1056  1.923   .     S
O1053  Zn1055  1.923   .     S
C1057  C1084   1.441   .     S
C1057  O1114   1.299   .     A
C1058  C1060   1.449   .     S
C1058  O1119   1.307   .     A
C1058  O1183   1.295   .     S
C1059  C1065   1.386   .     A
C1059  C1086   1.448   .     S
C1059  C1063   1.398   .     A
C1060  C1066   1.387   .     A
C1060  C1130   1.399   .     S
C1061  C1070   1.404   .     A
C1061  H1106   1.084   .     S
C1061  C1063   1.391   .     A
C1062  C1071   1.403   .     A
C1062  C1130   1.390   .     S
C1062  H1173   1.084   .     S
C1064  H1104   1.083   .     S
C1065  C1067   1.394   .     A
C1065  H1103   1.077   .     S
C1066  H1102   1.075   .     S
C1066  C1069   1.395   .     A
C1067  C1072   1.418   .     A
C1067  C1070   1.419   .     A
C1068  C1085   1.448   .     S
C1068  O1115   1.302   .     A
C1068  O1179   1.293   .     S
C1069  C1073   1.417   .     A
C1069  C1071   1.420   .     A
C1070  C488    1.386   1_556 S
C1072  C1081   1.419   .     A
C1072  C479    1.417   1_556 S
C1073  C1079   1.418   .     A
C1074  C1084   1.524   .     S
C1074  C1075   1.528   .     S
C1074  H696    1.111   1_565 S
C1074  H697    1.111   1_565 S
C1075  H1091   1.108   .     S
C1075  H1089   1.109   .     S
C1075  H1090   1.111   .     S
C1076  H1097   1.107   .     S
C1076  C681    1.528   1_565 S
C1076  C689    1.523   1_565 S
C1076  H703    1.110   1_565 S
C1077  H1095   1.108   .     S
C1077  H1094   1.109   .     S
C1078  N1109   1.409   .     S
C1078  H1100   1.084   .     S
C1078  O1120   1.217   .     D
C1079  H1108   1.076   .     S
C1079  C1082   1.386   .     A
C1080  O1112   1.220   .     D
C1080  H1101   1.083   .     S
C1080  N1110   1.411   .     S
C1081  C1083   1.384   .     A
C1081  H1088   1.076   .     S
C1082  H1087   1.082   .     S
C1083  H1098   1.084   .     S
C1083  C477    1.387   1_556 S
C1084  C623    1.347   1_565 S
C1086  O1118   1.304   .     A
H1096  C681    1.110   1_565 S
H1105  C1129   1.083   .     S
N1109  N1110   1.286   .     D
N1109  Zn1122  2.036   .     S
N1110  Zn1121  2.036   .     S
O1111  Zn1121  1.915   .     S
O1111  C1123   1.293   .     S
O1113  Zn1122  1.915   .     S
O1114  Zn1122  1.931   .     S
O1115  Zn1121  1.931   .     S
O1116  Zn1121  1.964   .     S
O1116  C1152   1.297   .     S
O1117  Zn1122  1.964   .     S
O1118  Zn1122  1.923   .     S
O1119  Zn1121  1.923   .     S
C1123  C1150   1.441   .     S
C1123  O1180   1.299   .     A
C1124  C1126   1.449   .     S
C1124  O1185   1.307   .     A
C1124  O1051   1.295   1_655 S
C1125  C1131   1.386   .     A
C1125  C1152   1.448   .     S
C1125  C1129   1.398   .     A
C1126  C1132   1.387   .     A
C1126  C998    1.399   1_655 S
C1127  C1136   1.404   .     A
C1127  H1172   1.084   .     S
C1127  C1129   1.391   .     A
C1128  C1137   1.403   .     A
C1128  C998    1.390   1_655 S
C1128  H1041   1.084   1_655 S
C1130  H1170   1.083   .     S
C1131  C1133   1.394   .     A
C1131  H1169   1.077   .     S
C1132  H1168   1.075   .     S
C1132  C1135   1.395   .     A
C1133  C1138   1.418   .     A
C1133  C1136   1.419   .     A
C1134  C1151   1.448   .     S
C1134  O1181   1.302   .     A
C1134  O1047   1.293   1_655 S
C1135  C1139   1.417   .     A
C1135  C1137   1.420   .     A
C1136  C554    1.386   1_556 S
C1138  C1147   1.419   .     A
C1138  C545    1.417   1_556 S
C1139  C1145   1.418   .     A
C1140  C1150   1.524   .     S
C1140  C1141   1.528   .     S
C1140  H762    1.111   1_565 S
C1140  H763    1.111   1_565 S
C1141  H1157   1.108   .     S
C1141  H1155   1.109   .     S
C1141  H1156   1.111   .     S
C1142  H1163   1.107   .     S
C1142  C747    1.528   1_565 S
C1142  C755    1.523   1_565 S
C1142  H769    1.110   1_565 S
C1143  H1161   1.108   .     S
C1143  H1160   1.109   .     S
C1144  N1175   1.409   .     S
C1144  H1166   1.084   .     S
C1144  O1186   1.217   .     D
C1145  H1174   1.076   .     S
C1145  C1148   1.386   .     A
C1146  O1178   1.220   .     D
C1146  H1167   1.083   .     S
C1146  N1176   1.411   .     S
C1147  C1149   1.384   .     A
C1147  H1154   1.076   .     S
C1148  H1153   1.082   .     S
C1149  H1164   1.084   .     S
C1149  C543    1.387   1_556 S
C1150  C689    1.347   1_565 S
C1151  C820    1.347   1_655 S
C1152  O1184   1.304   .     A
H1162  C747    1.110   1_565 S
H1171  C997    1.083   1_655 S
N1175  N1176   1.286   .     D
N1175  Zn1188  2.036   .     S
N1176  Zn1187  2.036   .     S
O1177  Zn1187  1.915   .     S
O1177  C991    1.293   1_655 S
O1179  Zn1188  1.915   .     S
O1180  Zn1188  1.931   .     S
O1181  Zn1187  1.931   .     S
O1182  Zn1187  1.964   .     S
O1182  C1020   1.297   1_655 S
O1183  Zn1188  1.964   .     S
O1184  Zn1188  1.923   .     S
O1185  Zn1187  1.923   .     S
