data_str_m2_o2_o5_pcu_sym.58
_audit_creation_date              2020-01-03
_audit_creation_method            'Materials Studio'
_symmetry_space_group_name_H-M    'P1'
_symmetry_Int_Tables_number       1
_symmetry_cell_setting            triclinic
loop_
_symmetry_equiv_pos_as_xyz
  x,y,z
_cell_length_a                    30.5080
_cell_length_b                    27.9856
_cell_length_c                    27.2067
_cell_angle_alpha                 90.0006
_cell_angle_beta                  93.7295
_cell_angle_gamma                 90.0044
loop_
_atom_site_label
_atom_site_type_symbol
_atom_site_fract_x
_atom_site_fract_y
_atom_site_fract_z
_atom_site_U_iso_or_equiv
_atom_site_adp_type
_atom_site_occupancy
C1     C     0.16493   0.24996   0.16745   0.00000  Uiso   1.00
C2     C     0.26894   0.44679   0.20629   0.00000  Uiso   1.00
C3     C     0.24986   0.25000   0.07360   0.00000  Uiso   1.00
C4     C     0.25014   0.25000   0.25973   0.00000  Uiso   1.00
C5     C     0.25000   0.02721   0.16666   0.00000  Uiso   1.00
C6     C     0.25000   0.47302   0.16666   0.00000  Uiso   1.00
C7     C     0.24995   0.25001   0.02186   0.00000  Uiso   1.00
C8     C     0.25005   0.25001   0.31147   0.00000  Uiso   1.00
C9     C     0.04533   0.28695   0.15029   0.00000  Uiso   1.00
C10    C     0.45135   0.20733   0.14893   0.00000  Uiso   1.00
C11    C     0.45468   0.28691   0.18306   0.00000  Uiso   1.00
C12    C     0.33506   0.24996   0.16588   0.00000  Uiso   1.00
C13    C     0.04862   0.20728   0.18421   0.00000  Uiso   1.00
C14    C     0.09080   0.28933   0.15203   0.00000  Uiso   1.00
C15    C     0.40558   0.20855   0.14730   0.00000  Uiso   1.00
C16    C     0.40922   0.28929   0.18136   0.00000  Uiso   1.00
C17    C     0.09439   0.20850   0.18587   0.00000  Uiso   1.00
C18    C     0.11643   0.24944   0.16863   0.00000  Uiso   1.00
C19    C     0.38357   0.24945   0.16467   0.00000  Uiso   1.00
C20    C     0.02402   0.24636   0.16643   0.00000  Uiso   1.00
C21    C     0.47597   0.24636   0.16679   0.00000  Uiso   1.00
C22    C     0.31742   0.12783   0.22489   0.00000  Uiso   1.00
C23    C     0.28250   0.10396   0.19332   0.00000  Uiso   1.00
C24    C     0.20520   0.37277   0.08592   0.00000  Uiso   1.00
C25    C     0.18260   0.12782   0.10841   0.00000  Uiso   1.00
C26    C     0.29485   0.37279   0.24738   0.00000  Uiso   1.00
C27    C     0.22990   0.39626   0.12779   0.00000  Uiso   1.00
C28    C     0.21750   0.10396   0.14000   0.00000  Uiso   1.00
C29    C     0.27010   0.39627   0.20554   0.00000  Uiso   1.00
C30    C     0.28323   0.05343   0.19219   0.00000  Uiso   1.00
C31    C     0.23105   0.44678   0.12704   0.00000  Uiso   1.00
C32    C     0.21677   0.05343   0.14113   0.00000  Uiso   1.00
Cl33   Cl    0.11227   0.34428   0.13353   0.00000  Uiso   1.00
Cl34   Cl    0.37815   0.15895   0.11948   0.00000  Uiso   1.00
Cl35   Cl    0.38777   0.34417   0.20006   0.00000  Uiso   1.00
Cl36   Cl    0.12178   0.15884   0.21360   0.00000  Uiso   1.00
Cu37   Cu    0.25000   0.29821   0.16667   0.00000  Uiso   1.00
Cu38   Cu    0.25000   0.20178   0.16667   0.00000  Uiso   1.00
H39    H     0.02638   0.31739   0.13636   0.00000  Uiso   1.00
H40    H     0.18879   0.33917   0.09053   0.00000  Uiso   1.00
H41    H     0.18707   0.16279   0.09324   0.00000  Uiso   1.00
H42    H     0.31115   0.33914   0.24279   0.00000  Uiso   1.00
H43    H     0.46775   0.17633   0.13486   0.00000  Uiso   1.00
H44    H     0.47364   0.31731   0.19707   0.00000  Uiso   1.00
H45    H     0.03220   0.17625   0.19820   0.00000  Uiso   1.00
H46    H     0.30993   0.03461   0.21184   0.00000  Uiso   1.00
H47    H     0.21647   0.46556   0.09527   0.00000  Uiso   1.00
H48    H     0.19007   0.03460   0.12147   0.00000  Uiso   1.00
H49    H     0.28352   0.46558   0.23805   0.00000  Uiso   1.00
H50    H     0.31292   0.16277   0.24013   0.00000  Uiso   1.00
N51    N     0.25000   0.12934   0.16667   0.00000  Uiso   1.00
N52    N     0.25000   0.37065   0.16667   0.00000  Uiso   1.00
O53    O     0.18573   0.29071   0.16667   0.00000  Uiso   1.00
O54    O     0.20206   0.39142   0.04525   0.00000  Uiso   1.00
O55    O     0.14765   0.10779   0.09792   0.00000  Uiso   1.00
O56    O     0.29819   0.39154   0.28801   0.00000  Uiso   1.00
O57    O     0.31427   0.20928   0.16666   0.00000  Uiso   1.00
O58    O     0.31427   0.29071   0.16666   0.00000  Uiso   1.00
O59    O     0.18573   0.20928   0.16667   0.00000  Uiso   1.00
O60    O     0.25000   0.29071   0.09613   0.00000  Uiso   1.00
O61    O     0.25000   0.20929   0.23720   0.00000  Uiso   1.00
O62    O     0.25000   0.29071   0.23720   0.00000  Uiso   1.00
O63    O     0.25000   0.20929   0.09613   0.00000  Uiso   1.00
O64    O     0.35240   0.10785   0.23527   0.00000  Uiso   1.00
C65    C     0.66493   0.24996   0.16745   0.00000  Uiso   1.00
C66    C     0.76894   0.44679   0.20629   0.00000  Uiso   1.00
C67    C     0.74986   0.25000   0.07360   0.00000  Uiso   1.00
C68    C     0.75014   0.25000   0.25973   0.00000  Uiso   1.00
C69    C     0.75000   0.02721   0.16666   0.00000  Uiso   1.00
C70    C     0.75000   0.47302   0.16666   0.00000  Uiso   1.00
C71    C     0.74995   0.25001   0.02186   0.00000  Uiso   1.00
C72    C     0.75005   0.25001   0.31147   0.00000  Uiso   1.00
C73    C     0.54533   0.28695   0.15029   0.00000  Uiso   1.00
C74    C     0.95135   0.20733   0.14893   0.00000  Uiso   1.00
C75    C     0.95468   0.28691   0.18306   0.00000  Uiso   1.00
C76    C     0.83506   0.24996   0.16588   0.00000  Uiso   1.00
C77    C     0.54862   0.20728   0.18421   0.00000  Uiso   1.00
C78    C     0.59080   0.28933   0.15203   0.00000  Uiso   1.00
C79    C     0.90558   0.20855   0.14730   0.00000  Uiso   1.00
C80    C     0.90922   0.28929   0.18136   0.00000  Uiso   1.00
C81    C     0.59439   0.20850   0.18587   0.00000  Uiso   1.00
C82    C     0.61643   0.24944   0.16863   0.00000  Uiso   1.00
C83    C     0.88357   0.24945   0.16467   0.00000  Uiso   1.00
C84    C     0.52402   0.24636   0.16643   0.00000  Uiso   1.00
C85    C     0.97597   0.24636   0.16679   0.00000  Uiso   1.00
C86    C     0.81742   0.12783   0.22489   0.00000  Uiso   1.00
C87    C     0.78250   0.10396   0.19332   0.00000  Uiso   1.00
C88    C     0.70520   0.37277   0.08592   0.00000  Uiso   1.00
C89    C     0.68260   0.12782   0.10841   0.00000  Uiso   1.00
C90    C     0.79485   0.37279   0.24738   0.00000  Uiso   1.00
C91    C     0.72990   0.39626   0.12779   0.00000  Uiso   1.00
C92    C     0.71750   0.10396   0.14000   0.00000  Uiso   1.00
C93    C     0.77010   0.39627   0.20554   0.00000  Uiso   1.00
C94    C     0.78323   0.05343   0.19219   0.00000  Uiso   1.00
C95    C     0.73105   0.44678   0.12704   0.00000  Uiso   1.00
C96    C     0.71677   0.05343   0.14113   0.00000  Uiso   1.00
Cl97   Cl    0.61227   0.34428   0.13353   0.00000  Uiso   1.00
Cl98   Cl    0.87815   0.15895   0.11948   0.00000  Uiso   1.00
Cl99   Cl    0.88777   0.34417   0.20006   0.00000  Uiso   1.00
Cl100  Cl    0.62178   0.15884   0.21360   0.00000  Uiso   1.00
Cu101  Cu    0.75000   0.29821   0.16667   0.00000  Uiso   1.00
Cu102  Cu    0.75000   0.20178   0.16667   0.00000  Uiso   1.00
H103   H     0.52638   0.31739   0.13636   0.00000  Uiso   1.00
H104   H     0.68879   0.33917   0.09053   0.00000  Uiso   1.00
H105   H     0.68707   0.16279   0.09324   0.00000  Uiso   1.00
H106   H     0.81115   0.33914   0.24279   0.00000  Uiso   1.00
H107   H     0.96775   0.17633   0.13486   0.00000  Uiso   1.00
H108   H     0.97364   0.31731   0.19707   0.00000  Uiso   1.00
H109   H     0.53220   0.17625   0.19820   0.00000  Uiso   1.00
H110   H     0.80993   0.03461   0.21184   0.00000  Uiso   1.00
H111   H     0.71647   0.46556   0.09527   0.00000  Uiso   1.00
H112   H     0.69007   0.03460   0.12147   0.00000  Uiso   1.00
H113   H     0.78352   0.46558   0.23805   0.00000  Uiso   1.00
H114   H     0.81292   0.16277   0.24013   0.00000  Uiso   1.00
N115   N     0.75000   0.12934   0.16667   0.00000  Uiso   1.00
N116   N     0.75000   0.37065   0.16667   0.00000  Uiso   1.00
O117   O     0.68573   0.29071   0.16667   0.00000  Uiso   1.00
O118   O     0.70206   0.39142   0.04525   0.00000  Uiso   1.00
O119   O     0.64765   0.10779   0.09792   0.00000  Uiso   1.00
O120   O     0.79819   0.39154   0.28801   0.00000  Uiso   1.00
O121   O     0.81427   0.20928   0.16666   0.00000  Uiso   1.00
O122   O     0.81427   0.29071   0.16666   0.00000  Uiso   1.00
O123   O     0.68573   0.20928   0.16667   0.00000  Uiso   1.00
O124   O     0.75000   0.29071   0.09613   0.00000  Uiso   1.00
O125   O     0.75000   0.20929   0.23720   0.00000  Uiso   1.00
O126   O     0.75000   0.29071   0.23720   0.00000  Uiso   1.00
O127   O     0.75000   0.20929   0.09613   0.00000  Uiso   1.00
O128   O     0.85240   0.10785   0.23527   0.00000  Uiso   1.00
C129   C     0.16493   0.74996   0.16745   0.00000  Uiso   1.00
C130   C     0.26894   0.94679   0.20629   0.00000  Uiso   1.00
C131   C     0.24986   0.75000   0.07360   0.00000  Uiso   1.00
C132   C     0.25014   0.75000   0.25973   0.00000  Uiso   1.00
C133   C     0.25000   0.52721   0.16666   0.00000  Uiso   1.00
C134   C     0.25000   0.97302   0.16666   0.00000  Uiso   1.00
C135   C     0.24995   0.75001   0.02186   0.00000  Uiso   1.00
C136   C     0.25005   0.75001   0.31147   0.00000  Uiso   1.00
C137   C     0.04533   0.78695   0.15029   0.00000  Uiso   1.00
C138   C     0.45135   0.70733   0.14893   0.00000  Uiso   1.00
C139   C     0.45468   0.78691   0.18306   0.00000  Uiso   1.00
C140   C     0.33506   0.74996   0.16588   0.00000  Uiso   1.00
C141   C     0.04862   0.70728   0.18421   0.00000  Uiso   1.00
C142   C     0.09080   0.78933   0.15203   0.00000  Uiso   1.00
C143   C     0.40558   0.70855   0.14730   0.00000  Uiso   1.00
C144   C     0.40922   0.78929   0.18136   0.00000  Uiso   1.00
C145   C     0.09439   0.70850   0.18587   0.00000  Uiso   1.00
C146   C     0.11643   0.74944   0.16863   0.00000  Uiso   1.00
C147   C     0.38357   0.74945   0.16467   0.00000  Uiso   1.00
C148   C     0.02402   0.74636   0.16643   0.00000  Uiso   1.00
C149   C     0.47597   0.74636   0.16679   0.00000  Uiso   1.00
C150   C     0.31742   0.62783   0.22489   0.00000  Uiso   1.00
C151   C     0.28250   0.60396   0.19332   0.00000  Uiso   1.00
C152   C     0.20520   0.87277   0.08592   0.00000  Uiso   1.00
C153   C     0.18260   0.62782   0.10841   0.00000  Uiso   1.00
C154   C     0.29485   0.87279   0.24738   0.00000  Uiso   1.00
C155   C     0.22990   0.89626   0.12779   0.00000  Uiso   1.00
C156   C     0.21750   0.60396   0.14000   0.00000  Uiso   1.00
C157   C     0.27010   0.89627   0.20554   0.00000  Uiso   1.00
C158   C     0.28323   0.55343   0.19219   0.00000  Uiso   1.00
C159   C     0.23105   0.94678   0.12704   0.00000  Uiso   1.00
C160   C     0.21677   0.55343   0.14113   0.00000  Uiso   1.00
Cl161  Cl    0.11227   0.84428   0.13353   0.00000  Uiso   1.00
Cl162  Cl    0.37815   0.65895   0.11948   0.00000  Uiso   1.00
Cl163  Cl    0.38777   0.84417   0.20006   0.00000  Uiso   1.00
Cl164  Cl    0.12178   0.65884   0.21360   0.00000  Uiso   1.00
Cu165  Cu    0.25000   0.79821   0.16667   0.00000  Uiso   1.00
Cu166  Cu    0.25000   0.70178   0.16667   0.00000  Uiso   1.00
H167   H     0.02638   0.81739   0.13636   0.00000  Uiso   1.00
H168   H     0.18879   0.83917   0.09053   0.00000  Uiso   1.00
H169   H     0.18707   0.66279   0.09324   0.00000  Uiso   1.00
H170   H     0.31115   0.83914   0.24279   0.00000  Uiso   1.00
H171   H     0.46775   0.67633   0.13486   0.00000  Uiso   1.00
H172   H     0.47364   0.81731   0.19707   0.00000  Uiso   1.00
H173   H     0.03220   0.67625   0.19820   0.00000  Uiso   1.00
H174   H     0.30993   0.53461   0.21184   0.00000  Uiso   1.00
H175   H     0.21647   0.96556   0.09527   0.00000  Uiso   1.00
H176   H     0.19007   0.53460   0.12147   0.00000  Uiso   1.00
H177   H     0.28352   0.96558   0.23805   0.00000  Uiso   1.00
H178   H     0.31292   0.66277   0.24013   0.00000  Uiso   1.00
N179   N     0.25000   0.62934   0.16667   0.00000  Uiso   1.00
N180   N     0.25000   0.87065   0.16667   0.00000  Uiso   1.00
O181   O     0.18573   0.79071   0.16667   0.00000  Uiso   1.00
O182   O     0.20206   0.89142   0.04525   0.00000  Uiso   1.00
O183   O     0.14765   0.60779   0.09792   0.00000  Uiso   1.00
O184   O     0.29819   0.89154   0.28801   0.00000  Uiso   1.00
O185   O     0.31427   0.70928   0.16666   0.00000  Uiso   1.00
O186   O     0.31427   0.79071   0.16666   0.00000  Uiso   1.00
O187   O     0.18573   0.70928   0.16667   0.00000  Uiso   1.00
O188   O     0.25000   0.79071   0.09613   0.00000  Uiso   1.00
O189   O     0.25000   0.70929   0.23720   0.00000  Uiso   1.00
O190   O     0.25000   0.79071   0.23720   0.00000  Uiso   1.00
O191   O     0.25000   0.70929   0.09613   0.00000  Uiso   1.00
O192   O     0.35240   0.60785   0.23527   0.00000  Uiso   1.00
C193   C     0.66493   0.74996   0.16745   0.00000  Uiso   1.00
C194   C     0.76894   0.94679   0.20629   0.00000  Uiso   1.00
C195   C     0.74986   0.75000   0.07360   0.00000  Uiso   1.00
C196   C     0.75014   0.75000   0.25973   0.00000  Uiso   1.00
C197   C     0.75000   0.52721   0.16666   0.00000  Uiso   1.00
C198   C     0.75000   0.97302   0.16666   0.00000  Uiso   1.00
C199   C     0.74995   0.75001   0.02186   0.00000  Uiso   1.00
C200   C     0.75005   0.75001   0.31147   0.00000  Uiso   1.00
C201   C     0.54533   0.78695   0.15029   0.00000  Uiso   1.00
C202   C     0.95135   0.70733   0.14893   0.00000  Uiso   1.00
C203   C     0.95468   0.78691   0.18306   0.00000  Uiso   1.00
C204   C     0.83506   0.74996   0.16588   0.00000  Uiso   1.00
C205   C     0.54862   0.70728   0.18421   0.00000  Uiso   1.00
C206   C     0.59080   0.78933   0.15203   0.00000  Uiso   1.00
C207   C     0.90558   0.70855   0.14730   0.00000  Uiso   1.00
C208   C     0.90922   0.78929   0.18136   0.00000  Uiso   1.00
C209   C     0.59439   0.70850   0.18587   0.00000  Uiso   1.00
C210   C     0.61643   0.74944   0.16863   0.00000  Uiso   1.00
C211   C     0.88357   0.74945   0.16467   0.00000  Uiso   1.00
C212   C     0.52402   0.74636   0.16643   0.00000  Uiso   1.00
C213   C     0.97597   0.74636   0.16679   0.00000  Uiso   1.00
C214   C     0.81742   0.62783   0.22489   0.00000  Uiso   1.00
C215   C     0.78250   0.60396   0.19332   0.00000  Uiso   1.00
C216   C     0.70520   0.87277   0.08592   0.00000  Uiso   1.00
C217   C     0.68260   0.62782   0.10841   0.00000  Uiso   1.00
C218   C     0.79485   0.87279   0.24738   0.00000  Uiso   1.00
C219   C     0.72990   0.89626   0.12779   0.00000  Uiso   1.00
C220   C     0.71750   0.60396   0.14000   0.00000  Uiso   1.00
C221   C     0.77010   0.89627   0.20554   0.00000  Uiso   1.00
C222   C     0.78323   0.55343   0.19219   0.00000  Uiso   1.00
C223   C     0.73105   0.94678   0.12704   0.00000  Uiso   1.00
C224   C     0.71677   0.55343   0.14113   0.00000  Uiso   1.00
Cl225  Cl    0.61227   0.84428   0.13353   0.00000  Uiso   1.00
Cl226  Cl    0.87815   0.65895   0.11948   0.00000  Uiso   1.00
Cl227  Cl    0.88777   0.84417   0.20006   0.00000  Uiso   1.00
Cl228  Cl    0.62178   0.65884   0.21360   0.00000  Uiso   1.00
Cu229  Cu    0.75000   0.79821   0.16667   0.00000  Uiso   1.00
Cu230  Cu    0.75000   0.70178   0.16667   0.00000  Uiso   1.00
H231   H     0.52638   0.81739   0.13636   0.00000  Uiso   1.00
H232   H     0.68879   0.83917   0.09053   0.00000  Uiso   1.00
H233   H     0.68707   0.66279   0.09324   0.00000  Uiso   1.00
H234   H     0.81115   0.83914   0.24279   0.00000  Uiso   1.00
H235   H     0.96775   0.67633   0.13486   0.00000  Uiso   1.00
H236   H     0.97364   0.81731   0.19707   0.00000  Uiso   1.00
H237   H     0.53220   0.67625   0.19820   0.00000  Uiso   1.00
H238   H     0.80993   0.53461   0.21184   0.00000  Uiso   1.00
H239   H     0.71647   0.96556   0.09527   0.00000  Uiso   1.00
H240   H     0.69007   0.53460   0.12147   0.00000  Uiso   1.00
H241   H     0.78352   0.96558   0.23805   0.00000  Uiso   1.00
H242   H     0.81292   0.66277   0.24013   0.00000  Uiso   1.00
N243   N     0.75000   0.62934   0.16667   0.00000  Uiso   1.00
N244   N     0.75000   0.87065   0.16667   0.00000  Uiso   1.00
O245   O     0.68573   0.79071   0.16667   0.00000  Uiso   1.00
O246   O     0.70206   0.89142   0.04525   0.00000  Uiso   1.00
O247   O     0.64765   0.60779   0.09792   0.00000  Uiso   1.00
O248   O     0.79819   0.89154   0.28801   0.00000  Uiso   1.00
O249   O     0.81427   0.70928   0.16666   0.00000  Uiso   1.00
O250   O     0.81427   0.79071   0.16666   0.00000  Uiso   1.00
O251   O     0.68573   0.70928   0.16667   0.00000  Uiso   1.00
O252   O     0.75000   0.79071   0.09613   0.00000  Uiso   1.00
O253   O     0.75000   0.70929   0.23720   0.00000  Uiso   1.00
O254   O     0.75000   0.79071   0.23720   0.00000  Uiso   1.00
O255   O     0.75000   0.70929   0.09613   0.00000  Uiso   1.00
O256   O     0.85240   0.60785   0.23527   0.00000  Uiso   1.00
C257   C     0.16493   0.24996   0.50078   0.00000  Uiso   1.00
C258   C     0.26894   0.44679   0.53962   0.00000  Uiso   1.00
C259   C     0.24986   0.25000   0.40693   0.00000  Uiso   1.00
C260   C     0.25014   0.25000   0.59307   0.00000  Uiso   1.00
C261   C     0.25000   0.02721   0.49999   0.00000  Uiso   1.00
C262   C     0.25000   0.47302   0.49999   0.00000  Uiso   1.00
C263   C     0.24995   0.25001   0.35520   0.00000  Uiso   1.00
C264   C     0.25005   0.25001   0.64480   0.00000  Uiso   1.00
C265   C     0.04533   0.28695   0.48362   0.00000  Uiso   1.00
C266   C     0.45135   0.20733   0.48226   0.00000  Uiso   1.00
C267   C     0.45468   0.28691   0.51639   0.00000  Uiso   1.00
C268   C     0.33506   0.24996   0.49922   0.00000  Uiso   1.00
C269   C     0.04862   0.20728   0.51755   0.00000  Uiso   1.00
C270   C     0.09080   0.28933   0.48536   0.00000  Uiso   1.00
C271   C     0.40558   0.20855   0.48064   0.00000  Uiso   1.00
C272   C     0.40922   0.28929   0.51469   0.00000  Uiso   1.00
C273   C     0.09439   0.20850   0.51921   0.00000  Uiso   1.00
C274   C     0.11643   0.24944   0.50197   0.00000  Uiso   1.00
C275   C     0.38357   0.24945   0.49800   0.00000  Uiso   1.00
C276   C     0.02402   0.24636   0.49976   0.00000  Uiso   1.00
C277   C     0.47597   0.24636   0.50013   0.00000  Uiso   1.00
C278   C     0.31742   0.12783   0.55822   0.00000  Uiso   1.00
C279   C     0.28250   0.10396   0.52665   0.00000  Uiso   1.00
C280   C     0.20520   0.37277   0.41926   0.00000  Uiso   1.00
C281   C     0.18260   0.12782   0.44174   0.00000  Uiso   1.00
C282   C     0.29485   0.37279   0.58072   0.00000  Uiso   1.00
C283   C     0.22990   0.39626   0.46113   0.00000  Uiso   1.00
C284   C     0.21750   0.10396   0.47334   0.00000  Uiso   1.00
C285   C     0.27010   0.39627   0.53887   0.00000  Uiso   1.00
C286   C     0.28323   0.05343   0.52552   0.00000  Uiso   1.00
C287   C     0.23105   0.44678   0.46037   0.00000  Uiso   1.00
C288   C     0.21677   0.05343   0.47446   0.00000  Uiso   1.00
Cl289  Cl    0.11227   0.34428   0.46686   0.00000  Uiso   1.00
Cl290  Cl    0.37815   0.15895   0.45281   0.00000  Uiso   1.00
Cl291  Cl    0.38777   0.34417   0.53340   0.00000  Uiso   1.00
Cl292  Cl    0.12178   0.15884   0.54694   0.00000  Uiso   1.00
Cu293  Cu    0.25000   0.29821   0.50000   0.00000  Uiso   1.00
Cu294  Cu    0.25000   0.20178   0.50000   0.00000  Uiso   1.00
H295   H     0.02638   0.31739   0.46969   0.00000  Uiso   1.00
H296   H     0.18879   0.33917   0.42386   0.00000  Uiso   1.00
H297   H     0.18707   0.16279   0.42657   0.00000  Uiso   1.00
H298   H     0.31115   0.33914   0.57613   0.00000  Uiso   1.00
H299   H     0.46775   0.17633   0.46819   0.00000  Uiso   1.00
H300   H     0.47364   0.31731   0.53040   0.00000  Uiso   1.00
H301   H     0.03220   0.17625   0.53153   0.00000  Uiso   1.00
H302   H     0.30993   0.03461   0.54518   0.00000  Uiso   1.00
H303   H     0.21647   0.46556   0.42860   0.00000  Uiso   1.00
H304   H     0.19007   0.03460   0.45480   0.00000  Uiso   1.00
H305   H     0.28352   0.46558   0.57138   0.00000  Uiso   1.00
H306   H     0.31292   0.16277   0.57346   0.00000  Uiso   1.00
N307   N     0.25000   0.12934   0.50000   0.00000  Uiso   1.00
N308   N     0.25000   0.37065   0.50000   0.00000  Uiso   1.00
O309   O     0.18573   0.29071   0.50000   0.00000  Uiso   1.00
O310   O     0.20206   0.39142   0.37858   0.00000  Uiso   1.00
O311   O     0.14765   0.10779   0.43125   0.00000  Uiso   1.00
O312   O     0.29819   0.39154   0.62134   0.00000  Uiso   1.00
O313   O     0.31427   0.20928   0.50000   0.00000  Uiso   1.00
O314   O     0.31427   0.29071   0.50000   0.00000  Uiso   1.00
O315   O     0.18573   0.20928   0.50000   0.00000  Uiso   1.00
O316   O     0.25000   0.29071   0.42946   0.00000  Uiso   1.00
O317   O     0.25000   0.20929   0.57054   0.00000  Uiso   1.00
O318   O     0.25000   0.29071   0.57054   0.00000  Uiso   1.00
O319   O     0.25000   0.20929   0.42946   0.00000  Uiso   1.00
O320   O     0.35240   0.10785   0.56861   0.00000  Uiso   1.00
C321   C     0.66493   0.24996   0.50078   0.00000  Uiso   1.00
C322   C     0.76894   0.44679   0.53962   0.00000  Uiso   1.00
C323   C     0.74986   0.25000   0.40693   0.00000  Uiso   1.00
C324   C     0.75014   0.25000   0.59307   0.00000  Uiso   1.00
C325   C     0.75000   0.02721   0.49999   0.00000  Uiso   1.00
C326   C     0.75000   0.47302   0.49999   0.00000  Uiso   1.00
C327   C     0.74995   0.25001   0.35520   0.00000  Uiso   1.00
C328   C     0.75005   0.25001   0.64480   0.00000  Uiso   1.00
C329   C     0.54533   0.28695   0.48362   0.00000  Uiso   1.00
C330   C     0.95135   0.20733   0.48226   0.00000  Uiso   1.00
C331   C     0.95468   0.28691   0.51639   0.00000  Uiso   1.00
C332   C     0.83506   0.24996   0.49922   0.00000  Uiso   1.00
C333   C     0.54862   0.20728   0.51755   0.00000  Uiso   1.00
C334   C     0.59080   0.28933   0.48536   0.00000  Uiso   1.00
C335   C     0.90558   0.20855   0.48064   0.00000  Uiso   1.00
C336   C     0.90922   0.28929   0.51469   0.00000  Uiso   1.00
C337   C     0.59439   0.20850   0.51921   0.00000  Uiso   1.00
C338   C     0.61643   0.24944   0.50197   0.00000  Uiso   1.00
C339   C     0.88357   0.24945   0.49800   0.00000  Uiso   1.00
C340   C     0.52402   0.24636   0.49976   0.00000  Uiso   1.00
C341   C     0.97597   0.24636   0.50013   0.00000  Uiso   1.00
C342   C     0.81742   0.12783   0.55822   0.00000  Uiso   1.00
C343   C     0.78250   0.10396   0.52665   0.00000  Uiso   1.00
C344   C     0.70520   0.37277   0.41926   0.00000  Uiso   1.00
C345   C     0.68260   0.12782   0.44174   0.00000  Uiso   1.00
C346   C     0.79485   0.37279   0.58072   0.00000  Uiso   1.00
C347   C     0.72990   0.39626   0.46113   0.00000  Uiso   1.00
C348   C     0.71750   0.10396   0.47334   0.00000  Uiso   1.00
C349   C     0.77010   0.39627   0.53887   0.00000  Uiso   1.00
C350   C     0.78323   0.05343   0.52552   0.00000  Uiso   1.00
C351   C     0.73105   0.44678   0.46037   0.00000  Uiso   1.00
C352   C     0.71677   0.05343   0.47446   0.00000  Uiso   1.00
Cl353  Cl    0.61227   0.34428   0.46686   0.00000  Uiso   1.00
Cl354  Cl    0.87815   0.15895   0.45281   0.00000  Uiso   1.00
Cl355  Cl    0.88777   0.34417   0.53340   0.00000  Uiso   1.00
Cl356  Cl    0.62178   0.15884   0.54694   0.00000  Uiso   1.00
Cu357  Cu    0.75000   0.29821   0.50000   0.00000  Uiso   1.00
Cu358  Cu    0.75000   0.20178   0.50000   0.00000  Uiso   1.00
H359   H     0.52638   0.31739   0.46969   0.00000  Uiso   1.00
H360   H     0.68879   0.33917   0.42386   0.00000  Uiso   1.00
H361   H     0.68707   0.16279   0.42657   0.00000  Uiso   1.00
H362   H     0.81115   0.33914   0.57613   0.00000  Uiso   1.00
H363   H     0.96775   0.17633   0.46819   0.00000  Uiso   1.00
H364   H     0.97364   0.31731   0.53040   0.00000  Uiso   1.00
H365   H     0.53220   0.17625   0.53153   0.00000  Uiso   1.00
H366   H     0.80993   0.03461   0.54518   0.00000  Uiso   1.00
H367   H     0.71647   0.46556   0.42860   0.00000  Uiso   1.00
H368   H     0.69007   0.03460   0.45480   0.00000  Uiso   1.00
H369   H     0.78352   0.46558   0.57138   0.00000  Uiso   1.00
H370   H     0.81292   0.16277   0.57346   0.00000  Uiso   1.00
N371   N     0.75000   0.12934   0.50000   0.00000  Uiso   1.00
N372   N     0.75000   0.37065   0.50000   0.00000  Uiso   1.00
O373   O     0.68573   0.29071   0.50000   0.00000  Uiso   1.00
O374   O     0.70206   0.39142   0.37858   0.00000  Uiso   1.00
O375   O     0.64765   0.10779   0.43125   0.00000  Uiso   1.00
O376   O     0.79819   0.39154   0.62134   0.00000  Uiso   1.00
O377   O     0.81427   0.20928   0.50000   0.00000  Uiso   1.00
O378   O     0.81427   0.29071   0.50000   0.00000  Uiso   1.00
O379   O     0.68573   0.20928   0.50000   0.00000  Uiso   1.00
O380   O     0.75000   0.29071   0.42946   0.00000  Uiso   1.00
O381   O     0.75000   0.20929   0.57054   0.00000  Uiso   1.00
O382   O     0.75000   0.29071   0.57054   0.00000  Uiso   1.00
O383   O     0.75000   0.20929   0.42946   0.00000  Uiso   1.00
O384   O     0.85240   0.10785   0.56861   0.00000  Uiso   1.00
C385   C     0.16493   0.74996   0.50078   0.00000  Uiso   1.00
C386   C     0.26894   0.94679   0.53962   0.00000  Uiso   1.00
C387   C     0.24986   0.75000   0.40693   0.00000  Uiso   1.00
C388   C     0.25014   0.75000   0.59307   0.00000  Uiso   1.00
C389   C     0.25000   0.52721   0.49999   0.00000  Uiso   1.00
C390   C     0.25000   0.97302   0.49999   0.00000  Uiso   1.00
C391   C     0.24995   0.75001   0.35520   0.00000  Uiso   1.00
C392   C     0.25005   0.75001   0.64480   0.00000  Uiso   1.00
C393   C     0.04533   0.78695   0.48362   0.00000  Uiso   1.00
C394   C     0.45135   0.70733   0.48226   0.00000  Uiso   1.00
C395   C     0.45468   0.78691   0.51639   0.00000  Uiso   1.00
C396   C     0.33506   0.74996   0.49922   0.00000  Uiso   1.00
C397   C     0.04862   0.70728   0.51755   0.00000  Uiso   1.00
C398   C     0.09080   0.78933   0.48536   0.00000  Uiso   1.00
C399   C     0.40558   0.70855   0.48064   0.00000  Uiso   1.00
C400   C     0.40922   0.78929   0.51469   0.00000  Uiso   1.00
C401   C     0.09439   0.70850   0.51921   0.00000  Uiso   1.00
C402   C     0.11643   0.74944   0.50197   0.00000  Uiso   1.00
C403   C     0.38357   0.74945   0.49800   0.00000  Uiso   1.00
C404   C     0.02402   0.74636   0.49976   0.00000  Uiso   1.00
C405   C     0.47597   0.74636   0.50013   0.00000  Uiso   1.00
C406   C     0.31742   0.62783   0.55822   0.00000  Uiso   1.00
C407   C     0.28250   0.60396   0.52665   0.00000  Uiso   1.00
C408   C     0.20520   0.87277   0.41926   0.00000  Uiso   1.00
C409   C     0.18260   0.62782   0.44174   0.00000  Uiso   1.00
C410   C     0.29485   0.87279   0.58072   0.00000  Uiso   1.00
C411   C     0.22990   0.89626   0.46113   0.00000  Uiso   1.00
C412   C     0.21750   0.60396   0.47334   0.00000  Uiso   1.00
C413   C     0.27010   0.89627   0.53887   0.00000  Uiso   1.00
C414   C     0.28323   0.55343   0.52552   0.00000  Uiso   1.00
C415   C     0.23105   0.94678   0.46037   0.00000  Uiso   1.00
C416   C     0.21677   0.55343   0.47446   0.00000  Uiso   1.00
Cl417  Cl    0.11227   0.84428   0.46686   0.00000  Uiso   1.00
Cl418  Cl    0.37815   0.65895   0.45281   0.00000  Uiso   1.00
Cl419  Cl    0.38777   0.84417   0.53340   0.00000  Uiso   1.00
Cl420  Cl    0.12178   0.65884   0.54694   0.00000  Uiso   1.00
Cu421  Cu    0.25000   0.79821   0.50000   0.00000  Uiso   1.00
Cu422  Cu    0.25000   0.70178   0.50000   0.00000  Uiso   1.00
H423   H     0.02638   0.81739   0.46969   0.00000  Uiso   1.00
H424   H     0.18879   0.83917   0.42386   0.00000  Uiso   1.00
H425   H     0.18707   0.66279   0.42657   0.00000  Uiso   1.00
H426   H     0.31115   0.83914   0.57613   0.00000  Uiso   1.00
H427   H     0.46775   0.67633   0.46819   0.00000  Uiso   1.00
H428   H     0.47364   0.81731   0.53040   0.00000  Uiso   1.00
H429   H     0.03220   0.67625   0.53153   0.00000  Uiso   1.00
H430   H     0.30993   0.53461   0.54518   0.00000  Uiso   1.00
H431   H     0.21647   0.96556   0.42860   0.00000  Uiso   1.00
H432   H     0.19007   0.53460   0.45480   0.00000  Uiso   1.00
H433   H     0.28352   0.96558   0.57138   0.00000  Uiso   1.00
H434   H     0.31292   0.66277   0.57346   0.00000  Uiso   1.00
N435   N     0.25000   0.62934   0.50000   0.00000  Uiso   1.00
N436   N     0.25000   0.87065   0.50000   0.00000  Uiso   1.00
O437   O     0.18573   0.79071   0.50000   0.00000  Uiso   1.00
O438   O     0.20206   0.89142   0.37858   0.00000  Uiso   1.00
O439   O     0.14765   0.60779   0.43125   0.00000  Uiso   1.00
O440   O     0.29819   0.89154   0.62134   0.00000  Uiso   1.00
O441   O     0.31427   0.70928   0.50000   0.00000  Uiso   1.00
O442   O     0.31427   0.79071   0.50000   0.00000  Uiso   1.00
O443   O     0.18573   0.70928   0.50000   0.00000  Uiso   1.00
O444   O     0.25000   0.79071   0.42946   0.00000  Uiso   1.00
O445   O     0.25000   0.70929   0.57054   0.00000  Uiso   1.00
O446   O     0.25000   0.79071   0.57054   0.00000  Uiso   1.00
O447   O     0.25000   0.70929   0.42946   0.00000  Uiso   1.00
O448   O     0.35240   0.60785   0.56861   0.00000  Uiso   1.00
C449   C     0.66493   0.74996   0.50078   0.00000  Uiso   1.00
C450   C     0.76894   0.94679   0.53962   0.00000  Uiso   1.00
C451   C     0.74986   0.75000   0.40693   0.00000  Uiso   1.00
C452   C     0.75014   0.75000   0.59307   0.00000  Uiso   1.00
C453   C     0.75000   0.52721   0.49999   0.00000  Uiso   1.00
C454   C     0.75000   0.97302   0.49999   0.00000  Uiso   1.00
C455   C     0.74995   0.75001   0.35520   0.00000  Uiso   1.00
C456   C     0.75005   0.75001   0.64480   0.00000  Uiso   1.00
C457   C     0.54533   0.78695   0.48362   0.00000  Uiso   1.00
C458   C     0.95135   0.70733   0.48226   0.00000  Uiso   1.00
C459   C     0.95468   0.78691   0.51639   0.00000  Uiso   1.00
C460   C     0.83506   0.74996   0.49922   0.00000  Uiso   1.00
C461   C     0.54862   0.70728   0.51755   0.00000  Uiso   1.00
C462   C     0.59080   0.78933   0.48536   0.00000  Uiso   1.00
C463   C     0.90558   0.70855   0.48064   0.00000  Uiso   1.00
C464   C     0.90922   0.78929   0.51469   0.00000  Uiso   1.00
C465   C     0.59439   0.70850   0.51921   0.00000  Uiso   1.00
C466   C     0.61643   0.74944   0.50197   0.00000  Uiso   1.00
C467   C     0.88357   0.74945   0.49800   0.00000  Uiso   1.00
C468   C     0.52402   0.74636   0.49976   0.00000  Uiso   1.00
C469   C     0.97597   0.74636   0.50013   0.00000  Uiso   1.00
C470   C     0.81742   0.62783   0.55822   0.00000  Uiso   1.00
C471   C     0.78250   0.60396   0.52665   0.00000  Uiso   1.00
C472   C     0.70520   0.87277   0.41926   0.00000  Uiso   1.00
C473   C     0.68260   0.62782   0.44174   0.00000  Uiso   1.00
C474   C     0.79485   0.87279   0.58072   0.00000  Uiso   1.00
C475   C     0.72990   0.89626   0.46113   0.00000  Uiso   1.00
C476   C     0.71750   0.60396   0.47334   0.00000  Uiso   1.00
C477   C     0.77010   0.89627   0.53887   0.00000  Uiso   1.00
C478   C     0.78323   0.55343   0.52552   0.00000  Uiso   1.00
C479   C     0.73105   0.94678   0.46037   0.00000  Uiso   1.00
C480   C     0.71677   0.55343   0.47446   0.00000  Uiso   1.00
Cl481  Cl    0.61227   0.84428   0.46686   0.00000  Uiso   1.00
Cl482  Cl    0.87815   0.65895   0.45281   0.00000  Uiso   1.00
Cl483  Cl    0.88777   0.84417   0.53340   0.00000  Uiso   1.00
Cl484  Cl    0.62178   0.65884   0.54694   0.00000  Uiso   1.00
Cu485  Cu    0.75000   0.79821   0.50000   0.00000  Uiso   1.00
Cu486  Cu    0.75000   0.70178   0.50000   0.00000  Uiso   1.00
H487   H     0.52638   0.81739   0.46969   0.00000  Uiso   1.00
H488   H     0.68879   0.83917   0.42386   0.00000  Uiso   1.00
H489   H     0.68707   0.66279   0.42657   0.00000  Uiso   1.00
H490   H     0.81115   0.83914   0.57613   0.00000  Uiso   1.00
H491   H     0.96775   0.67633   0.46819   0.00000  Uiso   1.00
H492   H     0.97364   0.81731   0.53040   0.00000  Uiso   1.00
H493   H     0.53220   0.67625   0.53153   0.00000  Uiso   1.00
H494   H     0.80993   0.53461   0.54518   0.00000  Uiso   1.00
H495   H     0.71647   0.96556   0.42860   0.00000  Uiso   1.00
H496   H     0.69007   0.53460   0.45480   0.00000  Uiso   1.00
H497   H     0.78352   0.96558   0.57138   0.00000  Uiso   1.00
H498   H     0.81292   0.66277   0.57346   0.00000  Uiso   1.00
N499   N     0.75000   0.62934   0.50000   0.00000  Uiso   1.00
N500   N     0.75000   0.87065   0.50000   0.00000  Uiso   1.00
O501   O     0.68573   0.79071   0.50000   0.00000  Uiso   1.00
O502   O     0.70206   0.89142   0.37858   0.00000  Uiso   1.00
O503   O     0.64765   0.60779   0.43125   0.00000  Uiso   1.00
O504   O     0.79819   0.89154   0.62134   0.00000  Uiso   1.00
O505   O     0.81427   0.70928   0.50000   0.00000  Uiso   1.00
O506   O     0.81427   0.79071   0.50000   0.00000  Uiso   1.00
O507   O     0.68573   0.70928   0.50000   0.00000  Uiso   1.00
O508   O     0.75000   0.79071   0.42946   0.00000  Uiso   1.00
O509   O     0.75000   0.70929   0.57054   0.00000  Uiso   1.00
O510   O     0.75000   0.79071   0.57054   0.00000  Uiso   1.00
O511   O     0.75000   0.70929   0.42946   0.00000  Uiso   1.00
O512   O     0.85240   0.60785   0.56861   0.00000  Uiso   1.00
C513   C     0.16493   0.24996   0.83411   0.00000  Uiso   1.00
C514   C     0.26894   0.44679   0.87295   0.00000  Uiso   1.00
C515   C     0.24986   0.25000   0.74027   0.00000  Uiso   1.00
C516   C     0.25014   0.25000   0.92640   0.00000  Uiso   1.00
C517   C     0.25000   0.02721   0.83333   0.00000  Uiso   1.00
C518   C     0.25000   0.47302   0.83333   0.00000  Uiso   1.00
C519   C     0.24995   0.25001   0.68853   0.00000  Uiso   1.00
C520   C     0.25005   0.25001   0.97814   0.00000  Uiso   1.00
C521   C     0.04533   0.28695   0.81696   0.00000  Uiso   1.00
C522   C     0.45135   0.20733   0.81559   0.00000  Uiso   1.00
C523   C     0.45468   0.28691   0.84972   0.00000  Uiso   1.00
C524   C     0.33506   0.24996   0.83255   0.00000  Uiso   1.00
C525   C     0.04862   0.20728   0.85088   0.00000  Uiso   1.00
C526   C     0.09080   0.28933   0.81870   0.00000  Uiso   1.00
C527   C     0.40558   0.20855   0.81397   0.00000  Uiso   1.00
C528   C     0.40922   0.28929   0.84803   0.00000  Uiso   1.00
C529   C     0.09439   0.20850   0.85254   0.00000  Uiso   1.00
C530   C     0.11643   0.24944   0.83530   0.00000  Uiso   1.00
C531   C     0.38357   0.24945   0.83133   0.00000  Uiso   1.00
C532   C     0.02402   0.24636   0.83310   0.00000  Uiso   1.00
C533   C     0.47597   0.24636   0.83346   0.00000  Uiso   1.00
C534   C     0.31742   0.12783   0.89156   0.00000  Uiso   1.00
C535   C     0.28250   0.10396   0.85998   0.00000  Uiso   1.00
C536   C     0.20520   0.37277   0.75259   0.00000  Uiso   1.00
C537   C     0.18260   0.12782   0.77508   0.00000  Uiso   1.00
C538   C     0.29485   0.37279   0.91405   0.00000  Uiso   1.00
C539   C     0.22990   0.39626   0.79446   0.00000  Uiso   1.00
C540   C     0.21750   0.10396   0.80667   0.00000  Uiso   1.00
C541   C     0.27010   0.39627   0.87220   0.00000  Uiso   1.00
C542   C     0.28323   0.05343   0.85886   0.00000  Uiso   1.00
C543   C     0.23105   0.44678   0.79370   0.00000  Uiso   1.00
C544   C     0.21677   0.05343   0.80779   0.00000  Uiso   1.00
Cl545  Cl    0.11227   0.34428   0.80019   0.00000  Uiso   1.00
Cl546  Cl    0.37815   0.15895   0.78614   0.00000  Uiso   1.00
Cl547  Cl    0.38777   0.34417   0.86673   0.00000  Uiso   1.00
Cl548  Cl    0.12178   0.15884   0.88027   0.00000  Uiso   1.00
Cu549  Cu    0.25000   0.29821   0.83333   0.00000  Uiso   1.00
Cu550  Cu    0.25000   0.20178   0.83333   0.00000  Uiso   1.00
H551   H     0.02638   0.31739   0.80303   0.00000  Uiso   1.00
H552   H     0.18879   0.33917   0.75720   0.00000  Uiso   1.00
H553   H     0.18707   0.16279   0.75991   0.00000  Uiso   1.00
H554   H     0.31115   0.33914   0.90946   0.00000  Uiso   1.00
H555   H     0.46775   0.17633   0.80152   0.00000  Uiso   1.00
H556   H     0.47364   0.31731   0.86373   0.00000  Uiso   1.00
H557   H     0.03220   0.17625   0.86487   0.00000  Uiso   1.00
H558   H     0.30993   0.03461   0.87851   0.00000  Uiso   1.00
H559   H     0.21647   0.46556   0.76194   0.00000  Uiso   1.00
H560   H     0.19007   0.03460   0.78814   0.00000  Uiso   1.00
H561   H     0.28352   0.46558   0.90471   0.00000  Uiso   1.00
H562   H     0.31292   0.16277   0.90679   0.00000  Uiso   1.00
N563   N     0.25000   0.12934   0.83333   0.00000  Uiso   1.00
N564   N     0.25000   0.37065   0.83333   0.00000  Uiso   1.00
O565   O     0.18573   0.29071   0.83334   0.00000  Uiso   1.00
O566   O     0.20206   0.39142   0.71192   0.00000  Uiso   1.00
O567   O     0.14765   0.10779   0.76459   0.00000  Uiso   1.00
O568   O     0.29819   0.39154   0.95468   0.00000  Uiso   1.00
O569   O     0.31427   0.20928   0.83333   0.00000  Uiso   1.00
O570   O     0.31427   0.29071   0.83333   0.00000  Uiso   1.00
O571   O     0.18573   0.20928   0.83334   0.00000  Uiso   1.00
O572   O     0.25000   0.29071   0.76280   0.00000  Uiso   1.00
O573   O     0.25000   0.20929   0.90387   0.00000  Uiso   1.00
O574   O     0.25000   0.29071   0.90387   0.00000  Uiso   1.00
O575   O     0.25000   0.20929   0.76280   0.00000  Uiso   1.00
O576   O     0.35240   0.10785   0.90194   0.00000  Uiso   1.00
C577   C     0.66493   0.24996   0.83411   0.00000  Uiso   1.00
C578   C     0.76894   0.44679   0.87295   0.00000  Uiso   1.00
C579   C     0.74986   0.25000   0.74027   0.00000  Uiso   1.00
C580   C     0.75014   0.25000   0.92640   0.00000  Uiso   1.00
C581   C     0.75000   0.02721   0.83333   0.00000  Uiso   1.00
C582   C     0.75000   0.47302   0.83333   0.00000  Uiso   1.00
C583   C     0.74995   0.25001   0.68853   0.00000  Uiso   1.00
C584   C     0.75005   0.25001   0.97814   0.00000  Uiso   1.00
C585   C     0.54533   0.28695   0.81696   0.00000  Uiso   1.00
C586   C     0.95135   0.20733   0.81559   0.00000  Uiso   1.00
C587   C     0.95468   0.28691   0.84972   0.00000  Uiso   1.00
C588   C     0.83506   0.24996   0.83255   0.00000  Uiso   1.00
C589   C     0.54862   0.20728   0.85088   0.00000  Uiso   1.00
C590   C     0.59080   0.28933   0.81870   0.00000  Uiso   1.00
C591   C     0.90558   0.20855   0.81397   0.00000  Uiso   1.00
C592   C     0.90922   0.28929   0.84803   0.00000  Uiso   1.00
C593   C     0.59439   0.20850   0.85254   0.00000  Uiso   1.00
C594   C     0.61643   0.24944   0.83530   0.00000  Uiso   1.00
C595   C     0.88357   0.24945   0.83133   0.00000  Uiso   1.00
C596   C     0.52402   0.24636   0.83310   0.00000  Uiso   1.00
C597   C     0.97597   0.24636   0.83346   0.00000  Uiso   1.00
C598   C     0.81742   0.12783   0.89156   0.00000  Uiso   1.00
C599   C     0.78250   0.10396   0.85998   0.00000  Uiso   1.00
C600   C     0.70520   0.37277   0.75259   0.00000  Uiso   1.00
C601   C     0.68260   0.12782   0.77508   0.00000  Uiso   1.00
C602   C     0.79485   0.37279   0.91405   0.00000  Uiso   1.00
C603   C     0.72990   0.39626   0.79446   0.00000  Uiso   1.00
C604   C     0.71750   0.10396   0.80667   0.00000  Uiso   1.00
C605   C     0.77010   0.39627   0.87220   0.00000  Uiso   1.00
C606   C     0.78323   0.05343   0.85886   0.00000  Uiso   1.00
C607   C     0.73105   0.44678   0.79370   0.00000  Uiso   1.00
C608   C     0.71677   0.05343   0.80779   0.00000  Uiso   1.00
Cl609  Cl    0.61227   0.34428   0.80019   0.00000  Uiso   1.00
Cl610  Cl    0.87815   0.15895   0.78614   0.00000  Uiso   1.00
Cl611  Cl    0.88777   0.34417   0.86673   0.00000  Uiso   1.00
Cl612  Cl    0.62178   0.15884   0.88027   0.00000  Uiso   1.00
Cu613  Cu    0.75000   0.29821   0.83333   0.00000  Uiso   1.00
Cu614  Cu    0.75000   0.20178   0.83333   0.00000  Uiso   1.00
H615   H     0.52638   0.31739   0.80303   0.00000  Uiso   1.00
H616   H     0.68879   0.33917   0.75720   0.00000  Uiso   1.00
H617   H     0.68707   0.16279   0.75991   0.00000  Uiso   1.00
H618   H     0.81115   0.33914   0.90946   0.00000  Uiso   1.00
H619   H     0.96775   0.17633   0.80152   0.00000  Uiso   1.00
H620   H     0.97364   0.31731   0.86373   0.00000  Uiso   1.00
H621   H     0.53220   0.17625   0.86487   0.00000  Uiso   1.00
H622   H     0.80993   0.03461   0.87851   0.00000  Uiso   1.00
H623   H     0.71647   0.46556   0.76194   0.00000  Uiso   1.00
H624   H     0.69007   0.03460   0.78814   0.00000  Uiso   1.00
H625   H     0.78352   0.46558   0.90471   0.00000  Uiso   1.00
H626   H     0.81292   0.16277   0.90679   0.00000  Uiso   1.00
N627   N     0.75000   0.12934   0.83333   0.00000  Uiso   1.00
N628   N     0.75000   0.37065   0.83333   0.00000  Uiso   1.00
O629   O     0.68573   0.29071   0.83334   0.00000  Uiso   1.00
O630   O     0.70206   0.39142   0.71192   0.00000  Uiso   1.00
O631   O     0.64765   0.10779   0.76459   0.00000  Uiso   1.00
O632   O     0.79819   0.39154   0.95468   0.00000  Uiso   1.00
O633   O     0.81427   0.20928   0.83333   0.00000  Uiso   1.00
O634   O     0.81427   0.29071   0.83333   0.00000  Uiso   1.00
O635   O     0.68573   0.20928   0.83334   0.00000  Uiso   1.00
O636   O     0.75000   0.29071   0.76280   0.00000  Uiso   1.00
O637   O     0.75000   0.20929   0.90387   0.00000  Uiso   1.00
O638   O     0.75000   0.29071   0.90387   0.00000  Uiso   1.00
O639   O     0.75000   0.20929   0.76280   0.00000  Uiso   1.00
O640   O     0.85240   0.10785   0.90194   0.00000  Uiso   1.00
C641   C     0.16493   0.74996   0.83411   0.00000  Uiso   1.00
C642   C     0.26894   0.94679   0.87295   0.00000  Uiso   1.00
C643   C     0.24986   0.75000   0.74027   0.00000  Uiso   1.00
C644   C     0.25014   0.75000   0.92640   0.00000  Uiso   1.00
C645   C     0.25000   0.52721   0.83333   0.00000  Uiso   1.00
C646   C     0.25000   0.97302   0.83333   0.00000  Uiso   1.00
C647   C     0.24995   0.75001   0.68853   0.00000  Uiso   1.00
C648   C     0.25005   0.75001   0.97814   0.00000  Uiso   1.00
C649   C     0.04533   0.78695   0.81696   0.00000  Uiso   1.00
C650   C     0.45135   0.70733   0.81559   0.00000  Uiso   1.00
C651   C     0.45468   0.78691   0.84972   0.00000  Uiso   1.00
C652   C     0.33506   0.74996   0.83255   0.00000  Uiso   1.00
C653   C     0.04862   0.70728   0.85088   0.00000  Uiso   1.00
C654   C     0.09080   0.78933   0.81870   0.00000  Uiso   1.00
C655   C     0.40558   0.70855   0.81397   0.00000  Uiso   1.00
C656   C     0.40922   0.78929   0.84803   0.00000  Uiso   1.00
C657   C     0.09439   0.70850   0.85254   0.00000  Uiso   1.00
C658   C     0.11643   0.74944   0.83530   0.00000  Uiso   1.00
C659   C     0.38357   0.74945   0.83133   0.00000  Uiso   1.00
C660   C     0.02402   0.74636   0.83310   0.00000  Uiso   1.00
C661   C     0.47597   0.74636   0.83346   0.00000  Uiso   1.00
C662   C     0.31742   0.62783   0.89156   0.00000  Uiso   1.00
C663   C     0.28250   0.60396   0.85998   0.00000  Uiso   1.00
C664   C     0.20520   0.87277   0.75259   0.00000  Uiso   1.00
C665   C     0.18260   0.62782   0.77508   0.00000  Uiso   1.00
C666   C     0.29485   0.87279   0.91405   0.00000  Uiso   1.00
C667   C     0.22990   0.89626   0.79446   0.00000  Uiso   1.00
C668   C     0.21750   0.60396   0.80667   0.00000  Uiso   1.00
C669   C     0.27010   0.89627   0.87220   0.00000  Uiso   1.00
C670   C     0.28323   0.55343   0.85886   0.00000  Uiso   1.00
C671   C     0.23105   0.94678   0.79370   0.00000  Uiso   1.00
C672   C     0.21677   0.55343   0.80779   0.00000  Uiso   1.00
Cl673  Cl    0.11227   0.84428   0.80019   0.00000  Uiso   1.00
Cl674  Cl    0.37815   0.65895   0.78614   0.00000  Uiso   1.00
Cl675  Cl    0.38777   0.84417   0.86673   0.00000  Uiso   1.00
Cl676  Cl    0.12178   0.65884   0.88027   0.00000  Uiso   1.00
Cu677  Cu    0.25000   0.79821   0.83333   0.00000  Uiso   1.00
Cu678  Cu    0.25000   0.70178   0.83333   0.00000  Uiso   1.00
H679   H     0.02638   0.81739   0.80303   0.00000  Uiso   1.00
H680   H     0.18879   0.83917   0.75720   0.00000  Uiso   1.00
H681   H     0.18707   0.66279   0.75991   0.00000  Uiso   1.00
H682   H     0.31115   0.83914   0.90946   0.00000  Uiso   1.00
H683   H     0.46775   0.67633   0.80152   0.00000  Uiso   1.00
H684   H     0.47364   0.81731   0.86373   0.00000  Uiso   1.00
H685   H     0.03220   0.67625   0.86487   0.00000  Uiso   1.00
H686   H     0.30993   0.53461   0.87851   0.00000  Uiso   1.00
H687   H     0.21647   0.96556   0.76194   0.00000  Uiso   1.00
H688   H     0.19007   0.53460   0.78814   0.00000  Uiso   1.00
H689   H     0.28352   0.96558   0.90471   0.00000  Uiso   1.00
H690   H     0.31292   0.66277   0.90679   0.00000  Uiso   1.00
N691   N     0.25000   0.62934   0.83333   0.00000  Uiso   1.00
N692   N     0.25000   0.87065   0.83333   0.00000  Uiso   1.00
O693   O     0.18573   0.79071   0.83334   0.00000  Uiso   1.00
O694   O     0.20206   0.89142   0.71192   0.00000  Uiso   1.00
O695   O     0.14765   0.60779   0.76459   0.00000  Uiso   1.00
O696   O     0.29819   0.89154   0.95468   0.00000  Uiso   1.00
O697   O     0.31427   0.70928   0.83333   0.00000  Uiso   1.00
O698   O     0.31427   0.79071   0.83333   0.00000  Uiso   1.00
O699   O     0.18573   0.70928   0.83334   0.00000  Uiso   1.00
O700   O     0.25000   0.79071   0.76280   0.00000  Uiso   1.00
O701   O     0.25000   0.70929   0.90387   0.00000  Uiso   1.00
O702   O     0.25000   0.79071   0.90387   0.00000  Uiso   1.00
O703   O     0.25000   0.70929   0.76280   0.00000  Uiso   1.00
O704   O     0.35240   0.60785   0.90194   0.00000  Uiso   1.00
C705   C     0.66493   0.74996   0.83411   0.00000  Uiso   1.00
C706   C     0.76894   0.94679   0.87295   0.00000  Uiso   1.00
C707   C     0.74986   0.75000   0.74027   0.00000  Uiso   1.00
C708   C     0.75014   0.75000   0.92640   0.00000  Uiso   1.00
C709   C     0.75000   0.52721   0.83333   0.00000  Uiso   1.00
C710   C     0.75000   0.97302   0.83333   0.00000  Uiso   1.00
C711   C     0.74995   0.75001   0.68853   0.00000  Uiso   1.00
C712   C     0.75005   0.75001   0.97814   0.00000  Uiso   1.00
C713   C     0.54533   0.78695   0.81696   0.00000  Uiso   1.00
C714   C     0.95135   0.70733   0.81559   0.00000  Uiso   1.00
C715   C     0.95468   0.78691   0.84972   0.00000  Uiso   1.00
C716   C     0.83506   0.74996   0.83255   0.00000  Uiso   1.00
C717   C     0.54862   0.70728   0.85088   0.00000  Uiso   1.00
C718   C     0.59080   0.78933   0.81870   0.00000  Uiso   1.00
C719   C     0.90558   0.70855   0.81397   0.00000  Uiso   1.00
C720   C     0.90922   0.78929   0.84803   0.00000  Uiso   1.00
C721   C     0.59439   0.70850   0.85254   0.00000  Uiso   1.00
C722   C     0.61643   0.74944   0.83530   0.00000  Uiso   1.00
C723   C     0.88357   0.74945   0.83133   0.00000  Uiso   1.00
C724   C     0.52402   0.74636   0.83310   0.00000  Uiso   1.00
C725   C     0.97597   0.74636   0.83346   0.00000  Uiso   1.00
C726   C     0.81742   0.62783   0.89156   0.00000  Uiso   1.00
C727   C     0.78250   0.60396   0.85998   0.00000  Uiso   1.00
C728   C     0.70520   0.87277   0.75259   0.00000  Uiso   1.00
C729   C     0.68260   0.62782   0.77508   0.00000  Uiso   1.00
C730   C     0.79485   0.87279   0.91405   0.00000  Uiso   1.00
C731   C     0.72990   0.89626   0.79446   0.00000  Uiso   1.00
C732   C     0.71750   0.60396   0.80667   0.00000  Uiso   1.00
C733   C     0.77010   0.89627   0.87220   0.00000  Uiso   1.00
C734   C     0.78323   0.55343   0.85886   0.00000  Uiso   1.00
C735   C     0.73105   0.94678   0.79370   0.00000  Uiso   1.00
C736   C     0.71677   0.55343   0.80779   0.00000  Uiso   1.00
Cl737  Cl    0.61227   0.84428   0.80019   0.00000  Uiso   1.00
Cl738  Cl    0.87815   0.65895   0.78614   0.00000  Uiso   1.00
Cl739  Cl    0.88777   0.84417   0.86673   0.00000  Uiso   1.00
Cl740  Cl    0.62178   0.65884   0.88027   0.00000  Uiso   1.00
Cu741  Cu    0.75000   0.79821   0.83333   0.00000  Uiso   1.00
Cu742  Cu    0.75000   0.70178   0.83333   0.00000  Uiso   1.00
H743   H     0.52638   0.81739   0.80303   0.00000  Uiso   1.00
H744   H     0.68879   0.83917   0.75720   0.00000  Uiso   1.00
H745   H     0.68707   0.66279   0.75991   0.00000  Uiso   1.00
H746   H     0.81115   0.83914   0.90946   0.00000  Uiso   1.00
H747   H     0.96775   0.67633   0.80152   0.00000  Uiso   1.00
H748   H     0.97364   0.81731   0.86373   0.00000  Uiso   1.00
H749   H     0.53220   0.67625   0.86487   0.00000  Uiso   1.00
H750   H     0.80993   0.53461   0.87851   0.00000  Uiso   1.00
H751   H     0.71647   0.96556   0.76194   0.00000  Uiso   1.00
H752   H     0.69007   0.53460   0.78814   0.00000  Uiso   1.00
H753   H     0.78352   0.96558   0.90471   0.00000  Uiso   1.00
H754   H     0.81292   0.66277   0.90679   0.00000  Uiso   1.00
N755   N     0.75000   0.62934   0.83333   0.00000  Uiso   1.00
N756   N     0.75000   0.87065   0.83333   0.00000  Uiso   1.00
O757   O     0.68573   0.79071   0.83334   0.00000  Uiso   1.00
O758   O     0.70206   0.89142   0.71192   0.00000  Uiso   1.00
O759   O     0.64765   0.60779   0.76459   0.00000  Uiso   1.00
O760   O     0.79819   0.89154   0.95468   0.00000  Uiso   1.00
O761   O     0.81427   0.70928   0.83333   0.00000  Uiso   1.00
O762   O     0.81427   0.79071   0.83333   0.00000  Uiso   1.00
O763   O     0.68573   0.70928   0.83334   0.00000  Uiso   1.00
O764   O     0.75000   0.79071   0.76280   0.00000  Uiso   1.00
O765   O     0.75000   0.70929   0.90387   0.00000  Uiso   1.00
O766   O     0.75000   0.79071   0.90387   0.00000  Uiso   1.00
O767   O     0.75000   0.70929   0.76280   0.00000  Uiso   1.00
O768   O     0.85240   0.60785   0.90194   0.00000  Uiso   1.00
loop_
_geom_bond_atom_site_label_1
_geom_bond_atom_site_label_2
_geom_bond_distance
_geom_bond_site_symmetry_2
_ccdc_geom_bond_type
C1     C18     1.482   .     S
C1     O59     1.304   .     A
C1     O53     1.306   .     A
C2     C6      1.398   .     A
C2     H49     1.082   .     S
C2     C29     1.415   .     A
C3     O63     1.294   .     A
C3     O60     1.294   .     A
C3     C7      1.408   .     S
C4     C8      1.408   .     S
C4     O62     1.294   .     A
C4     O61     1.294   .     A
C5     C32     1.399   .     A
C5     C30     1.399   .     A
C5     C134    1.517   1_545 S
C6     C31     1.398   .     A
C6     C133    1.517   .     S
C7     C520    1.190   1_554 S
C8     C263    1.190   .     S
C9     C14     1.386   .     A
C9     C20     1.394   .     A
C9     H39     1.084   .     S
C10    C15     1.395   .     A
C10    C21     1.395   .     A
C10    H43     1.084   .     S
C11    C16     1.386   .     A
C11    C21     1.394   .     A
C11    H44     1.084   .     S
C12    O58     1.306   .     A
C12    O57     1.304   .     A
C12    C19     1.482   .     S
C13    H45     1.084   .     S
C13    C17     1.395   .     A
C13    C20     1.395   .     A
C14    C18     1.420   .     A
C14    Cl33    1.758   .     S
C15    Cl34    1.765   .     S
C15    C19     1.423   .     A
C16    Cl35    1.758   .     S
C16    C19     1.420   .     A
C17    Cl36    1.765   .     S
C17    C18     1.423   .     A
C20    C85     1.466   1_455 S
C21    C84     1.466   .     S
C22    H50     1.074   .     S
C22    O64     1.222   .     D
C22    C23     1.483   .     S
C23    N51     1.386   .     A
C23    C30     1.415   .     A
C24    O54     1.222   .     D
C24    C27     1.478   .     S
C24    H40     1.076   .     S
C25    C28     1.483   .     S
C25    H41     1.074   .     S
C25    O55     1.222   .     D
C26    H42     1.076   .     S
C26    C29     1.479   .     S
C26    O56     1.222   .     D
C27    N52     1.387   .     A
C27    C31     1.414   .     A
C28    C32     1.415   .     A
C28    N51     1.386   .     A
C29    N52     1.387   .     A
C30    H46     1.082   .     S
C31    H47     1.082   .     S
C32    H48     1.082   .     S
Cu37   Cu38    2.699   .     S
Cu37   O58     1.972   .     S
Cu37   O62     1.931   .     S
Cu37   O53     1.972   .     S
Cu37   O60     1.931   .     S
Cu37   N52     2.027   .     S
Cu38   O57     1.972   .     S
Cu38   O61     1.931   .     S
Cu38   O63     1.931   .     S
Cu38   N51     2.027   .     S
Cu38   O59     1.972   .     S
C65    C82     1.482   .     S
C65    O123    1.304   .     A
C65    O117    1.306   .     A
C66    C70     1.398   .     A
C66    H113    1.082   .     S
C66    C93     1.415   .     A
C67    O127    1.294   .     A
C67    O124    1.294   .     A
C67    C71     1.408   .     S
C68    C72     1.408   .     S
C68    O126    1.294   .     A
C68    O125    1.294   .     A
C69    C96     1.399   .     A
C69    C94     1.399   .     A
C69    C198    1.517   1_545 S
C70    C95     1.398   .     A
C70    C197    1.517   .     S
C71    C584    1.190   1_554 S
C72    C327    1.190   .     S
C73    C78     1.386   .     A
C73    C84     1.394   .     A
C73    H103    1.084   .     S
C74    C79     1.395   .     A
C74    C85     1.395   .     A
C74    H107    1.084   .     S
C75    C80     1.386   .     A
C75    C85     1.394   .     A
C75    H108    1.084   .     S
C76    O122    1.306   .     A
C76    O121    1.304   .     A
C76    C83     1.482   .     S
C77    H109    1.084   .     S
C77    C81     1.395   .     A
C77    C84     1.395   .     A
C78    C82     1.420   .     A
C78    Cl97    1.758   .     S
C79    Cl98    1.765   .     S
C79    C83     1.423   .     A
C80    Cl99    1.758   .     S
C80    C83     1.420   .     A
C81    Cl100   1.765   .     S
C81    C82     1.423   .     A
C85    C20     1.466   1_655 S
C86    H114    1.074   .     S
C86    O128    1.222   .     D
C86    C87     1.483   .     S
C87    N115    1.386   .     A
C87    C94     1.415   .     A
C88    O118    1.222   .     D
C88    C91     1.478   .     S
C88    H104    1.076   .     S
C89    C92     1.483   .     S
C89    H105    1.074   .     S
C89    O119    1.222   .     D
C90    H106    1.076   .     S
C90    C93     1.479   .     S
C90    O120    1.222   .     D
C91    N116    1.387   .     A
C91    C95     1.414   .     A
C92    C96     1.415   .     A
C92    N115    1.386   .     A
C93    N116    1.387   .     A
C94    H110    1.082   .     S
C95    H111    1.082   .     S
C96    H112    1.082   .     S
Cu101  Cu102   2.699   .     S
Cu101  O122    1.972   .     S
Cu101  O126    1.931   .     S
Cu101  O117    1.972   .     S
Cu101  O124    1.931   .     S
Cu101  N116    2.027   .     S
Cu102  O121    1.972   .     S
Cu102  O125    1.931   .     S
Cu102  O127    1.931   .     S
Cu102  N115    2.027   .     S
Cu102  O123    1.972   .     S
C129   C146    1.482   .     S
C129   O187    1.304   .     A
C129   O181    1.306   .     A
C130   C134    1.398   .     A
C130   H177    1.082   .     S
C130   C157    1.415   .     A
C131   O191    1.294   .     A
C131   O188    1.294   .     A
C131   C135    1.408   .     S
C132   C136    1.408   .     S
C132   O190    1.294   .     A
C132   O189    1.294   .     A
C133   C160    1.399   .     A
C133   C158    1.399   .     A
C134   C159    1.398   .     A
C134   C5      1.517   1_565 S
C135   C648    1.190   1_554 S
C136   C391    1.190   .     S
C137   C142    1.386   .     A
C137   C148    1.394   .     A
C137   H167    1.084   .     S
C138   C143    1.395   .     A
C138   C149    1.395   .     A
C138   H171    1.084   .     S
C139   C144    1.386   .     A
C139   C149    1.394   .     A
C139   H172    1.084   .     S
C140   O186    1.306   .     A
C140   O185    1.304   .     A
C140   C147    1.482   .     S
C141   H173    1.084   .     S
C141   C145    1.395   .     A
C141   C148    1.395   .     A
C142   C146    1.420   .     A
C142   Cl161   1.758   .     S
C143   Cl162   1.765   .     S
C143   C147    1.423   .     A
C144   Cl163   1.758   .     S
C144   C147    1.420   .     A
C145   Cl164   1.765   .     S
C145   C146    1.423   .     A
C148   C213    1.466   1_455 S
C149   C212    1.466   .     S
C150   H178    1.074   .     S
C150   O192    1.222   .     D
C150   C151    1.483   .     S
C151   N179    1.386   .     A
C151   C158    1.415   .     A
C152   O182    1.222   .     D
C152   C155    1.478   .     S
C152   H168    1.076   .     S
C153   C156    1.483   .     S
C153   H169    1.074   .     S
C153   O183    1.222   .     D
C154   H170    1.076   .     S
C154   C157    1.479   .     S
C154   O184    1.222   .     D
C155   N180    1.387   .     A
C155   C159    1.414   .     A
C156   C160    1.415   .     A
C156   N179    1.386   .     A
C157   N180    1.387   .     A
C158   H174    1.082   .     S
C159   H175    1.082   .     S
C160   H176    1.082   .     S
Cu165  Cu166   2.699   .     S
Cu165  O186    1.972   .     S
Cu165  O190    1.931   .     S
Cu165  O181    1.972   .     S
Cu165  O188    1.931   .     S
Cu165  N180    2.027   .     S
Cu166  O185    1.972   .     S
Cu166  O189    1.931   .     S
Cu166  O191    1.931   .     S
Cu166  N179    2.027   .     S
Cu166  O187    1.972   .     S
C193   C210    1.482   .     S
C193   O251    1.304   .     A
C193   O245    1.306   .     A
C194   C198    1.398   .     A
C194   H241    1.082   .     S
C194   C221    1.415   .     A
C195   O255    1.294   .     A
C195   O252    1.294   .     A
C195   C199    1.408   .     S
C196   C200    1.408   .     S
C196   O254    1.294   .     A
C196   O253    1.294   .     A
C197   C224    1.399   .     A
C197   C222    1.399   .     A
C198   C223    1.398   .     A
C198   C69     1.517   1_565 S
C199   C712    1.190   1_554 S
C200   C455    1.190   .     S
C201   C206    1.386   .     A
C201   C212    1.394   .     A
C201   H231    1.084   .     S
C202   C207    1.395   .     A
C202   C213    1.395   .     A
C202   H235    1.084   .     S
C203   C208    1.386   .     A
C203   C213    1.394   .     A
C203   H236    1.084   .     S
C204   O250    1.306   .     A
C204   O249    1.304   .     A
C204   C211    1.482   .     S
C205   H237    1.084   .     S
C205   C209    1.395   .     A
C205   C212    1.395   .     A
C206   C210    1.420   .     A
C206   Cl225   1.758   .     S
C207   Cl226   1.765   .     S
C207   C211    1.423   .     A
C208   Cl227   1.758   .     S
C208   C211    1.420   .     A
C209   Cl228   1.765   .     S
C209   C210    1.423   .     A
C213   C148    1.466   1_655 S
C214   H242    1.074   .     S
C214   O256    1.222   .     D
C214   C215    1.483   .     S
C215   N243    1.386   .     A
C215   C222    1.415   .     A
C216   O246    1.222   .     D
C216   C219    1.478   .     S
C216   H232    1.076   .     S
C217   C220    1.483   .     S
C217   H233    1.074   .     S
C217   O247    1.222   .     D
C218   H234    1.076   .     S
C218   C221    1.479   .     S
C218   O248    1.222   .     D
C219   N244    1.387   .     A
C219   C223    1.414   .     A
C220   C224    1.415   .     A
C220   N243    1.386   .     A
C221   N244    1.387   .     A
C222   H238    1.082   .     S
C223   H239    1.082   .     S
C224   H240    1.082   .     S
Cu229  Cu230   2.699   .     S
Cu229  O250    1.972   .     S
Cu229  O254    1.931   .     S
Cu229  O245    1.972   .     S
Cu229  O252    1.931   .     S
Cu229  N244    2.027   .     S
Cu230  O249    1.972   .     S
Cu230  O253    1.931   .     S
Cu230  O255    1.931   .     S
Cu230  N243    2.027   .     S
Cu230  O251    1.972   .     S
C257   C274    1.482   .     S
C257   O315    1.304   .     A
C257   O309    1.306   .     A
C258   C262    1.398   .     A
C258   H305    1.082   .     S
C258   C285    1.415   .     A
C259   O319    1.294   .     A
C259   O316    1.294   .     A
C259   C263    1.408   .     S
C260   C264    1.408   .     S
C260   O318    1.294   .     A
C260   O317    1.294   .     A
C261   C288    1.399   .     A
C261   C286    1.399   .     A
C261   C390    1.517   1_545 S
C262   C287    1.398   .     A
C262   C389    1.517   .     S
C264   C519    1.190   .     S
C265   C270    1.386   .     A
C265   C276    1.394   .     A
C265   H295    1.084   .     S
C266   C271    1.395   .     A
C266   C277    1.395   .     A
C266   H299    1.084   .     S
C267   C272    1.386   .     A
C267   C277    1.394   .     A
C267   H300    1.084   .     S
C268   O314    1.306   .     A
C268   O313    1.304   .     A
C268   C275    1.482   .     S
C269   H301    1.084   .     S
C269   C273    1.395   .     A
C269   C276    1.395   .     A
C270   C274    1.420   .     A
C270   Cl289   1.758   .     S
C271   Cl290   1.765   .     S
C271   C275    1.423   .     A
C272   Cl291   1.758   .     S
C272   C275    1.420   .     A
C273   Cl292   1.765   .     S
C273   C274    1.423   .     A
C276   C341    1.466   1_455 S
C277   C340    1.466   .     S
C278   H306    1.074   .     S
C278   O320    1.222   .     D
C278   C279    1.483   .     S
C279   N307    1.386   .     A
C279   C286    1.415   .     A
C280   O310    1.222   .     D
C280   C283    1.478   .     S
C280   H296    1.076   .     S
C281   C284    1.483   .     S
C281   H297    1.074   .     S
C281   O311    1.222   .     D
C282   H298    1.076   .     S
C282   C285    1.479   .     S
C282   O312    1.222   .     D
C283   N308    1.387   .     A
C283   C287    1.414   .     A
C284   C288    1.415   .     A
C284   N307    1.386   .     A
C285   N308    1.387   .     A
C286   H302    1.082   .     S
C287   H303    1.082   .     S
C288   H304    1.082   .     S
Cu293  Cu294   2.699   .     S
Cu293  O314    1.972   .     S
Cu293  O318    1.931   .     S
Cu293  O309    1.972   .     S
Cu293  O316    1.931   .     S
Cu293  N308    2.027   .     S
Cu294  O313    1.972   .     S
Cu294  O317    1.931   .     S
Cu294  O319    1.931   .     S
Cu294  N307    2.027   .     S
Cu294  O315    1.972   .     S
C321   C338    1.482   .     S
C321   O379    1.304   .     A
C321   O373    1.306   .     A
C322   C326    1.398   .     A
C322   H369    1.082   .     S
C322   C349    1.415   .     A
C323   O383    1.294   .     A
C323   O380    1.294   .     A
C323   C327    1.408   .     S
C324   C328    1.408   .     S
C324   O382    1.294   .     A
C324   O381    1.294   .     A
C325   C352    1.399   .     A
C325   C350    1.399   .     A
C325   C454    1.517   1_545 S
C326   C351    1.398   .     A
C326   C453    1.517   .     S
C328   C583    1.190   .     S
C329   C334    1.386   .     A
C329   C340    1.394   .     A
C329   H359    1.084   .     S
C330   C335    1.395   .     A
C330   C341    1.395   .     A
C330   H363    1.084   .     S
C331   C336    1.386   .     A
C331   C341    1.394   .     A
C331   H364    1.084   .     S
C332   O378    1.306   .     A
C332   O377    1.304   .     A
C332   C339    1.482   .     S
C333   H365    1.084   .     S
C333   C337    1.395   .     A
C333   C340    1.395   .     A
C334   C338    1.420   .     A
C334   Cl353   1.758   .     S
C335   Cl354   1.765   .     S
C335   C339    1.423   .     A
C336   Cl355   1.758   .     S
C336   C339    1.420   .     A
C337   Cl356   1.765   .     S
C337   C338    1.423   .     A
C341   C276    1.466   1_655 S
C342   H370    1.074   .     S
C342   O384    1.222   .     D
C342   C343    1.483   .     S
C343   N371    1.386   .     A
C343   C350    1.415   .     A
C344   O374    1.222   .     D
C344   C347    1.478   .     S
C344   H360    1.076   .     S
C345   C348    1.483   .     S
C345   H361    1.074   .     S
C345   O375    1.222   .     D
C346   H362    1.076   .     S
C346   C349    1.479   .     S
C346   O376    1.222   .     D
C347   N372    1.387   .     A
C347   C351    1.414   .     A
C348   C352    1.415   .     A
C348   N371    1.386   .     A
C349   N372    1.387   .     A
C350   H366    1.082   .     S
C351   H367    1.082   .     S
C352   H368    1.082   .     S
Cu357  Cu358   2.699   .     S
Cu357  O378    1.972   .     S
Cu357  O382    1.931   .     S
Cu357  O373    1.972   .     S
Cu357  O380    1.931   .     S
Cu357  N372    2.027   .     S
Cu358  O377    1.972   .     S
Cu358  O381    1.931   .     S
Cu358  O383    1.931   .     S
Cu358  N371    2.027   .     S
Cu358  O379    1.972   .     S
C385   C402    1.482   .     S
C385   O443    1.304   .     A
C385   O437    1.306   .     A
C386   C390    1.398   .     A
C386   H433    1.082   .     S
C386   C413    1.415   .     A
C387   O447    1.294   .     A
C387   O444    1.294   .     A
C387   C391    1.408   .     S
C388   C392    1.408   .     S
C388   O446    1.294   .     A
C388   O445    1.294   .     A
C389   C416    1.399   .     A
C389   C414    1.399   .     A
C390   C415    1.398   .     A
C390   C261    1.517   1_565 S
C392   C647    1.190   .     S
C393   C398    1.386   .     A
C393   C404    1.394   .     A
C393   H423    1.084   .     S
C394   C399    1.395   .     A
C394   C405    1.395   .     A
C394   H427    1.084   .     S
C395   C400    1.386   .     A
C395   C405    1.394   .     A
C395   H428    1.084   .     S
C396   O442    1.306   .     A
C396   O441    1.304   .     A
C396   C403    1.482   .     S
C397   H429    1.084   .     S
C397   C401    1.395   .     A
C397   C404    1.395   .     A
C398   C402    1.420   .     A
C398   Cl417   1.758   .     S
C399   Cl418   1.765   .     S
C399   C403    1.423   .     A
C400   Cl419   1.758   .     S
C400   C403    1.420   .     A
C401   Cl420   1.765   .     S
C401   C402    1.423   .     A
C404   C469    1.466   1_455 S
C405   C468    1.466   .     S
C406   H434    1.074   .     S
C406   O448    1.222   .     D
C406   C407    1.483   .     S
C407   N435    1.386   .     A
C407   C414    1.415   .     A
C408   O438    1.222   .     D
C408   C411    1.478   .     S
C408   H424    1.076   .     S
C409   C412    1.483   .     S
C409   H425    1.074   .     S
C409   O439    1.222   .     D
C410   H426    1.076   .     S
C410   C413    1.479   .     S
C410   O440    1.222   .     D
C411   N436    1.387   .     A
C411   C415    1.414   .     A
C412   C416    1.415   .     A
C412   N435    1.386   .     A
C413   N436    1.387   .     A
C414   H430    1.082   .     S
C415   H431    1.082   .     S
C416   H432    1.082   .     S
Cu421  Cu422   2.699   .     S
Cu421  O442    1.972   .     S
Cu421  O446    1.931   .     S
Cu421  O437    1.972   .     S
Cu421  O444    1.931   .     S
Cu421  N436    2.027   .     S
Cu422  O441    1.972   .     S
Cu422  O445    1.931   .     S
Cu422  O447    1.931   .     S
Cu422  N435    2.027   .     S
Cu422  O443    1.972   .     S
C449   C466    1.482   .     S
C449   O507    1.304   .     A
C449   O501    1.306   .     A
C450   C454    1.398   .     A
C450   H497    1.082   .     S
C450   C477    1.415   .     A
C451   O511    1.294   .     A
C451   O508    1.294   .     A
C451   C455    1.408   .     S
C452   C456    1.408   .     S
C452   O510    1.294   .     A
C452   O509    1.294   .     A
C453   C480    1.399   .     A
C453   C478    1.399   .     A
C454   C479    1.398   .     A
C454   C325    1.517   1_565 S
C456   C711    1.190   .     S
C457   C462    1.386   .     A
C457   C468    1.394   .     A
C457   H487    1.084   .     S
C458   C463    1.395   .     A
C458   C469    1.395   .     A
C458   H491    1.084   .     S
C459   C464    1.386   .     A
C459   C469    1.394   .     A
C459   H492    1.084   .     S
C460   O506    1.306   .     A
C460   O505    1.304   .     A
C460   C467    1.482   .     S
C461   H493    1.084   .     S
C461   C465    1.395   .     A
C461   C468    1.395   .     A
C462   C466    1.420   .     A
C462   Cl481   1.758   .     S
C463   Cl482   1.765   .     S
C463   C467    1.423   .     A
C464   Cl483   1.758   .     S
C464   C467    1.420   .     A
C465   Cl484   1.765   .     S
C465   C466    1.423   .     A
C469   C404    1.466   1_655 S
C470   H498    1.074   .     S
C470   O512    1.222   .     D
C470   C471    1.483   .     S
C471   N499    1.386   .     A
C471   C478    1.415   .     A
C472   O502    1.222   .     D
C472   C475    1.478   .     S
C472   H488    1.076   .     S
C473   C476    1.483   .     S
C473   H489    1.074   .     S
C473   O503    1.222   .     D
C474   H490    1.076   .     S
C474   C477    1.479   .     S
C474   O504    1.222   .     D
C475   N500    1.387   .     A
C475   C479    1.414   .     A
C476   C480    1.415   .     A
C476   N499    1.386   .     A
C477   N500    1.387   .     A
C478   H494    1.082   .     S
C479   H495    1.082   .     S
C480   H496    1.082   .     S
Cu485  Cu486   2.699   .     S
Cu485  O506    1.972   .     S
Cu485  O510    1.931   .     S
Cu485  O501    1.972   .     S
Cu485  O508    1.931   .     S
Cu485  N500    2.027   .     S
Cu486  O505    1.972   .     S
Cu486  O509    1.931   .     S
Cu486  O511    1.931   .     S
Cu486  N499    2.027   .     S
Cu486  O507    1.972   .     S
C513   C530    1.482   .     S
C513   O571    1.304   .     A
C513   O565    1.306   .     A
C514   C518    1.398   .     A
C514   H561    1.082   .     S
C514   C541    1.415   .     A
C515   O575    1.294   .     A
C515   O572    1.294   .     A
C515   C519    1.408   .     S
C516   C520    1.408   .     S
C516   O574    1.294   .     A
C516   O573    1.294   .     A
C517   C544    1.399   .     A
C517   C542    1.399   .     A
C517   C646    1.517   1_545 S
C518   C543    1.398   .     A
C518   C645    1.517   .     S
C520   C7      1.190   1_556 S
C521   C526    1.386   .     A
C521   C532    1.394   .     A
C521   H551    1.084   .     S
C522   C527    1.395   .     A
C522   C533    1.395   .     A
C522   H555    1.084   .     S
C523   C528    1.386   .     A
C523   C533    1.394   .     A
C523   H556    1.084   .     S
C524   O570    1.306   .     A
C524   O569    1.304   .     A
C524   C531    1.482   .     S
C525   H557    1.084   .     S
C525   C529    1.395   .     A
C525   C532    1.395   .     A
C526   C530    1.420   .     A
C526   Cl545   1.758   .     S
C527   Cl546   1.765   .     S
C527   C531    1.423   .     A
C528   Cl547   1.758   .     S
C528   C531    1.420   .     A
C529   Cl548   1.765   .     S
C529   C530    1.423   .     A
C532   C597    1.466   1_455 S
C533   C596    1.466   .     S
C534   H562    1.074   .     S
C534   O576    1.222   .     D
C534   C535    1.483   .     S
C535   N563    1.386   .     A
C535   C542    1.415   .     A
C536   O566    1.222   .     D
C536   C539    1.478   .     S
C536   H552    1.076   .     S
C537   C540    1.483   .     S
C537   H553    1.074   .     S
C537   O567    1.222   .     D
C538   H554    1.076   .     S
C538   C541    1.479   .     S
C538   O568    1.222   .     D
C539   N564    1.387   .     A
C539   C543    1.414   .     A
C540   C544    1.415   .     A
C540   N563    1.386   .     A
C541   N564    1.387   .     A
C542   H558    1.082   .     S
C543   H559    1.082   .     S
C544   H560    1.082   .     S
Cu549  Cu550   2.699   .     S
Cu549  O570    1.972   .     S
Cu549  O574    1.931   .     S
Cu549  O565    1.972   .     S
Cu549  O572    1.931   .     S
Cu549  N564    2.027   .     S
Cu550  O569    1.972   .     S
Cu550  O573    1.931   .     S
Cu550  O575    1.931   .     S
Cu550  N563    2.027   .     S
Cu550  O571    1.972   .     S
C577   C594    1.482   .     S
C577   O635    1.304   .     A
C577   O629    1.306   .     A
C578   C582    1.398   .     A
C578   H625    1.082   .     S
C578   C605    1.415   .     A
C579   O639    1.294   .     A
C579   O636    1.294   .     A
C579   C583    1.408   .     S
C580   C584    1.408   .     S
C580   O638    1.294   .     A
C580   O637    1.294   .     A
C581   C608    1.399   .     A
C581   C606    1.399   .     A
C581   C710    1.517   1_545 S
C582   C607    1.398   .     A
C582   C709    1.517   .     S
C584   C71     1.190   1_556 S
C585   C590    1.386   .     A
C585   C596    1.394   .     A
C585   H615    1.084   .     S
C586   C591    1.395   .     A
C586   C597    1.395   .     A
C586   H619    1.084   .     S
C587   C592    1.386   .     A
C587   C597    1.394   .     A
C587   H620    1.084   .     S
C588   O634    1.306   .     A
C588   O633    1.304   .     A
C588   C595    1.482   .     S
C589   H621    1.084   .     S
C589   C593    1.395   .     A
C589   C596    1.395   .     A
C590   C594    1.420   .     A
C590   Cl609   1.758   .     S
C591   Cl610   1.765   .     S
C591   C595    1.423   .     A
C592   Cl611   1.758   .     S
C592   C595    1.420   .     A
C593   Cl612   1.765   .     S
C593   C594    1.423   .     A
C597   C532    1.466   1_655 S
C598   H626    1.074   .     S
C598   O640    1.222   .     D
C598   C599    1.483   .     S
C599   N627    1.386   .     A
C599   C606    1.415   .     A
C600   O630    1.222   .     D
C600   C603    1.478   .     S
C600   H616    1.076   .     S
C601   C604    1.483   .     S
C601   H617    1.074   .     S
C601   O631    1.222   .     D
C602   H618    1.076   .     S
C602   C605    1.479   .     S
C602   O632    1.222   .     D
C603   N628    1.387   .     A
C603   C607    1.414   .     A
C604   C608    1.415   .     A
C604   N627    1.386   .     A
C605   N628    1.387   .     A
C606   H622    1.082   .     S
C607   H623    1.082   .     S
C608   H624    1.082   .     S
Cu613  Cu614   2.699   .     S
Cu613  O634    1.972   .     S
Cu613  O638    1.931   .     S
Cu613  O629    1.972   .     S
Cu613  O636    1.931   .     S
Cu613  N628    2.027   .     S
Cu614  O633    1.972   .     S
Cu614  O637    1.931   .     S
Cu614  O639    1.931   .     S
Cu614  N627    2.027   .     S
Cu614  O635    1.972   .     S
C641   C658    1.482   .     S
C641   O699    1.304   .     A
C641   O693    1.306   .     A
C642   C646    1.398   .     A
C642   H689    1.082   .     S
C642   C669    1.415   .     A
C643   O703    1.294   .     A
C643   O700    1.294   .     A
C643   C647    1.408   .     S
C644   C648    1.408   .     S
C644   O702    1.294   .     A
C644   O701    1.294   .     A
C645   C672    1.399   .     A
C645   C670    1.399   .     A
C646   C671    1.398   .     A
C646   C517    1.517   1_565 S
C648   C135    1.190   1_556 S
C649   C654    1.386   .     A
C649   C660    1.394   .     A
C649   H679    1.084   .     S
C650   C655    1.395   .     A
C650   C661    1.395   .     A
C650   H683    1.084   .     S
C651   C656    1.386   .     A
C651   C661    1.394   .     A
C651   H684    1.084   .     S
C652   O698    1.306   .     A
C652   O697    1.304   .     A
C652   C659    1.482   .     S
C653   H685    1.084   .     S
C653   C657    1.395   .     A
C653   C660    1.395   .     A
C654   C658    1.420   .     A
C654   Cl673   1.758   .     S
C655   Cl674   1.765   .     S
C655   C659    1.423   .     A
C656   Cl675   1.758   .     S
C656   C659    1.420   .     A
C657   Cl676   1.765   .     S
C657   C658    1.423   .     A
C660   C725    1.466   1_455 S
C661   C724    1.466   .     S
C662   H690    1.074   .     S
C662   O704    1.222   .     D
C662   C663    1.483   .     S
C663   N691    1.386   .     A
C663   C670    1.415   .     A
C664   O694    1.222   .     D
C664   C667    1.478   .     S
C664   H680    1.076   .     S
C665   C668    1.483   .     S
C665   H681    1.074   .     S
C665   O695    1.222   .     D
C666   H682    1.076   .     S
C666   C669    1.479   .     S
C666   O696    1.222   .     D
C667   N692    1.387   .     A
C667   C671    1.414   .     A
C668   C672    1.415   .     A
C668   N691    1.386   .     A
C669   N692    1.387   .     A
C670   H686    1.082   .     S
C671   H687    1.082   .     S
C672   H688    1.082   .     S
Cu677  Cu678   2.699   .     S
Cu677  O698    1.972   .     S
Cu677  O702    1.931   .     S
Cu677  O693    1.972   .     S
Cu677  O700    1.931   .     S
Cu677  N692    2.027   .     S
Cu678  O697    1.972   .     S
Cu678  O701    1.931   .     S
Cu678  O703    1.931   .     S
Cu678  N691    2.027   .     S
Cu678  O699    1.972   .     S
C705   C722    1.482   .     S
C705   O763    1.304   .     A
C705   O757    1.306   .     A
C706   C710    1.398   .     A
C706   H753    1.082   .     S
C706   C733    1.415   .     A
C707   O767    1.294   .     A
C707   O764    1.294   .     A
C707   C711    1.408   .     S
C708   C712    1.408   .     S
C708   O766    1.294   .     A
C708   O765    1.294   .     A
C709   C736    1.399   .     A
C709   C734    1.399   .     A
C710   C735    1.398   .     A
C710   C581    1.517   1_565 S
C712   C199    1.190   1_556 S
C713   C718    1.386   .     A
C713   C724    1.394   .     A
C713   H743    1.084   .     S
C714   C719    1.395   .     A
C714   C725    1.395   .     A
C714   H747    1.084   .     S
C715   C720    1.386   .     A
C715   C725    1.394   .     A
C715   H748    1.084   .     S
C716   O762    1.306   .     A
C716   O761    1.304   .     A
C716   C723    1.482   .     S
C717   H749    1.084   .     S
C717   C721    1.395   .     A
C717   C724    1.395   .     A
C718   C722    1.420   .     A
C718   Cl737   1.758   .     S
C719   Cl738   1.765   .     S
C719   C723    1.423   .     A
C720   Cl739   1.758   .     S
C720   C723    1.420   .     A
C721   Cl740   1.765   .     S
C721   C722    1.423   .     A
C725   C660    1.466   1_655 S
C726   H754    1.074   .     S
C726   O768    1.222   .     D
C726   C727    1.483   .     S
C727   N755    1.386   .     A
C727   C734    1.415   .     A
C728   O758    1.222   .     D
C728   C731    1.478   .     S
C728   H744    1.076   .     S
C729   C732    1.483   .     S
C729   H745    1.074   .     S
C729   O759    1.222   .     D
C730   H746    1.076   .     S
C730   C733    1.479   .     S
C730   O760    1.222   .     D
C731   N756    1.387   .     A
C731   C735    1.414   .     A
C732   C736    1.415   .     A
C732   N755    1.386   .     A
C733   N756    1.387   .     A
C734   H750    1.082   .     S
C735   H751    1.082   .     S
C736   H752    1.082   .     S
Cu741  Cu742   2.699   .     S
Cu741  O762    1.972   .     S
Cu741  O766    1.931   .     S
Cu741  O757    1.972   .     S
Cu741  O764    1.931   .     S
Cu741  N756    2.027   .     S
Cu742  O761    1.972   .     S
Cu742  O765    1.931   .     S
Cu742  O767    1.931   .     S
Cu742  N755    2.027   .     S
Cu742  O763    1.972   .     S
