data_str_m3_o1_o5_pcu_sym.98
_audit_creation_date              2020-01-03
_audit_creation_method            'Materials Studio'
_symmetry_space_group_name_H-M    'P1'
_symmetry_Int_Tables_number       1
_symmetry_cell_setting            triclinic
loop_
_symmetry_equiv_pos_as_xyz
  x,y,z
_cell_length_a                    32.2934
_cell_length_b                    30.0010
_cell_length_c                    26.6522
_cell_angle_alpha                 89.6199
_cell_angle_beta                  93.8438
_cell_angle_gamma                 88.0323
loop_
_atom_site_label
_atom_site_type_symbol
_atom_site_fract_x
_atom_site_fract_y
_atom_site_fract_z
_atom_site_U_iso_or_equiv
_atom_site_adp_type
_atom_site_occupancy
C1     C     0.08684   0.16748   0.16808   0.00000  Uiso   1.00
C2     C     0.24650   0.16573   0.16533   0.00000  Uiso   1.00
C3     C     0.16638   0.16677   0.07304   0.00000  Uiso   1.00
C4     C     0.16688   0.16657   0.26029   0.00000  Uiso   1.00
C5     C     0.16651   0.16681   0.02184   0.00000  Uiso   1.00
C6     C     0.16670   0.16653   0.31149   0.00000  Uiso   1.00
C7     C     0.02426   0.13347   0.19412   0.00000  Uiso   1.00
C8     C     0.30896   0.19903   0.13805   0.00000  Uiso   1.00
C9     C     0.31489   0.12916   0.18733   0.00000  Uiso   1.00
C10    C     0.01838   0.20309   0.14431   0.00000  Uiso   1.00
C11    C     0.29074   0.16361   0.16211   0.00000  Uiso   1.00
C12    C     0.04252   0.16896   0.17009   0.00000  Uiso   1.00
C13    C     0.18914   0.02303   0.20349   0.00000  Uiso   1.00
C14    C     0.14435   0.31030   0.12969   0.00000  Uiso   1.00
C15    C     0.14329   0.02483   0.13052   0.00000  Uiso   1.00
C16    C     0.19028   0.30850   0.20258   0.00000  Uiso   1.00
N17    N     0.16667   0.28573   0.16667   0.00000  Uiso   1.00
N18    N     0.16667   0.04760   0.16667   0.00000  Uiso   1.00
O19    O     0.10559   0.20487   0.16666   0.00000  Uiso   1.00
O20    O     0.22774   0.12846   0.16667   0.00000  Uiso   1.00
O21    O     0.22774   0.20487   0.16667   0.00000  Uiso   1.00
O22    O     0.10559   0.12846   0.16666   0.00000  Uiso   1.00
O23    O     0.16667   0.20488   0.09511   0.00000  Uiso   1.00
O24    O     0.16666   0.12845   0.23822   0.00000  Uiso   1.00
O25    O     0.16666   0.20488   0.23822   0.00000  Uiso   1.00
O26    O     0.16667   0.12845   0.09511   0.00000  Uiso   1.00
Zn27   Zn    0.16667   0.21771   0.16667   0.00000  Uiso   1.00
Zn28   Zn    0.16667   0.11563   0.16667   0.00000  Uiso   1.00
N29    N     0.04837   0.10613   0.23015   0.00000  Uiso   1.00
H30    H     0.03885   0.10795   0.26628   0.00000  Uiso   1.00
C31    C     0.06047   0.06144   0.21525   0.00000  Uiso   1.00
H32    H     0.03969   0.03673   0.23054   0.00000  Uiso   1.00
H33    H     0.09265   0.05347   0.23074   0.00000  Uiso   1.00
H34    H     0.05969   0.05847   0.17375   0.00000  Uiso   1.00
N35    N     0.28391   0.22988   0.10698   0.00000  Uiso   1.00
H36    H     0.29257   0.26259   0.10779   0.00000  Uiso   1.00
C37    C     0.27336   0.21422   0.05668   0.00000  Uiso   1.00
H38    H     0.30170   0.21102   0.03534   0.00000  Uiso   1.00
H39    H     0.25104   0.23838   0.03678   0.00000  Uiso   1.00
H40    H     0.25855   0.18140   0.05798   0.00000  Uiso   1.00
N41    N     0.29640   0.09001   0.20485   0.00000  Uiso   1.00
H42    H     0.30799   0.07837   0.23963   0.00000  Uiso   1.00
C43    C     0.29237   0.05502   0.16766   0.00000  Uiso   1.00
H44    H     0.32311   0.04400   0.15529   0.00000  Uiso   1.00
H45    H     0.27276   0.06681   0.13408   0.00000  Uiso   1.00
H46    H     0.27778   0.02581   0.18395   0.00000  Uiso   1.00
N47    N     0.03699   0.24162   0.12550   0.00000  Uiso   1.00
H48    H     0.02676   0.25078   0.08930   0.00000  Uiso   1.00
C49    C     0.03791   0.27875   0.16008   0.00000  Uiso   1.00
H50    H     0.00601   0.28954   0.16895   0.00000  Uiso   1.00
H51    H     0.05276   0.30742   0.14300   0.00000  Uiso   1.00
H52    H     0.05607   0.26928   0.19564   0.00000  Uiso   1.00
C53    C     0.21022   0.04699   0.24736   0.00000  Uiso   1.00
H54    H     0.23687   0.02837   0.26659   0.00000  Uiso   1.00
H55    H     0.22358   0.07791   0.23487   0.00000  Uiso   1.00
H56    H     0.18734   0.05417   0.27575   0.00000  Uiso   1.00
C57    C     0.12381   0.28627   0.08553   0.00000  Uiso   1.00
H58    H     0.14723   0.27855   0.05795   0.00000  Uiso   1.00
H59    H     0.10983   0.25568   0.09803   0.00000  Uiso   1.00
H60    H     0.09781   0.30500   0.06513   0.00000  Uiso   1.00
C61    C     0.11514   0.04964   0.09137   0.00000  Uiso   1.00
H62    H     0.08300   0.03787   0.09210   0.00000  Uiso   1.00
H63    H     0.11143   0.08521   0.09757   0.00000  Uiso   1.00
H64    H     0.12672   0.04455   0.05345   0.00000  Uiso   1.00
C65    C     0.21927   0.28377   0.24090   0.00000  Uiso   1.00
H66    H     0.22196   0.24800   0.23574   0.00000  Uiso   1.00
H67    H     0.25145   0.29492   0.23796   0.00000  Uiso   1.00
H68    H     0.20921   0.28981   0.27938   0.00000  Uiso   1.00
C69    C     0.42017   0.16748   0.16808   0.00000  Uiso   1.00
C70    C     0.57983   0.16573   0.16533   0.00000  Uiso   1.00
C71    C     0.49971   0.16677   0.07304   0.00000  Uiso   1.00
C72    C     0.50021   0.16657   0.26029   0.00000  Uiso   1.00
C73    C     0.49984   0.16681   0.02184   0.00000  Uiso   1.00
C74    C     0.50004   0.16653   0.31149   0.00000  Uiso   1.00
C75    C     0.35759   0.13347   0.19412   0.00000  Uiso   1.00
C76    C     0.64230   0.19903   0.13805   0.00000  Uiso   1.00
C77    C     0.64823   0.12916   0.18733   0.00000  Uiso   1.00
C78    C     0.35172   0.20309   0.14431   0.00000  Uiso   1.00
C79    C     0.62408   0.16361   0.16211   0.00000  Uiso   1.00
C80    C     0.37585   0.16896   0.17009   0.00000  Uiso   1.00
C81    C     0.52247   0.02303   0.20349   0.00000  Uiso   1.00
C82    C     0.47768   0.31030   0.12969   0.00000  Uiso   1.00
C83    C     0.47662   0.02483   0.13052   0.00000  Uiso   1.00
C84    C     0.52361   0.30850   0.20258   0.00000  Uiso   1.00
N85    N     0.50000   0.28573   0.16667   0.00000  Uiso   1.00
N86    N     0.50000   0.04760   0.16667   0.00000  Uiso   1.00
O87    O     0.43892   0.20487   0.16666   0.00000  Uiso   1.00
O88    O     0.56108   0.12846   0.16667   0.00000  Uiso   1.00
O89    O     0.56108   0.20487   0.16667   0.00000  Uiso   1.00
O90    O     0.43892   0.12846   0.16666   0.00000  Uiso   1.00
O91    O     0.50000   0.20488   0.09511   0.00000  Uiso   1.00
O92    O     0.50000   0.12845   0.23822   0.00000  Uiso   1.00
O93    O     0.50000   0.20488   0.23822   0.00000  Uiso   1.00
O94    O     0.50000   0.12845   0.09511   0.00000  Uiso   1.00
Zn95   Zn    0.50000   0.21771   0.16667   0.00000  Uiso   1.00
Zn96   Zn    0.50000   0.11563   0.16667   0.00000  Uiso   1.00
N97    N     0.38170   0.10613   0.23015   0.00000  Uiso   1.00
H98    H     0.37219   0.10795   0.26628   0.00000  Uiso   1.00
C99    C     0.39380   0.06144   0.21525   0.00000  Uiso   1.00
H100   H     0.37303   0.03673   0.23054   0.00000  Uiso   1.00
H101   H     0.42598   0.05347   0.23074   0.00000  Uiso   1.00
H102   H     0.39302   0.05847   0.17375   0.00000  Uiso   1.00
N103   N     0.61724   0.22988   0.10698   0.00000  Uiso   1.00
H104   H     0.62590   0.26259   0.10779   0.00000  Uiso   1.00
C105   C     0.60669   0.21422   0.05668   0.00000  Uiso   1.00
H106   H     0.63504   0.21102   0.03534   0.00000  Uiso   1.00
H107   H     0.58438   0.23838   0.03678   0.00000  Uiso   1.00
H108   H     0.59188   0.18140   0.05798   0.00000  Uiso   1.00
N109   N     0.62974   0.09001   0.20485   0.00000  Uiso   1.00
H110   H     0.64133   0.07837   0.23963   0.00000  Uiso   1.00
C111   C     0.62571   0.05502   0.16766   0.00000  Uiso   1.00
H112   H     0.65645   0.04400   0.15529   0.00000  Uiso   1.00
H113   H     0.60609   0.06681   0.13408   0.00000  Uiso   1.00
H114   H     0.61111   0.02581   0.18395   0.00000  Uiso   1.00
N115   N     0.37032   0.24162   0.12550   0.00000  Uiso   1.00
H116   H     0.36010   0.25078   0.08930   0.00000  Uiso   1.00
C117   C     0.37125   0.27875   0.16008   0.00000  Uiso   1.00
H118   H     0.33935   0.28954   0.16895   0.00000  Uiso   1.00
H119   H     0.38609   0.30742   0.14300   0.00000  Uiso   1.00
H120   H     0.38940   0.26928   0.19564   0.00000  Uiso   1.00
C121   C     0.54355   0.04699   0.24736   0.00000  Uiso   1.00
H122   H     0.57021   0.02837   0.26659   0.00000  Uiso   1.00
H123   H     0.55692   0.07791   0.23487   0.00000  Uiso   1.00
H124   H     0.52067   0.05417   0.27575   0.00000  Uiso   1.00
C125   C     0.45714   0.28627   0.08553   0.00000  Uiso   1.00
H126   H     0.48056   0.27855   0.05795   0.00000  Uiso   1.00
H127   H     0.44316   0.25568   0.09803   0.00000  Uiso   1.00
H128   H     0.43115   0.30500   0.06513   0.00000  Uiso   1.00
C129   C     0.44848   0.04964   0.09137   0.00000  Uiso   1.00
H130   H     0.41634   0.03787   0.09210   0.00000  Uiso   1.00
H131   H     0.44476   0.08521   0.09757   0.00000  Uiso   1.00
H132   H     0.46005   0.04455   0.05345   0.00000  Uiso   1.00
C133   C     0.55261   0.28377   0.24090   0.00000  Uiso   1.00
H134   H     0.55529   0.24800   0.23574   0.00000  Uiso   1.00
H135   H     0.58478   0.29492   0.23796   0.00000  Uiso   1.00
H136   H     0.54255   0.28981   0.27938   0.00000  Uiso   1.00
C137   C     0.75351   0.16748   0.16808   0.00000  Uiso   1.00
C138   C     0.91317   0.16573   0.16533   0.00000  Uiso   1.00
C139   C     0.83305   0.16677   0.07304   0.00000  Uiso   1.00
C140   C     0.83354   0.16657   0.26029   0.00000  Uiso   1.00
C141   C     0.83317   0.16681   0.02184   0.00000  Uiso   1.00
C142   C     0.83337   0.16653   0.31149   0.00000  Uiso   1.00
C143   C     0.69093   0.13347   0.19412   0.00000  Uiso   1.00
C144   C     0.97563   0.19903   0.13805   0.00000  Uiso   1.00
C145   C     0.98156   0.12916   0.18733   0.00000  Uiso   1.00
C146   C     0.68505   0.20309   0.14431   0.00000  Uiso   1.00
C147   C     0.95741   0.16361   0.16211   0.00000  Uiso   1.00
C148   C     0.70918   0.16896   0.17009   0.00000  Uiso   1.00
C149   C     0.85581   0.02303   0.20349   0.00000  Uiso   1.00
C150   C     0.81101   0.31030   0.12969   0.00000  Uiso   1.00
C151   C     0.80995   0.02483   0.13052   0.00000  Uiso   1.00
C152   C     0.85694   0.30850   0.20258   0.00000  Uiso   1.00
N153   N     0.83333   0.28573   0.16667   0.00000  Uiso   1.00
N154   N     0.83333   0.04760   0.16667   0.00000  Uiso   1.00
O155   O     0.77226   0.20487   0.16666   0.00000  Uiso   1.00
O156   O     0.89441   0.12846   0.16667   0.00000  Uiso   1.00
O157   O     0.89441   0.20487   0.16667   0.00000  Uiso   1.00
O158   O     0.77226   0.12846   0.16666   0.00000  Uiso   1.00
O159   O     0.83334   0.20488   0.09511   0.00000  Uiso   1.00
O160   O     0.83333   0.12845   0.23822   0.00000  Uiso   1.00
O161   O     0.83333   0.20488   0.23822   0.00000  Uiso   1.00
O162   O     0.83334   0.12845   0.09511   0.00000  Uiso   1.00
Zn163  Zn    0.83333   0.21771   0.16667   0.00000  Uiso   1.00
Zn164  Zn    0.83333   0.11563   0.16667   0.00000  Uiso   1.00
N165   N     0.71504   0.10613   0.23015   0.00000  Uiso   1.00
H166   H     0.70552   0.10795   0.26628   0.00000  Uiso   1.00
C167   C     0.72714   0.06144   0.21525   0.00000  Uiso   1.00
H168   H     0.70636   0.03673   0.23054   0.00000  Uiso   1.00
H169   H     0.75932   0.05347   0.23074   0.00000  Uiso   1.00
H170   H     0.72636   0.05847   0.17375   0.00000  Uiso   1.00
N171   N     0.95057   0.22988   0.10698   0.00000  Uiso   1.00
H172   H     0.95924   0.26259   0.10779   0.00000  Uiso   1.00
C173   C     0.94003   0.21422   0.05668   0.00000  Uiso   1.00
H174   H     0.96837   0.21102   0.03534   0.00000  Uiso   1.00
H175   H     0.91771   0.23838   0.03678   0.00000  Uiso   1.00
H176   H     0.92521   0.18140   0.05798   0.00000  Uiso   1.00
N177   N     0.96307   0.09001   0.20485   0.00000  Uiso   1.00
H178   H     0.97466   0.07837   0.23963   0.00000  Uiso   1.00
C179   C     0.95904   0.05502   0.16766   0.00000  Uiso   1.00
H180   H     0.98978   0.04400   0.15529   0.00000  Uiso   1.00
H181   H     0.93943   0.06681   0.13408   0.00000  Uiso   1.00
H182   H     0.94444   0.02581   0.18395   0.00000  Uiso   1.00
N183   N     0.70365   0.24162   0.12550   0.00000  Uiso   1.00
H184   H     0.69343   0.25078   0.08930   0.00000  Uiso   1.00
C185   C     0.70458   0.27875   0.16008   0.00000  Uiso   1.00
H186   H     0.67268   0.28954   0.16895   0.00000  Uiso   1.00
H187   H     0.71942   0.30742   0.14300   0.00000  Uiso   1.00
H188   H     0.72274   0.26928   0.19564   0.00000  Uiso   1.00
C189   C     0.87689   0.04699   0.24736   0.00000  Uiso   1.00
H190   H     0.90354   0.02837   0.26659   0.00000  Uiso   1.00
H191   H     0.89025   0.07791   0.23487   0.00000  Uiso   1.00
H192   H     0.85400   0.05417   0.27575   0.00000  Uiso   1.00
C193   C     0.79047   0.28627   0.08553   0.00000  Uiso   1.00
H194   H     0.81389   0.27855   0.05795   0.00000  Uiso   1.00
H195   H     0.77649   0.25568   0.09803   0.00000  Uiso   1.00
H196   H     0.76448   0.30500   0.06513   0.00000  Uiso   1.00
C197   C     0.78181   0.04964   0.09137   0.00000  Uiso   1.00
H198   H     0.74967   0.03787   0.09210   0.00000  Uiso   1.00
H199   H     0.77810   0.08521   0.09757   0.00000  Uiso   1.00
H200   H     0.79339   0.04455   0.05345   0.00000  Uiso   1.00
C201   C     0.88594   0.28377   0.24090   0.00000  Uiso   1.00
H202   H     0.88862   0.24800   0.23574   0.00000  Uiso   1.00
H203   H     0.91812   0.29492   0.23796   0.00000  Uiso   1.00
H204   H     0.87588   0.28981   0.27938   0.00000  Uiso   1.00
C205   C     0.08684   0.50081   0.16808   0.00000  Uiso   1.00
C206   C     0.24650   0.49906   0.16533   0.00000  Uiso   1.00
C207   C     0.16638   0.50010   0.07304   0.00000  Uiso   1.00
C208   C     0.16688   0.49990   0.26029   0.00000  Uiso   1.00
C209   C     0.16651   0.50014   0.02184   0.00000  Uiso   1.00
C210   C     0.16670   0.49986   0.31149   0.00000  Uiso   1.00
C211   C     0.02426   0.46681   0.19412   0.00000  Uiso   1.00
C212   C     0.30896   0.53237   0.13805   0.00000  Uiso   1.00
C213   C     0.31489   0.46249   0.18733   0.00000  Uiso   1.00
C214   C     0.01838   0.53642   0.14431   0.00000  Uiso   1.00
C215   C     0.29074   0.49694   0.16211   0.00000  Uiso   1.00
C216   C     0.04252   0.50229   0.17009   0.00000  Uiso   1.00
C217   C     0.18914   0.35637   0.20349   0.00000  Uiso   1.00
C218   C     0.14435   0.64363   0.12969   0.00000  Uiso   1.00
C219   C     0.14329   0.35817   0.13052   0.00000  Uiso   1.00
C220   C     0.19028   0.64183   0.20258   0.00000  Uiso   1.00
N221   N     0.16667   0.61907   0.16667   0.00000  Uiso   1.00
N222   N     0.16667   0.38093   0.16667   0.00000  Uiso   1.00
O223   O     0.10559   0.53821   0.16666   0.00000  Uiso   1.00
O224   O     0.22774   0.46179   0.16667   0.00000  Uiso   1.00
O225   O     0.22774   0.53821   0.16667   0.00000  Uiso   1.00
O226   O     0.10559   0.46179   0.16666   0.00000  Uiso   1.00
O227   O     0.16667   0.53821   0.09511   0.00000  Uiso   1.00
O228   O     0.16666   0.46179   0.23822   0.00000  Uiso   1.00
O229   O     0.16666   0.53821   0.23822   0.00000  Uiso   1.00
O230   O     0.16667   0.46179   0.09511   0.00000  Uiso   1.00
Zn231  Zn    0.16667   0.55104   0.16667   0.00000  Uiso   1.00
Zn232  Zn    0.16667   0.44896   0.16667   0.00000  Uiso   1.00
N233   N     0.04837   0.43946   0.23015   0.00000  Uiso   1.00
H234   H     0.03885   0.44129   0.26628   0.00000  Uiso   1.00
C235   C     0.06047   0.39477   0.21525   0.00000  Uiso   1.00
H236   H     0.03969   0.37006   0.23054   0.00000  Uiso   1.00
H237   H     0.09265   0.38680   0.23074   0.00000  Uiso   1.00
H238   H     0.05969   0.39181   0.17375   0.00000  Uiso   1.00
N239   N     0.28391   0.56322   0.10698   0.00000  Uiso   1.00
H240   H     0.29257   0.59592   0.10779   0.00000  Uiso   1.00
C241   C     0.27336   0.54756   0.05668   0.00000  Uiso   1.00
H242   H     0.30170   0.54436   0.03534   0.00000  Uiso   1.00
H243   H     0.25104   0.57171   0.03678   0.00000  Uiso   1.00
H244   H     0.25855   0.51473   0.05798   0.00000  Uiso   1.00
N245   N     0.29640   0.42334   0.20485   0.00000  Uiso   1.00
H246   H     0.30799   0.41170   0.23963   0.00000  Uiso   1.00
C247   C     0.29237   0.38835   0.16766   0.00000  Uiso   1.00
H248   H     0.32311   0.37733   0.15529   0.00000  Uiso   1.00
H249   H     0.27276   0.40014   0.13408   0.00000  Uiso   1.00
H250   H     0.27778   0.35914   0.18395   0.00000  Uiso   1.00
N251   N     0.03699   0.57495   0.12550   0.00000  Uiso   1.00
H252   H     0.02676   0.58412   0.08930   0.00000  Uiso   1.00
C253   C     0.03791   0.61209   0.16008   0.00000  Uiso   1.00
H254   H     0.00601   0.62287   0.16895   0.00000  Uiso   1.00
H255   H     0.05276   0.64075   0.14300   0.00000  Uiso   1.00
H256   H     0.05607   0.60261   0.19564   0.00000  Uiso   1.00
C257   C     0.21022   0.38032   0.24736   0.00000  Uiso   1.00
H258   H     0.23687   0.36170   0.26659   0.00000  Uiso   1.00
H259   H     0.22358   0.41125   0.23487   0.00000  Uiso   1.00
H260   H     0.18734   0.38751   0.27575   0.00000  Uiso   1.00
C261   C     0.12381   0.61961   0.08553   0.00000  Uiso   1.00
H262   H     0.14723   0.61189   0.05795   0.00000  Uiso   1.00
H263   H     0.10983   0.58901   0.09803   0.00000  Uiso   1.00
H264   H     0.09781   0.63833   0.06513   0.00000  Uiso   1.00
C265   C     0.11514   0.38297   0.09137   0.00000  Uiso   1.00
H266   H     0.08300   0.37120   0.09210   0.00000  Uiso   1.00
H267   H     0.11143   0.41854   0.09757   0.00000  Uiso   1.00
H268   H     0.12672   0.37788   0.05345   0.00000  Uiso   1.00
C269   C     0.21927   0.61711   0.24090   0.00000  Uiso   1.00
H270   H     0.22196   0.58134   0.23574   0.00000  Uiso   1.00
H271   H     0.25145   0.62825   0.23796   0.00000  Uiso   1.00
H272   H     0.20921   0.62314   0.27938   0.00000  Uiso   1.00
C273   C     0.42017   0.50081   0.16808   0.00000  Uiso   1.00
C274   C     0.57983   0.49906   0.16533   0.00000  Uiso   1.00
C275   C     0.49971   0.50010   0.07304   0.00000  Uiso   1.00
C276   C     0.50021   0.49990   0.26029   0.00000  Uiso   1.00
C277   C     0.49984   0.50014   0.02184   0.00000  Uiso   1.00
C278   C     0.50004   0.49986   0.31149   0.00000  Uiso   1.00
C279   C     0.35759   0.46681   0.19412   0.00000  Uiso   1.00
C280   C     0.64230   0.53237   0.13805   0.00000  Uiso   1.00
C281   C     0.64823   0.46249   0.18733   0.00000  Uiso   1.00
C282   C     0.35172   0.53642   0.14431   0.00000  Uiso   1.00
C283   C     0.62408   0.49694   0.16211   0.00000  Uiso   1.00
C284   C     0.37585   0.50229   0.17009   0.00000  Uiso   1.00
C285   C     0.52247   0.35637   0.20349   0.00000  Uiso   1.00
C286   C     0.47768   0.64363   0.12969   0.00000  Uiso   1.00
C287   C     0.47662   0.35817   0.13052   0.00000  Uiso   1.00
C288   C     0.52361   0.64183   0.20258   0.00000  Uiso   1.00
N289   N     0.50000   0.61907   0.16667   0.00000  Uiso   1.00
N290   N     0.50000   0.38093   0.16667   0.00000  Uiso   1.00
O291   O     0.43892   0.53821   0.16666   0.00000  Uiso   1.00
O292   O     0.56108   0.46179   0.16667   0.00000  Uiso   1.00
O293   O     0.56108   0.53821   0.16667   0.00000  Uiso   1.00
O294   O     0.43892   0.46179   0.16666   0.00000  Uiso   1.00
O295   O     0.50000   0.53821   0.09511   0.00000  Uiso   1.00
O296   O     0.50000   0.46179   0.23822   0.00000  Uiso   1.00
O297   O     0.50000   0.53821   0.23822   0.00000  Uiso   1.00
O298   O     0.50000   0.46179   0.09511   0.00000  Uiso   1.00
Zn299  Zn    0.50000   0.55104   0.16667   0.00000  Uiso   1.00
Zn300  Zn    0.50000   0.44896   0.16667   0.00000  Uiso   1.00
N301   N     0.38170   0.43946   0.23015   0.00000  Uiso   1.00
H302   H     0.37219   0.44129   0.26628   0.00000  Uiso   1.00
C303   C     0.39380   0.39477   0.21525   0.00000  Uiso   1.00
H304   H     0.37303   0.37006   0.23054   0.00000  Uiso   1.00
H305   H     0.42598   0.38680   0.23074   0.00000  Uiso   1.00
H306   H     0.39302   0.39181   0.17375   0.00000  Uiso   1.00
N307   N     0.61724   0.56322   0.10698   0.00000  Uiso   1.00
H308   H     0.62590   0.59592   0.10779   0.00000  Uiso   1.00
C309   C     0.60669   0.54756   0.05668   0.00000  Uiso   1.00
H310   H     0.63504   0.54436   0.03534   0.00000  Uiso   1.00
H311   H     0.58438   0.57171   0.03678   0.00000  Uiso   1.00
H312   H     0.59188   0.51473   0.05798   0.00000  Uiso   1.00
N313   N     0.62974   0.42334   0.20485   0.00000  Uiso   1.00
H314   H     0.64133   0.41170   0.23963   0.00000  Uiso   1.00
C315   C     0.62571   0.38835   0.16766   0.00000  Uiso   1.00
H316   H     0.65645   0.37733   0.15529   0.00000  Uiso   1.00
H317   H     0.60609   0.40014   0.13408   0.00000  Uiso   1.00
H318   H     0.61111   0.35914   0.18395   0.00000  Uiso   1.00
N319   N     0.37032   0.57495   0.12550   0.00000  Uiso   1.00
H320   H     0.36010   0.58412   0.08930   0.00000  Uiso   1.00
C321   C     0.37125   0.61209   0.16008   0.00000  Uiso   1.00
H322   H     0.33935   0.62287   0.16895   0.00000  Uiso   1.00
H323   H     0.38609   0.64075   0.14300   0.00000  Uiso   1.00
H324   H     0.38940   0.60261   0.19564   0.00000  Uiso   1.00
C325   C     0.54355   0.38032   0.24736   0.00000  Uiso   1.00
H326   H     0.57021   0.36170   0.26659   0.00000  Uiso   1.00
H327   H     0.55692   0.41125   0.23487   0.00000  Uiso   1.00
H328   H     0.52067   0.38751   0.27575   0.00000  Uiso   1.00
C329   C     0.45714   0.61961   0.08553   0.00000  Uiso   1.00
H330   H     0.48056   0.61189   0.05795   0.00000  Uiso   1.00
H331   H     0.44316   0.58901   0.09803   0.00000  Uiso   1.00
H332   H     0.43115   0.63833   0.06513   0.00000  Uiso   1.00
C333   C     0.44848   0.38297   0.09137   0.00000  Uiso   1.00
H334   H     0.41634   0.37120   0.09210   0.00000  Uiso   1.00
H335   H     0.44476   0.41854   0.09757   0.00000  Uiso   1.00
H336   H     0.46005   0.37788   0.05345   0.00000  Uiso   1.00
C337   C     0.55261   0.61711   0.24090   0.00000  Uiso   1.00
H338   H     0.55529   0.58134   0.23574   0.00000  Uiso   1.00
H339   H     0.58478   0.62825   0.23796   0.00000  Uiso   1.00
H340   H     0.54255   0.62314   0.27938   0.00000  Uiso   1.00
C341   C     0.75351   0.50081   0.16808   0.00000  Uiso   1.00
C342   C     0.91317   0.49906   0.16533   0.00000  Uiso   1.00
C343   C     0.83305   0.50010   0.07304   0.00000  Uiso   1.00
C344   C     0.83354   0.49990   0.26029   0.00000  Uiso   1.00
C345   C     0.83317   0.50014   0.02184   0.00000  Uiso   1.00
C346   C     0.83337   0.49986   0.31149   0.00000  Uiso   1.00
C347   C     0.69093   0.46681   0.19412   0.00000  Uiso   1.00
C348   C     0.97563   0.53237   0.13805   0.00000  Uiso   1.00
C349   C     0.98156   0.46249   0.18733   0.00000  Uiso   1.00
C350   C     0.68505   0.53642   0.14431   0.00000  Uiso   1.00
C351   C     0.95741   0.49694   0.16211   0.00000  Uiso   1.00
C352   C     0.70918   0.50229   0.17009   0.00000  Uiso   1.00
C353   C     0.85581   0.35637   0.20349   0.00000  Uiso   1.00
C354   C     0.81101   0.64363   0.12969   0.00000  Uiso   1.00
C355   C     0.80995   0.35817   0.13052   0.00000  Uiso   1.00
C356   C     0.85694   0.64183   0.20258   0.00000  Uiso   1.00
N357   N     0.83333   0.61907   0.16667   0.00000  Uiso   1.00
N358   N     0.83333   0.38093   0.16667   0.00000  Uiso   1.00
O359   O     0.77226   0.53821   0.16666   0.00000  Uiso   1.00
O360   O     0.89441   0.46179   0.16667   0.00000  Uiso   1.00
O361   O     0.89441   0.53821   0.16667   0.00000  Uiso   1.00
O362   O     0.77226   0.46179   0.16666   0.00000  Uiso   1.00
O363   O     0.83334   0.53821   0.09511   0.00000  Uiso   1.00
O364   O     0.83333   0.46179   0.23822   0.00000  Uiso   1.00
O365   O     0.83333   0.53821   0.23822   0.00000  Uiso   1.00
O366   O     0.83334   0.46179   0.09511   0.00000  Uiso   1.00
Zn367  Zn    0.83333   0.55104   0.16667   0.00000  Uiso   1.00
Zn368  Zn    0.83333   0.44896   0.16667   0.00000  Uiso   1.00
N369   N     0.71504   0.43946   0.23015   0.00000  Uiso   1.00
H370   H     0.70552   0.44129   0.26628   0.00000  Uiso   1.00
C371   C     0.72714   0.39477   0.21525   0.00000  Uiso   1.00
H372   H     0.70636   0.37006   0.23054   0.00000  Uiso   1.00
H373   H     0.75932   0.38680   0.23074   0.00000  Uiso   1.00
H374   H     0.72636   0.39181   0.17375   0.00000  Uiso   1.00
N375   N     0.95057   0.56322   0.10698   0.00000  Uiso   1.00
H376   H     0.95924   0.59592   0.10779   0.00000  Uiso   1.00
C377   C     0.94003   0.54756   0.05668   0.00000  Uiso   1.00
H378   H     0.96837   0.54436   0.03534   0.00000  Uiso   1.00
H379   H     0.91771   0.57171   0.03678   0.00000  Uiso   1.00
H380   H     0.92521   0.51473   0.05798   0.00000  Uiso   1.00
N381   N     0.96307   0.42334   0.20485   0.00000  Uiso   1.00
H382   H     0.97466   0.41170   0.23963   0.00000  Uiso   1.00
C383   C     0.95904   0.38835   0.16766   0.00000  Uiso   1.00
H384   H     0.98978   0.37733   0.15529   0.00000  Uiso   1.00
H385   H     0.93943   0.40014   0.13408   0.00000  Uiso   1.00
H386   H     0.94444   0.35914   0.18395   0.00000  Uiso   1.00
N387   N     0.70365   0.57495   0.12550   0.00000  Uiso   1.00
H388   H     0.69343   0.58412   0.08930   0.00000  Uiso   1.00
C389   C     0.70458   0.61209   0.16008   0.00000  Uiso   1.00
H390   H     0.67268   0.62287   0.16895   0.00000  Uiso   1.00
H391   H     0.71942   0.64075   0.14300   0.00000  Uiso   1.00
H392   H     0.72274   0.60261   0.19564   0.00000  Uiso   1.00
C393   C     0.87689   0.38032   0.24736   0.00000  Uiso   1.00
H394   H     0.90354   0.36170   0.26659   0.00000  Uiso   1.00
H395   H     0.89025   0.41125   0.23487   0.00000  Uiso   1.00
H396   H     0.85400   0.38751   0.27575   0.00000  Uiso   1.00
C397   C     0.79047   0.61961   0.08553   0.00000  Uiso   1.00
H398   H     0.81389   0.61189   0.05795   0.00000  Uiso   1.00
H399   H     0.77649   0.58901   0.09803   0.00000  Uiso   1.00
H400   H     0.76448   0.63833   0.06513   0.00000  Uiso   1.00
C401   C     0.78181   0.38297   0.09137   0.00000  Uiso   1.00
H402   H     0.74967   0.37120   0.09210   0.00000  Uiso   1.00
H403   H     0.77810   0.41854   0.09757   0.00000  Uiso   1.00
H404   H     0.79339   0.37788   0.05345   0.00000  Uiso   1.00
C405   C     0.88594   0.61711   0.24090   0.00000  Uiso   1.00
H406   H     0.88862   0.58134   0.23574   0.00000  Uiso   1.00
H407   H     0.91812   0.62825   0.23796   0.00000  Uiso   1.00
H408   H     0.87588   0.62314   0.27938   0.00000  Uiso   1.00
C409   C     0.08684   0.83414   0.16808   0.00000  Uiso   1.00
C410   C     0.24650   0.83240   0.16533   0.00000  Uiso   1.00
C411   C     0.16638   0.83344   0.07304   0.00000  Uiso   1.00
C412   C     0.16688   0.83323   0.26029   0.00000  Uiso   1.00
C413   C     0.16651   0.83347   0.02184   0.00000  Uiso   1.00
C414   C     0.16670   0.83320   0.31149   0.00000  Uiso   1.00
C415   C     0.02426   0.80014   0.19412   0.00000  Uiso   1.00
C416   C     0.30896   0.86570   0.13805   0.00000  Uiso   1.00
C417   C     0.31489   0.79582   0.18733   0.00000  Uiso   1.00
C418   C     0.01838   0.86975   0.14431   0.00000  Uiso   1.00
C419   C     0.29074   0.83027   0.16211   0.00000  Uiso   1.00
C420   C     0.04252   0.83562   0.17009   0.00000  Uiso   1.00
C421   C     0.18914   0.68970   0.20349   0.00000  Uiso   1.00
C422   C     0.14435   0.97696   0.12969   0.00000  Uiso   1.00
C423   C     0.14329   0.69150   0.13052   0.00000  Uiso   1.00
C424   C     0.19028   0.97516   0.20258   0.00000  Uiso   1.00
N425   N     0.16667   0.95240   0.16667   0.00000  Uiso   1.00
N426   N     0.16667   0.71427   0.16667   0.00000  Uiso   1.00
O427   O     0.10559   0.87154   0.16666   0.00000  Uiso   1.00
O428   O     0.22774   0.79513   0.16667   0.00000  Uiso   1.00
O429   O     0.22774   0.87154   0.16667   0.00000  Uiso   1.00
O430   O     0.10559   0.79513   0.16666   0.00000  Uiso   1.00
O431   O     0.16667   0.87155   0.09511   0.00000  Uiso   1.00
O432   O     0.16666   0.79512   0.23822   0.00000  Uiso   1.00
O433   O     0.16666   0.87155   0.23822   0.00000  Uiso   1.00
O434   O     0.16667   0.79512   0.09511   0.00000  Uiso   1.00
Zn435  Zn    0.16667   0.88437   0.16667   0.00000  Uiso   1.00
Zn436  Zn    0.16667   0.78229   0.16667   0.00000  Uiso   1.00
N437   N     0.04837   0.77279   0.23015   0.00000  Uiso   1.00
H438   H     0.03885   0.77462   0.26628   0.00000  Uiso   1.00
C439   C     0.06047   0.72811   0.21525   0.00000  Uiso   1.00
H440   H     0.03969   0.70340   0.23054   0.00000  Uiso   1.00
H441   H     0.09265   0.72014   0.23074   0.00000  Uiso   1.00
H442   H     0.05969   0.72514   0.17375   0.00000  Uiso   1.00
N443   N     0.28391   0.89655   0.10698   0.00000  Uiso   1.00
H444   H     0.29257   0.92925   0.10779   0.00000  Uiso   1.00
C445   C     0.27336   0.88089   0.05668   0.00000  Uiso   1.00
H446   H     0.30170   0.87769   0.03534   0.00000  Uiso   1.00
H447   H     0.25104   0.90505   0.03678   0.00000  Uiso   1.00
H448   H     0.25855   0.84806   0.05798   0.00000  Uiso   1.00
N449   N     0.29640   0.75667   0.20485   0.00000  Uiso   1.00
H450   H     0.30799   0.74504   0.23963   0.00000  Uiso   1.00
C451   C     0.29237   0.72168   0.16766   0.00000  Uiso   1.00
H452   H     0.32311   0.71066   0.15529   0.00000  Uiso   1.00
H453   H     0.27276   0.73348   0.13408   0.00000  Uiso   1.00
H454   H     0.27778   0.69248   0.18395   0.00000  Uiso   1.00
N455   N     0.03699   0.90828   0.12550   0.00000  Uiso   1.00
H456   H     0.02676   0.91745   0.08930   0.00000  Uiso   1.00
C457   C     0.03791   0.94542   0.16008   0.00000  Uiso   1.00
H458   H     0.00601   0.95621   0.16895   0.00000  Uiso   1.00
H459   H     0.05276   0.97409   0.14300   0.00000  Uiso   1.00
H460   H     0.05607   0.93595   0.19564   0.00000  Uiso   1.00
C461   C     0.21022   0.71365   0.24736   0.00000  Uiso   1.00
H462   H     0.23687   0.69504   0.26659   0.00000  Uiso   1.00
H463   H     0.22358   0.74458   0.23487   0.00000  Uiso   1.00
H464   H     0.18734   0.72084   0.27575   0.00000  Uiso   1.00
C465   C     0.12381   0.95294   0.08553   0.00000  Uiso   1.00
H466   H     0.14723   0.94522   0.05795   0.00000  Uiso   1.00
H467   H     0.10983   0.92235   0.09803   0.00000  Uiso   1.00
H468   H     0.09781   0.97167   0.06513   0.00000  Uiso   1.00
C469   C     0.11514   0.71630   0.09137   0.00000  Uiso   1.00
H470   H     0.08300   0.70454   0.09210   0.00000  Uiso   1.00
H471   H     0.11143   0.75187   0.09757   0.00000  Uiso   1.00
H472   H     0.12672   0.71122   0.05345   0.00000  Uiso   1.00
C473   C     0.21927   0.95044   0.24090   0.00000  Uiso   1.00
H474   H     0.22196   0.91467   0.23574   0.00000  Uiso   1.00
H475   H     0.25145   0.96158   0.23796   0.00000  Uiso   1.00
H476   H     0.20921   0.95648   0.27938   0.00000  Uiso   1.00
C477   C     0.42017   0.83414   0.16808   0.00000  Uiso   1.00
C478   C     0.57983   0.83240   0.16533   0.00000  Uiso   1.00
C479   C     0.49971   0.83344   0.07304   0.00000  Uiso   1.00
C480   C     0.50021   0.83323   0.26029   0.00000  Uiso   1.00
C481   C     0.49984   0.83347   0.02184   0.00000  Uiso   1.00
C482   C     0.50004   0.83320   0.31149   0.00000  Uiso   1.00
C483   C     0.35759   0.80014   0.19412   0.00000  Uiso   1.00
C484   C     0.64230   0.86570   0.13805   0.00000  Uiso   1.00
C485   C     0.64823   0.79582   0.18733   0.00000  Uiso   1.00
C486   C     0.35172   0.86975   0.14431   0.00000  Uiso   1.00
C487   C     0.62408   0.83027   0.16211   0.00000  Uiso   1.00
C488   C     0.37585   0.83562   0.17009   0.00000  Uiso   1.00
C489   C     0.52247   0.68970   0.20349   0.00000  Uiso   1.00
C490   C     0.47768   0.97696   0.12969   0.00000  Uiso   1.00
C491   C     0.47662   0.69150   0.13052   0.00000  Uiso   1.00
C492   C     0.52361   0.97516   0.20258   0.00000  Uiso   1.00
N493   N     0.50000   0.95240   0.16667   0.00000  Uiso   1.00
N494   N     0.50000   0.71427   0.16667   0.00000  Uiso   1.00
O495   O     0.43892   0.87154   0.16666   0.00000  Uiso   1.00
O496   O     0.56108   0.79513   0.16667   0.00000  Uiso   1.00
O497   O     0.56108   0.87154   0.16667   0.00000  Uiso   1.00
O498   O     0.43892   0.79513   0.16666   0.00000  Uiso   1.00
O499   O     0.50000   0.87155   0.09511   0.00000  Uiso   1.00
O500   O     0.50000   0.79512   0.23822   0.00000  Uiso   1.00
O501   O     0.50000   0.87155   0.23822   0.00000  Uiso   1.00
O502   O     0.50000   0.79512   0.09511   0.00000  Uiso   1.00
Zn503  Zn    0.50000   0.88437   0.16667   0.00000  Uiso   1.00
Zn504  Zn    0.50000   0.78229   0.16667   0.00000  Uiso   1.00
N505   N     0.38170   0.77279   0.23015   0.00000  Uiso   1.00
H506   H     0.37219   0.77462   0.26628   0.00000  Uiso   1.00
C507   C     0.39380   0.72811   0.21525   0.00000  Uiso   1.00
H508   H     0.37303   0.70340   0.23054   0.00000  Uiso   1.00
H509   H     0.42598   0.72014   0.23074   0.00000  Uiso   1.00
H510   H     0.39302   0.72514   0.17375   0.00000  Uiso   1.00
N511   N     0.61724   0.89655   0.10698   0.00000  Uiso   1.00
H512   H     0.62590   0.92925   0.10779   0.00000  Uiso   1.00
C513   C     0.60669   0.88089   0.05668   0.00000  Uiso   1.00
H514   H     0.63504   0.87769   0.03534   0.00000  Uiso   1.00
H515   H     0.58438   0.90505   0.03678   0.00000  Uiso   1.00
H516   H     0.59188   0.84806   0.05798   0.00000  Uiso   1.00
N517   N     0.62974   0.75667   0.20485   0.00000  Uiso   1.00
H518   H     0.64133   0.74504   0.23963   0.00000  Uiso   1.00
C519   C     0.62571   0.72168   0.16766   0.00000  Uiso   1.00
H520   H     0.65645   0.71066   0.15529   0.00000  Uiso   1.00
H521   H     0.60609   0.73348   0.13408   0.00000  Uiso   1.00
H522   H     0.61111   0.69248   0.18395   0.00000  Uiso   1.00
N523   N     0.37032   0.90828   0.12550   0.00000  Uiso   1.00
H524   H     0.36010   0.91745   0.08930   0.00000  Uiso   1.00
C525   C     0.37125   0.94542   0.16008   0.00000  Uiso   1.00
H526   H     0.33935   0.95621   0.16895   0.00000  Uiso   1.00
H527   H     0.38609   0.97409   0.14300   0.00000  Uiso   1.00
H528   H     0.38940   0.93595   0.19564   0.00000  Uiso   1.00
C529   C     0.54355   0.71365   0.24736   0.00000  Uiso   1.00
H530   H     0.57021   0.69504   0.26659   0.00000  Uiso   1.00
H531   H     0.55692   0.74458   0.23487   0.00000  Uiso   1.00
H532   H     0.52067   0.72084   0.27575   0.00000  Uiso   1.00
C533   C     0.45714   0.95294   0.08553   0.00000  Uiso   1.00
H534   H     0.48056   0.94522   0.05795   0.00000  Uiso   1.00
H535   H     0.44316   0.92235   0.09803   0.00000  Uiso   1.00
H536   H     0.43115   0.97167   0.06513   0.00000  Uiso   1.00
C537   C     0.44848   0.71630   0.09137   0.00000  Uiso   1.00
H538   H     0.41634   0.70454   0.09210   0.00000  Uiso   1.00
H539   H     0.44476   0.75187   0.09757   0.00000  Uiso   1.00
H540   H     0.46005   0.71122   0.05345   0.00000  Uiso   1.00
C541   C     0.55261   0.95044   0.24090   0.00000  Uiso   1.00
H542   H     0.55529   0.91467   0.23574   0.00000  Uiso   1.00
H543   H     0.58478   0.96158   0.23796   0.00000  Uiso   1.00
H544   H     0.54255   0.95648   0.27938   0.00000  Uiso   1.00
C545   C     0.75351   0.83414   0.16808   0.00000  Uiso   1.00
C546   C     0.91317   0.83240   0.16533   0.00000  Uiso   1.00
C547   C     0.83305   0.83344   0.07304   0.00000  Uiso   1.00
C548   C     0.83354   0.83323   0.26029   0.00000  Uiso   1.00
C549   C     0.83317   0.83347   0.02184   0.00000  Uiso   1.00
C550   C     0.83337   0.83320   0.31149   0.00000  Uiso   1.00
C551   C     0.69093   0.80014   0.19412   0.00000  Uiso   1.00
C552   C     0.97563   0.86570   0.13805   0.00000  Uiso   1.00
C553   C     0.98156   0.79582   0.18733   0.00000  Uiso   1.00
C554   C     0.68505   0.86975   0.14431   0.00000  Uiso   1.00
C555   C     0.95741   0.83027   0.16211   0.00000  Uiso   1.00
C556   C     0.70918   0.83562   0.17009   0.00000  Uiso   1.00
C557   C     0.85581   0.68970   0.20349   0.00000  Uiso   1.00
C558   C     0.81101   0.97696   0.12969   0.00000  Uiso   1.00
C559   C     0.80995   0.69150   0.13052   0.00000  Uiso   1.00
C560   C     0.85694   0.97516   0.20258   0.00000  Uiso   1.00
N561   N     0.83333   0.95240   0.16667   0.00000  Uiso   1.00
N562   N     0.83333   0.71427   0.16667   0.00000  Uiso   1.00
O563   O     0.77226   0.87154   0.16666   0.00000  Uiso   1.00
O564   O     0.89441   0.79513   0.16667   0.00000  Uiso   1.00
O565   O     0.89441   0.87154   0.16667   0.00000  Uiso   1.00
O566   O     0.77226   0.79513   0.16666   0.00000  Uiso   1.00
O567   O     0.83334   0.87155   0.09511   0.00000  Uiso   1.00
O568   O     0.83333   0.79512   0.23822   0.00000  Uiso   1.00
O569   O     0.83333   0.87155   0.23822   0.00000  Uiso   1.00
O570   O     0.83334   0.79512   0.09511   0.00000  Uiso   1.00
Zn571  Zn    0.83333   0.88437   0.16667   0.00000  Uiso   1.00
Zn572  Zn    0.83333   0.78229   0.16667   0.00000  Uiso   1.00
N573   N     0.71504   0.77279   0.23015   0.00000  Uiso   1.00
H574   H     0.70552   0.77462   0.26628   0.00000  Uiso   1.00
C575   C     0.72714   0.72811   0.21525   0.00000  Uiso   1.00
H576   H     0.70636   0.70340   0.23054   0.00000  Uiso   1.00
H577   H     0.75932   0.72014   0.23074   0.00000  Uiso   1.00
H578   H     0.72636   0.72514   0.17375   0.00000  Uiso   1.00
N579   N     0.95057   0.89655   0.10698   0.00000  Uiso   1.00
H580   H     0.95924   0.92925   0.10779   0.00000  Uiso   1.00
C581   C     0.94003   0.88089   0.05668   0.00000  Uiso   1.00
H582   H     0.96837   0.87769   0.03534   0.00000  Uiso   1.00
H583   H     0.91771   0.90505   0.03678   0.00000  Uiso   1.00
H584   H     0.92521   0.84806   0.05798   0.00000  Uiso   1.00
N585   N     0.96307   0.75667   0.20485   0.00000  Uiso   1.00
H586   H     0.97466   0.74504   0.23963   0.00000  Uiso   1.00
C587   C     0.95904   0.72168   0.16766   0.00000  Uiso   1.00
H588   H     0.98978   0.71066   0.15529   0.00000  Uiso   1.00
H589   H     0.93943   0.73348   0.13408   0.00000  Uiso   1.00
H590   H     0.94444   0.69248   0.18395   0.00000  Uiso   1.00
N591   N     0.70365   0.90828   0.12550   0.00000  Uiso   1.00
H592   H     0.69343   0.91745   0.08930   0.00000  Uiso   1.00
C593   C     0.70458   0.94542   0.16008   0.00000  Uiso   1.00
H594   H     0.67268   0.95621   0.16895   0.00000  Uiso   1.00
H595   H     0.71942   0.97409   0.14300   0.00000  Uiso   1.00
H596   H     0.72274   0.93595   0.19564   0.00000  Uiso   1.00
C597   C     0.87689   0.71365   0.24736   0.00000  Uiso   1.00
H598   H     0.90354   0.69504   0.26659   0.00000  Uiso   1.00
H599   H     0.89025   0.74458   0.23487   0.00000  Uiso   1.00
H600   H     0.85400   0.72084   0.27575   0.00000  Uiso   1.00
C601   C     0.79047   0.95294   0.08553   0.00000  Uiso   1.00
H602   H     0.81389   0.94522   0.05795   0.00000  Uiso   1.00
H603   H     0.77649   0.92235   0.09803   0.00000  Uiso   1.00
H604   H     0.76448   0.97167   0.06513   0.00000  Uiso   1.00
C605   C     0.78181   0.71630   0.09137   0.00000  Uiso   1.00
H606   H     0.74967   0.70454   0.09210   0.00000  Uiso   1.00
H607   H     0.77810   0.75187   0.09757   0.00000  Uiso   1.00
H608   H     0.79339   0.71122   0.05345   0.00000  Uiso   1.00
C609   C     0.88594   0.95044   0.24090   0.00000  Uiso   1.00
H610   H     0.88862   0.91467   0.23574   0.00000  Uiso   1.00
H611   H     0.91812   0.96158   0.23796   0.00000  Uiso   1.00
H612   H     0.87588   0.95648   0.27938   0.00000  Uiso   1.00
C613   C     0.08684   0.16748   0.50142   0.00000  Uiso   1.00
C614   C     0.24650   0.16573   0.49867   0.00000  Uiso   1.00
C615   C     0.16638   0.16677   0.40637   0.00000  Uiso   1.00
C616   C     0.16688   0.16657   0.59362   0.00000  Uiso   1.00
C617   C     0.16651   0.16681   0.35517   0.00000  Uiso   1.00
C618   C     0.16670   0.16653   0.64482   0.00000  Uiso   1.00
C619   C     0.02426   0.13347   0.52746   0.00000  Uiso   1.00
C620   C     0.30896   0.19903   0.47139   0.00000  Uiso   1.00
C621   C     0.31489   0.12916   0.52066   0.00000  Uiso   1.00
C622   C     0.01838   0.20309   0.47764   0.00000  Uiso   1.00
C623   C     0.29074   0.16361   0.49544   0.00000  Uiso   1.00
C624   C     0.04252   0.16896   0.50342   0.00000  Uiso   1.00
C625   C     0.18914   0.02303   0.53683   0.00000  Uiso   1.00
C626   C     0.14435   0.31030   0.46303   0.00000  Uiso   1.00
C627   C     0.14329   0.02483   0.46385   0.00000  Uiso   1.00
C628   C     0.19028   0.30850   0.53591   0.00000  Uiso   1.00
N629   N     0.16667   0.28573   0.50000   0.00000  Uiso   1.00
N630   N     0.16667   0.04760   0.50000   0.00000  Uiso   1.00
O631   O     0.10559   0.20487   0.50000   0.00000  Uiso   1.00
O632   O     0.22774   0.12846   0.50000   0.00000  Uiso   1.00
O633   O     0.22774   0.20487   0.50000   0.00000  Uiso   1.00
O634   O     0.10559   0.12846   0.50000   0.00000  Uiso   1.00
O635   O     0.16667   0.20488   0.42845   0.00000  Uiso   1.00
O636   O     0.16666   0.12845   0.57155   0.00000  Uiso   1.00
O637   O     0.16666   0.20488   0.57155   0.00000  Uiso   1.00
O638   O     0.16667   0.12845   0.42845   0.00000  Uiso   1.00
Zn639  Zn    0.16667   0.21771   0.50000   0.00000  Uiso   1.00
Zn640  Zn    0.16667   0.11563   0.50000   0.00000  Uiso   1.00
N641   N     0.04837   0.10613   0.56349   0.00000  Uiso   1.00
H642   H     0.03885   0.10795   0.59961   0.00000  Uiso   1.00
C643   C     0.06047   0.06144   0.54858   0.00000  Uiso   1.00
H644   H     0.03969   0.03673   0.56387   0.00000  Uiso   1.00
H645   H     0.09265   0.05347   0.56407   0.00000  Uiso   1.00
H646   H     0.05969   0.05847   0.50709   0.00000  Uiso   1.00
N647   N     0.28391   0.22988   0.44032   0.00000  Uiso   1.00
H648   H     0.29257   0.26259   0.44112   0.00000  Uiso   1.00
C649   C     0.27336   0.21422   0.39001   0.00000  Uiso   1.00
H650   H     0.30170   0.21102   0.36868   0.00000  Uiso   1.00
H651   H     0.25104   0.23838   0.37011   0.00000  Uiso   1.00
H652   H     0.25855   0.18140   0.39131   0.00000  Uiso   1.00
N653   N     0.29640   0.09001   0.53819   0.00000  Uiso   1.00
H654   H     0.30799   0.07837   0.57296   0.00000  Uiso   1.00
C655   C     0.29237   0.05502   0.50099   0.00000  Uiso   1.00
H656   H     0.32311   0.04400   0.48862   0.00000  Uiso   1.00
H657   H     0.27276   0.06681   0.46742   0.00000  Uiso   1.00
H658   H     0.27778   0.02581   0.51728   0.00000  Uiso   1.00
N659   N     0.03699   0.24162   0.45883   0.00000  Uiso   1.00
H660   H     0.02676   0.25078   0.42263   0.00000  Uiso   1.00
C661   C     0.03791   0.27875   0.49341   0.00000  Uiso   1.00
H662   H     0.00601   0.28954   0.50229   0.00000  Uiso   1.00
H663   H     0.05276   0.30742   0.47633   0.00000  Uiso   1.00
H664   H     0.05607   0.26928   0.52897   0.00000  Uiso   1.00
C665   C     0.21022   0.04699   0.58070   0.00000  Uiso   1.00
H666   H     0.23687   0.02837   0.59993   0.00000  Uiso   1.00
H667   H     0.22358   0.07791   0.56820   0.00000  Uiso   1.00
H668   H     0.18734   0.05417   0.60908   0.00000  Uiso   1.00
C669   C     0.12381   0.28627   0.41886   0.00000  Uiso   1.00
H670   H     0.14723   0.27855   0.39128   0.00000  Uiso   1.00
H671   H     0.10983   0.25568   0.43136   0.00000  Uiso   1.00
H672   H     0.09781   0.30500   0.39846   0.00000  Uiso   1.00
C673   C     0.11514   0.04964   0.42471   0.00000  Uiso   1.00
H674   H     0.08300   0.03787   0.42544   0.00000  Uiso   1.00
H675   H     0.11143   0.08521   0.43090   0.00000  Uiso   1.00
H676   H     0.12672   0.04455   0.38678   0.00000  Uiso   1.00
C677   C     0.21927   0.28377   0.57423   0.00000  Uiso   1.00
H678   H     0.22196   0.24800   0.56907   0.00000  Uiso   1.00
H679   H     0.25145   0.29492   0.57130   0.00000  Uiso   1.00
H680   H     0.20921   0.28981   0.61272   0.00000  Uiso   1.00
C681   C     0.42017   0.16748   0.50142   0.00000  Uiso   1.00
C682   C     0.57983   0.16573   0.49867   0.00000  Uiso   1.00
C683   C     0.49971   0.16677   0.40637   0.00000  Uiso   1.00
C684   C     0.50021   0.16657   0.59362   0.00000  Uiso   1.00
C685   C     0.49984   0.16681   0.35517   0.00000  Uiso   1.00
C686   C     0.50004   0.16653   0.64482   0.00000  Uiso   1.00
C687   C     0.35759   0.13347   0.52746   0.00000  Uiso   1.00
C688   C     0.64230   0.19903   0.47139   0.00000  Uiso   1.00
C689   C     0.64823   0.12916   0.52066   0.00000  Uiso   1.00
C690   C     0.35172   0.20309   0.47764   0.00000  Uiso   1.00
C691   C     0.62408   0.16361   0.49544   0.00000  Uiso   1.00
C692   C     0.37585   0.16896   0.50342   0.00000  Uiso   1.00
C693   C     0.52247   0.02303   0.53683   0.00000  Uiso   1.00
C694   C     0.47768   0.31030   0.46303   0.00000  Uiso   1.00
C695   C     0.47662   0.02483   0.46385   0.00000  Uiso   1.00
C696   C     0.52361   0.30850   0.53591   0.00000  Uiso   1.00
N697   N     0.50000   0.28573   0.50000   0.00000  Uiso   1.00
N698   N     0.50000   0.04760   0.50000   0.00000  Uiso   1.00
O699   O     0.43892   0.20487   0.50000   0.00000  Uiso   1.00
O700   O     0.56108   0.12846   0.50000   0.00000  Uiso   1.00
O701   O     0.56108   0.20487   0.50000   0.00000  Uiso   1.00
O702   O     0.43892   0.12846   0.50000   0.00000  Uiso   1.00
O703   O     0.50000   0.20488   0.42845   0.00000  Uiso   1.00
O704   O     0.50000   0.12845   0.57155   0.00000  Uiso   1.00
O705   O     0.50000   0.20488   0.57155   0.00000  Uiso   1.00
O706   O     0.50000   0.12845   0.42845   0.00000  Uiso   1.00
Zn707  Zn    0.50000   0.21771   0.50000   0.00000  Uiso   1.00
Zn708  Zn    0.50000   0.11563   0.50000   0.00000  Uiso   1.00
N709   N     0.38170   0.10613   0.56349   0.00000  Uiso   1.00
H710   H     0.37219   0.10795   0.59961   0.00000  Uiso   1.00
C711   C     0.39380   0.06144   0.54858   0.00000  Uiso   1.00
H712   H     0.37303   0.03673   0.56387   0.00000  Uiso   1.00
H713   H     0.42598   0.05347   0.56407   0.00000  Uiso   1.00
H714   H     0.39302   0.05847   0.50709   0.00000  Uiso   1.00
N715   N     0.61724   0.22988   0.44032   0.00000  Uiso   1.00
H716   H     0.62590   0.26259   0.44112   0.00000  Uiso   1.00
C717   C     0.60669   0.21422   0.39001   0.00000  Uiso   1.00
H718   H     0.63504   0.21102   0.36868   0.00000  Uiso   1.00
H719   H     0.58438   0.23838   0.37011   0.00000  Uiso   1.00
H720   H     0.59188   0.18140   0.39131   0.00000  Uiso   1.00
N721   N     0.62974   0.09001   0.53819   0.00000  Uiso   1.00
H722   H     0.64133   0.07837   0.57296   0.00000  Uiso   1.00
C723   C     0.62571   0.05502   0.50099   0.00000  Uiso   1.00
H724   H     0.65645   0.04400   0.48862   0.00000  Uiso   1.00
H725   H     0.60609   0.06681   0.46742   0.00000  Uiso   1.00
H726   H     0.61111   0.02581   0.51728   0.00000  Uiso   1.00
N727   N     0.37032   0.24162   0.45883   0.00000  Uiso   1.00
H728   H     0.36010   0.25078   0.42263   0.00000  Uiso   1.00
C729   C     0.37125   0.27875   0.49341   0.00000  Uiso   1.00
H730   H     0.33935   0.28954   0.50229   0.00000  Uiso   1.00
H731   H     0.38609   0.30742   0.47633   0.00000  Uiso   1.00
H732   H     0.38940   0.26928   0.52897   0.00000  Uiso   1.00
C733   C     0.54355   0.04699   0.58070   0.00000  Uiso   1.00
H734   H     0.57021   0.02837   0.59993   0.00000  Uiso   1.00
H735   H     0.55692   0.07791   0.56820   0.00000  Uiso   1.00
H736   H     0.52067   0.05417   0.60908   0.00000  Uiso   1.00
C737   C     0.45714   0.28627   0.41886   0.00000  Uiso   1.00
H738   H     0.48056   0.27855   0.39128   0.00000  Uiso   1.00
H739   H     0.44316   0.25568   0.43136   0.00000  Uiso   1.00
H740   H     0.43115   0.30500   0.39846   0.00000  Uiso   1.00
C741   C     0.44848   0.04964   0.42471   0.00000  Uiso   1.00
H742   H     0.41634   0.03787   0.42544   0.00000  Uiso   1.00
H743   H     0.44476   0.08521   0.43090   0.00000  Uiso   1.00
H744   H     0.46005   0.04455   0.38678   0.00000  Uiso   1.00
C745   C     0.55261   0.28377   0.57423   0.00000  Uiso   1.00
H746   H     0.55529   0.24800   0.56907   0.00000  Uiso   1.00
H747   H     0.58478   0.29492   0.57130   0.00000  Uiso   1.00
H748   H     0.54255   0.28981   0.61272   0.00000  Uiso   1.00
C749   C     0.75351   0.16748   0.50142   0.00000  Uiso   1.00
C750   C     0.91317   0.16573   0.49867   0.00000  Uiso   1.00
C751   C     0.83305   0.16677   0.40637   0.00000  Uiso   1.00
C752   C     0.83354   0.16657   0.59362   0.00000  Uiso   1.00
C753   C     0.83317   0.16681   0.35517   0.00000  Uiso   1.00
C754   C     0.83337   0.16653   0.64482   0.00000  Uiso   1.00
C755   C     0.69093   0.13347   0.52746   0.00000  Uiso   1.00
C756   C     0.97563   0.19903   0.47139   0.00000  Uiso   1.00
C757   C     0.98156   0.12916   0.52066   0.00000  Uiso   1.00
C758   C     0.68505   0.20309   0.47764   0.00000  Uiso   1.00
C759   C     0.95741   0.16361   0.49544   0.00000  Uiso   1.00
C760   C     0.70918   0.16896   0.50342   0.00000  Uiso   1.00
C761   C     0.85581   0.02303   0.53683   0.00000  Uiso   1.00
C762   C     0.81101   0.31030   0.46303   0.00000  Uiso   1.00
C763   C     0.80995   0.02483   0.46385   0.00000  Uiso   1.00
C764   C     0.85694   0.30850   0.53591   0.00000  Uiso   1.00
N765   N     0.83333   0.28573   0.50000   0.00000  Uiso   1.00
N766   N     0.83333   0.04760   0.50000   0.00000  Uiso   1.00
O767   O     0.77226   0.20487   0.50000   0.00000  Uiso   1.00
O768   O     0.89441   0.12846   0.50000   0.00000  Uiso   1.00
O769   O     0.89441   0.20487   0.50000   0.00000  Uiso   1.00
O770   O     0.77226   0.12846   0.50000   0.00000  Uiso   1.00
O771   O     0.83334   0.20488   0.42845   0.00000  Uiso   1.00
O772   O     0.83333   0.12845   0.57155   0.00000  Uiso   1.00
O773   O     0.83333   0.20488   0.57155   0.00000  Uiso   1.00
O774   O     0.83334   0.12845   0.42845   0.00000  Uiso   1.00
Zn775  Zn    0.83333   0.21771   0.50000   0.00000  Uiso   1.00
Zn776  Zn    0.83333   0.11563   0.50000   0.00000  Uiso   1.00
N777   N     0.71504   0.10613   0.56349   0.00000  Uiso   1.00
H778   H     0.70552   0.10795   0.59961   0.00000  Uiso   1.00
C779   C     0.72714   0.06144   0.54858   0.00000  Uiso   1.00
H780   H     0.70636   0.03673   0.56387   0.00000  Uiso   1.00
H781   H     0.75932   0.05347   0.56407   0.00000  Uiso   1.00
H782   H     0.72636   0.05847   0.50709   0.00000  Uiso   1.00
N783   N     0.95057   0.22988   0.44032   0.00000  Uiso   1.00
H784   H     0.95924   0.26259   0.44112   0.00000  Uiso   1.00
C785   C     0.94003   0.21422   0.39001   0.00000  Uiso   1.00
H786   H     0.96837   0.21102   0.36868   0.00000  Uiso   1.00
H787   H     0.91771   0.23838   0.37011   0.00000  Uiso   1.00
H788   H     0.92521   0.18140   0.39131   0.00000  Uiso   1.00
N789   N     0.96307   0.09001   0.53819   0.00000  Uiso   1.00
H790   H     0.97466   0.07837   0.57296   0.00000  Uiso   1.00
C791   C     0.95904   0.05502   0.50099   0.00000  Uiso   1.00
H792   H     0.98978   0.04400   0.48862   0.00000  Uiso   1.00
H793   H     0.93943   0.06681   0.46742   0.00000  Uiso   1.00
H794   H     0.94444   0.02581   0.51728   0.00000  Uiso   1.00
N795   N     0.70365   0.24162   0.45883   0.00000  Uiso   1.00
H796   H     0.69343   0.25078   0.42263   0.00000  Uiso   1.00
C797   C     0.70458   0.27875   0.49341   0.00000  Uiso   1.00
H798   H     0.67268   0.28954   0.50229   0.00000  Uiso   1.00
H799   H     0.71942   0.30742   0.47633   0.00000  Uiso   1.00
H800   H     0.72274   0.26928   0.52897   0.00000  Uiso   1.00
C801   C     0.87689   0.04699   0.58070   0.00000  Uiso   1.00
H802   H     0.90354   0.02837   0.59993   0.00000  Uiso   1.00
H803   H     0.89025   0.07791   0.56820   0.00000  Uiso   1.00
H804   H     0.85400   0.05417   0.60908   0.00000  Uiso   1.00
C805   C     0.79047   0.28627   0.41886   0.00000  Uiso   1.00
H806   H     0.81389   0.27855   0.39128   0.00000  Uiso   1.00
H807   H     0.77649   0.25568   0.43136   0.00000  Uiso   1.00
H808   H     0.76448   0.30500   0.39846   0.00000  Uiso   1.00
C809   C     0.78181   0.04964   0.42471   0.00000  Uiso   1.00
H810   H     0.74967   0.03787   0.42544   0.00000  Uiso   1.00
H811   H     0.77810   0.08521   0.43090   0.00000  Uiso   1.00
H812   H     0.79339   0.04455   0.38678   0.00000  Uiso   1.00
C813   C     0.88594   0.28377   0.57423   0.00000  Uiso   1.00
H814   H     0.88862   0.24800   0.56907   0.00000  Uiso   1.00
H815   H     0.91812   0.29492   0.57130   0.00000  Uiso   1.00
H816   H     0.87588   0.28981   0.61272   0.00000  Uiso   1.00
C817   C     0.08684   0.50081   0.50142   0.00000  Uiso   1.00
C818   C     0.24650   0.49906   0.49867   0.00000  Uiso   1.00
C819   C     0.16638   0.50010   0.40637   0.00000  Uiso   1.00
C820   C     0.16688   0.49990   0.59362   0.00000  Uiso   1.00
C821   C     0.16651   0.50014   0.35517   0.00000  Uiso   1.00
C822   C     0.16670   0.49986   0.64482   0.00000  Uiso   1.00
C823   C     0.02426   0.46681   0.52746   0.00000  Uiso   1.00
C824   C     0.30896   0.53237   0.47139   0.00000  Uiso   1.00
C825   C     0.31489   0.46249   0.52066   0.00000  Uiso   1.00
C826   C     0.01838   0.53642   0.47764   0.00000  Uiso   1.00
C827   C     0.29074   0.49694   0.49544   0.00000  Uiso   1.00
C828   C     0.04252   0.50229   0.50342   0.00000  Uiso   1.00
C829   C     0.18914   0.35637   0.53683   0.00000  Uiso   1.00
C830   C     0.14435   0.64363   0.46303   0.00000  Uiso   1.00
C831   C     0.14329   0.35817   0.46385   0.00000  Uiso   1.00
C832   C     0.19028   0.64183   0.53591   0.00000  Uiso   1.00
N833   N     0.16667   0.61907   0.50000   0.00000  Uiso   1.00
N834   N     0.16667   0.38093   0.50000   0.00000  Uiso   1.00
O835   O     0.10559   0.53821   0.50000   0.00000  Uiso   1.00
O836   O     0.22774   0.46179   0.50000   0.00000  Uiso   1.00
O837   O     0.22774   0.53821   0.50000   0.00000  Uiso   1.00
O838   O     0.10559   0.46179   0.50000   0.00000  Uiso   1.00
O839   O     0.16667   0.53821   0.42845   0.00000  Uiso   1.00
O840   O     0.16666   0.46179   0.57155   0.00000  Uiso   1.00
O841   O     0.16666   0.53821   0.57155   0.00000  Uiso   1.00
O842   O     0.16667   0.46179   0.42845   0.00000  Uiso   1.00
Zn843  Zn    0.16667   0.55104   0.50000   0.00000  Uiso   1.00
Zn844  Zn    0.16667   0.44896   0.50000   0.00000  Uiso   1.00
N845   N     0.04837   0.43946   0.56349   0.00000  Uiso   1.00
H846   H     0.03885   0.44129   0.59961   0.00000  Uiso   1.00
C847   C     0.06047   0.39477   0.54858   0.00000  Uiso   1.00
H848   H     0.03969   0.37006   0.56387   0.00000  Uiso   1.00
H849   H     0.09265   0.38680   0.56407   0.00000  Uiso   1.00
H850   H     0.05969   0.39181   0.50709   0.00000  Uiso   1.00
N851   N     0.28391   0.56322   0.44032   0.00000  Uiso   1.00
H852   H     0.29257   0.59592   0.44112   0.00000  Uiso   1.00
C853   C     0.27336   0.54756   0.39001   0.00000  Uiso   1.00
H854   H     0.30170   0.54436   0.36868   0.00000  Uiso   1.00
H855   H     0.25104   0.57171   0.37011   0.00000  Uiso   1.00
H856   H     0.25855   0.51473   0.39131   0.00000  Uiso   1.00
N857   N     0.29640   0.42334   0.53819   0.00000  Uiso   1.00
H858   H     0.30799   0.41170   0.57296   0.00000  Uiso   1.00
C859   C     0.29237   0.38835   0.50099   0.00000  Uiso   1.00
H860   H     0.32311   0.37733   0.48862   0.00000  Uiso   1.00
H861   H     0.27276   0.40014   0.46742   0.00000  Uiso   1.00
H862   H     0.27778   0.35914   0.51728   0.00000  Uiso   1.00
N863   N     0.03699   0.57495   0.45883   0.00000  Uiso   1.00
H864   H     0.02676   0.58412   0.42263   0.00000  Uiso   1.00
C865   C     0.03791   0.61209   0.49341   0.00000  Uiso   1.00
H866   H     0.00601   0.62287   0.50229   0.00000  Uiso   1.00
H867   H     0.05276   0.64075   0.47633   0.00000  Uiso   1.00
H868   H     0.05607   0.60261   0.52897   0.00000  Uiso   1.00
C869   C     0.21022   0.38032   0.58070   0.00000  Uiso   1.00
H870   H     0.23687   0.36170   0.59993   0.00000  Uiso   1.00
H871   H     0.22358   0.41125   0.56820   0.00000  Uiso   1.00
H872   H     0.18734   0.38751   0.60908   0.00000  Uiso   1.00
C873   C     0.12381   0.61961   0.41886   0.00000  Uiso   1.00
H874   H     0.14723   0.61189   0.39128   0.00000  Uiso   1.00
H875   H     0.10983   0.58901   0.43136   0.00000  Uiso   1.00
H876   H     0.09781   0.63833   0.39846   0.00000  Uiso   1.00
C877   C     0.11514   0.38297   0.42471   0.00000  Uiso   1.00
H878   H     0.08300   0.37120   0.42544   0.00000  Uiso   1.00
H879   H     0.11143   0.41854   0.43090   0.00000  Uiso   1.00
H880   H     0.12672   0.37788   0.38678   0.00000  Uiso   1.00
C881   C     0.21927   0.61711   0.57423   0.00000  Uiso   1.00
H882   H     0.22196   0.58134   0.56907   0.00000  Uiso   1.00
H883   H     0.25145   0.62825   0.57130   0.00000  Uiso   1.00
H884   H     0.20921   0.62314   0.61272   0.00000  Uiso   1.00
C885   C     0.42017   0.50081   0.50142   0.00000  Uiso   1.00
C886   C     0.57983   0.49906   0.49867   0.00000  Uiso   1.00
C887   C     0.49971   0.50010   0.40637   0.00000  Uiso   1.00
C888   C     0.50021   0.49990   0.59362   0.00000  Uiso   1.00
C889   C     0.49984   0.50014   0.35517   0.00000  Uiso   1.00
C890   C     0.50004   0.49986   0.64482   0.00000  Uiso   1.00
C891   C     0.35759   0.46681   0.52746   0.00000  Uiso   1.00
C892   C     0.64230   0.53237   0.47139   0.00000  Uiso   1.00
C893   C     0.64823   0.46249   0.52066   0.00000  Uiso   1.00
C894   C     0.35172   0.53642   0.47764   0.00000  Uiso   1.00
C895   C     0.62408   0.49694   0.49544   0.00000  Uiso   1.00
C896   C     0.37585   0.50229   0.50342   0.00000  Uiso   1.00
C897   C     0.52247   0.35637   0.53683   0.00000  Uiso   1.00
C898   C     0.47768   0.64363   0.46303   0.00000  Uiso   1.00
C899   C     0.47662   0.35817   0.46385   0.00000  Uiso   1.00
C900   C     0.52361   0.64183   0.53591   0.00000  Uiso   1.00
N901   N     0.50000   0.61907   0.50000   0.00000  Uiso   1.00
N902   N     0.50000   0.38093   0.50000   0.00000  Uiso   1.00
O903   O     0.43892   0.53821   0.50000   0.00000  Uiso   1.00
O904   O     0.56108   0.46179   0.50000   0.00000  Uiso   1.00
O905   O     0.56108   0.53821   0.50000   0.00000  Uiso   1.00
O906   O     0.43892   0.46179   0.50000   0.00000  Uiso   1.00
O907   O     0.50000   0.53821   0.42845   0.00000  Uiso   1.00
O908   O     0.50000   0.46179   0.57155   0.00000  Uiso   1.00
O909   O     0.50000   0.53821   0.57155   0.00000  Uiso   1.00
O910   O     0.50000   0.46179   0.42845   0.00000  Uiso   1.00
Zn911  Zn    0.50000   0.55104   0.50000   0.00000  Uiso   1.00
Zn912  Zn    0.50000   0.44896   0.50000   0.00000  Uiso   1.00
N913   N     0.38170   0.43946   0.56349   0.00000  Uiso   1.00
H914   H     0.37219   0.44129   0.59961   0.00000  Uiso   1.00
C915   C     0.39380   0.39477   0.54858   0.00000  Uiso   1.00
H916   H     0.37303   0.37006   0.56387   0.00000  Uiso   1.00
H917   H     0.42598   0.38680   0.56407   0.00000  Uiso   1.00
H918   H     0.39302   0.39181   0.50709   0.00000  Uiso   1.00
N919   N     0.61724   0.56322   0.44032   0.00000  Uiso   1.00
H920   H     0.62590   0.59592   0.44112   0.00000  Uiso   1.00
C921   C     0.60669   0.54756   0.39001   0.00000  Uiso   1.00
H922   H     0.63504   0.54436   0.36868   0.00000  Uiso   1.00
H923   H     0.58438   0.57171   0.37011   0.00000  Uiso   1.00
H924   H     0.59188   0.51473   0.39131   0.00000  Uiso   1.00
N925   N     0.62974   0.42334   0.53819   0.00000  Uiso   1.00
H926   H     0.64133   0.41170   0.57296   0.00000  Uiso   1.00
C927   C     0.62571   0.38835   0.50099   0.00000  Uiso   1.00
H928   H     0.65645   0.37733   0.48862   0.00000  Uiso   1.00
H929   H     0.60609   0.40014   0.46742   0.00000  Uiso   1.00
H930   H     0.61111   0.35914   0.51728   0.00000  Uiso   1.00
N931   N     0.37032   0.57495   0.45883   0.00000  Uiso   1.00
H932   H     0.36010   0.58412   0.42263   0.00000  Uiso   1.00
C933   C     0.37125   0.61209   0.49341   0.00000  Uiso   1.00
H934   H     0.33935   0.62287   0.50229   0.00000  Uiso   1.00
H935   H     0.38609   0.64075   0.47633   0.00000  Uiso   1.00
H936   H     0.38940   0.60261   0.52897   0.00000  Uiso   1.00
C937   C     0.54355   0.38032   0.58070   0.00000  Uiso   1.00
H938   H     0.57021   0.36170   0.59993   0.00000  Uiso   1.00
H939   H     0.55692   0.41125   0.56820   0.00000  Uiso   1.00
H940   H     0.52067   0.38751   0.60908   0.00000  Uiso   1.00
C941   C     0.45714   0.61961   0.41886   0.00000  Uiso   1.00
H942   H     0.48056   0.61189   0.39128   0.00000  Uiso   1.00
H943   H     0.44316   0.58901   0.43136   0.00000  Uiso   1.00
H944   H     0.43115   0.63833   0.39846   0.00000  Uiso   1.00
C945   C     0.44848   0.38297   0.42471   0.00000  Uiso   1.00
H946   H     0.41634   0.37120   0.42544   0.00000  Uiso   1.00
H947   H     0.44476   0.41854   0.43090   0.00000  Uiso   1.00
H948   H     0.46005   0.37788   0.38678   0.00000  Uiso   1.00
C949   C     0.55261   0.61711   0.57423   0.00000  Uiso   1.00
H950   H     0.55529   0.58134   0.56907   0.00000  Uiso   1.00
H951   H     0.58478   0.62825   0.57130   0.00000  Uiso   1.00
H952   H     0.54255   0.62314   0.61272   0.00000  Uiso   1.00
C953   C     0.75351   0.50081   0.50142   0.00000  Uiso   1.00
C954   C     0.91317   0.49906   0.49867   0.00000  Uiso   1.00
C955   C     0.83305   0.50010   0.40637   0.00000  Uiso   1.00
C956   C     0.83354   0.49990   0.59362   0.00000  Uiso   1.00
C957   C     0.83317   0.50014   0.35517   0.00000  Uiso   1.00
C958   C     0.83337   0.49986   0.64482   0.00000  Uiso   1.00
C959   C     0.69093   0.46681   0.52746   0.00000  Uiso   1.00
C960   C     0.97563   0.53237   0.47139   0.00000  Uiso   1.00
C961   C     0.98156   0.46249   0.52066   0.00000  Uiso   1.00
C962   C     0.68505   0.53642   0.47764   0.00000  Uiso   1.00
C963   C     0.95741   0.49694   0.49544   0.00000  Uiso   1.00
C964   C     0.70918   0.50229   0.50342   0.00000  Uiso   1.00
C965   C     0.85581   0.35637   0.53683   0.00000  Uiso   1.00
C966   C     0.81101   0.64363   0.46303   0.00000  Uiso   1.00
C967   C     0.80995   0.35817   0.46385   0.00000  Uiso   1.00
C968   C     0.85694   0.64183   0.53591   0.00000  Uiso   1.00
N969   N     0.83333   0.61907   0.50000   0.00000  Uiso   1.00
N970   N     0.83333   0.38093   0.50000   0.00000  Uiso   1.00
O971   O     0.77226   0.53821   0.50000   0.00000  Uiso   1.00
O972   O     0.89441   0.46179   0.50000   0.00000  Uiso   1.00
O973   O     0.89441   0.53821   0.50000   0.00000  Uiso   1.00
O974   O     0.77226   0.46179   0.50000   0.00000  Uiso   1.00
O975   O     0.83334   0.53821   0.42845   0.00000  Uiso   1.00
O976   O     0.83333   0.46179   0.57155   0.00000  Uiso   1.00
O977   O     0.83333   0.53821   0.57155   0.00000  Uiso   1.00
O978   O     0.83334   0.46179   0.42845   0.00000  Uiso   1.00
Zn979  Zn    0.83333   0.55104   0.50000   0.00000  Uiso   1.00
Zn980  Zn    0.83333   0.44896   0.50000   0.00000  Uiso   1.00
N981   N     0.71504   0.43946   0.56349   0.00000  Uiso   1.00
H982   H     0.70552   0.44129   0.59961   0.00000  Uiso   1.00
C983   C     0.72714   0.39477   0.54858   0.00000  Uiso   1.00
H984   H     0.70636   0.37006   0.56387   0.00000  Uiso   1.00
H985   H     0.75932   0.38680   0.56407   0.00000  Uiso   1.00
H986   H     0.72636   0.39181   0.50709   0.00000  Uiso   1.00
N987   N     0.95057   0.56322   0.44032   0.00000  Uiso   1.00
H988   H     0.95924   0.59592   0.44112   0.00000  Uiso   1.00
C989   C     0.94003   0.54756   0.39001   0.00000  Uiso   1.00
H990   H     0.96837   0.54436   0.36868   0.00000  Uiso   1.00
H991   H     0.91771   0.57171   0.37011   0.00000  Uiso   1.00
H992   H     0.92521   0.51473   0.39131   0.00000  Uiso   1.00
N993   N     0.96307   0.42334   0.53819   0.00000  Uiso   1.00
H994   H     0.97466   0.41170   0.57296   0.00000  Uiso   1.00
C995   C     0.95904   0.38835   0.50099   0.00000  Uiso   1.00
H996   H     0.98978   0.37733   0.48862   0.00000  Uiso   1.00
H997   H     0.93943   0.40014   0.46742   0.00000  Uiso   1.00
H998   H     0.94444   0.35914   0.51728   0.00000  Uiso   1.00
N999   N     0.70365   0.57495   0.45883   0.00000  Uiso   1.00
H1000  H     0.69343   0.58412   0.42263   0.00000  Uiso   1.00
C1001  C     0.70458   0.61209   0.49341   0.00000  Uiso   1.00
H1002  H     0.67268   0.62287   0.50229   0.00000  Uiso   1.00
H1003  H     0.71942   0.64075   0.47633   0.00000  Uiso   1.00
H1004  H     0.72274   0.60261   0.52897   0.00000  Uiso   1.00
C1005  C     0.87689   0.38032   0.58070   0.00000  Uiso   1.00
H1006  H     0.90354   0.36170   0.59993   0.00000  Uiso   1.00
H1007  H     0.89025   0.41125   0.56820   0.00000  Uiso   1.00
H1008  H     0.85400   0.38751   0.60908   0.00000  Uiso   1.00
C1009  C     0.79047   0.61961   0.41886   0.00000  Uiso   1.00
H1010  H     0.81389   0.61189   0.39128   0.00000  Uiso   1.00
H1011  H     0.77649   0.58901   0.43136   0.00000  Uiso   1.00
H1012  H     0.76448   0.63833   0.39846   0.00000  Uiso   1.00
C1013  C     0.78181   0.38297   0.42471   0.00000  Uiso   1.00
H1014  H     0.74967   0.37120   0.42544   0.00000  Uiso   1.00
H1015  H     0.77810   0.41854   0.43090   0.00000  Uiso   1.00
H1016  H     0.79339   0.37788   0.38678   0.00000  Uiso   1.00
C1017  C     0.88594   0.61711   0.57423   0.00000  Uiso   1.00
H1018  H     0.88862   0.58134   0.56907   0.00000  Uiso   1.00
H1019  H     0.91812   0.62825   0.57130   0.00000  Uiso   1.00
H1020  H     0.87588   0.62314   0.61272   0.00000  Uiso   1.00
C1021  C     0.08684   0.83414   0.50142   0.00000  Uiso   1.00
C1022  C     0.24650   0.83240   0.49867   0.00000  Uiso   1.00
C1023  C     0.16638   0.83344   0.40637   0.00000  Uiso   1.00
C1024  C     0.16688   0.83323   0.59362   0.00000  Uiso   1.00
C1025  C     0.16651   0.83347   0.35517   0.00000  Uiso   1.00
C1026  C     0.16670   0.83320   0.64482   0.00000  Uiso   1.00
C1027  C     0.02426   0.80014   0.52746   0.00000  Uiso   1.00
C1028  C     0.30896   0.86570   0.47139   0.00000  Uiso   1.00
C1029  C     0.31489   0.79582   0.52066   0.00000  Uiso   1.00
C1030  C     0.01838   0.86975   0.47764   0.00000  Uiso   1.00
C1031  C     0.29074   0.83027   0.49544   0.00000  Uiso   1.00
C1032  C     0.04252   0.83562   0.50342   0.00000  Uiso   1.00
C1033  C     0.18914   0.68970   0.53683   0.00000  Uiso   1.00
C1034  C     0.14435   0.97696   0.46303   0.00000  Uiso   1.00
C1035  C     0.14329   0.69150   0.46385   0.00000  Uiso   1.00
C1036  C     0.19028   0.97516   0.53591   0.00000  Uiso   1.00
N1037  N     0.16667   0.95240   0.50000   0.00000  Uiso   1.00
N1038  N     0.16667   0.71427   0.50000   0.00000  Uiso   1.00
O1039  O     0.10559   0.87154   0.50000   0.00000  Uiso   1.00
O1040  O     0.22774   0.79513   0.50000   0.00000  Uiso   1.00
O1041  O     0.22774   0.87154   0.50000   0.00000  Uiso   1.00
O1042  O     0.10559   0.79513   0.50000   0.00000  Uiso   1.00
O1043  O     0.16667   0.87155   0.42845   0.00000  Uiso   1.00
O1044  O     0.16666   0.79512   0.57155   0.00000  Uiso   1.00
O1045  O     0.16666   0.87155   0.57155   0.00000  Uiso   1.00
O1046  O     0.16667   0.79512   0.42845   0.00000  Uiso   1.00
Zn1047 Zn    0.16667   0.88437   0.50000   0.00000  Uiso   1.00
Zn1048 Zn    0.16667   0.78229   0.50000   0.00000  Uiso   1.00
N1049  N     0.04837   0.77279   0.56349   0.00000  Uiso   1.00
H1050  H     0.03885   0.77462   0.59961   0.00000  Uiso   1.00
C1051  C     0.06047   0.72811   0.54858   0.00000  Uiso   1.00
H1052  H     0.03969   0.70340   0.56387   0.00000  Uiso   1.00
H1053  H     0.09265   0.72014   0.56407   0.00000  Uiso   1.00
H1054  H     0.05969   0.72514   0.50709   0.00000  Uiso   1.00
N1055  N     0.28391   0.89655   0.44032   0.00000  Uiso   1.00
H1056  H     0.29257   0.92925   0.44112   0.00000  Uiso   1.00
C1057  C     0.27336   0.88089   0.39001   0.00000  Uiso   1.00
H1058  H     0.30170   0.87769   0.36868   0.00000  Uiso   1.00
H1059  H     0.25104   0.90505   0.37011   0.00000  Uiso   1.00
H1060  H     0.25855   0.84806   0.39131   0.00000  Uiso   1.00
N1061  N     0.29640   0.75667   0.53819   0.00000  Uiso   1.00
H1062  H     0.30799   0.74504   0.57296   0.00000  Uiso   1.00
C1063  C     0.29237   0.72168   0.50099   0.00000  Uiso   1.00
H1064  H     0.32311   0.71066   0.48862   0.00000  Uiso   1.00
H1065  H     0.27276   0.73348   0.46742   0.00000  Uiso   1.00
H1066  H     0.27778   0.69248   0.51728   0.00000  Uiso   1.00
N1067  N     0.03699   0.90828   0.45883   0.00000  Uiso   1.00
H1068  H     0.02676   0.91745   0.42263   0.00000  Uiso   1.00
C1069  C     0.03791   0.94542   0.49341   0.00000  Uiso   1.00
H1070  H     0.00601   0.95621   0.50229   0.00000  Uiso   1.00
H1071  H     0.05276   0.97409   0.47633   0.00000  Uiso   1.00
H1072  H     0.05607   0.93595   0.52897   0.00000  Uiso   1.00
C1073  C     0.21022   0.71365   0.58070   0.00000  Uiso   1.00
H1074  H     0.23687   0.69504   0.59993   0.00000  Uiso   1.00
H1075  H     0.22358   0.74458   0.56820   0.00000  Uiso   1.00
H1076  H     0.18734   0.72084   0.60908   0.00000  Uiso   1.00
C1077  C     0.12381   0.95294   0.41886   0.00000  Uiso   1.00
H1078  H     0.14723   0.94522   0.39128   0.00000  Uiso   1.00
H1079  H     0.10983   0.92235   0.43136   0.00000  Uiso   1.00
H1080  H     0.09781   0.97167   0.39846   0.00000  Uiso   1.00
C1081  C     0.11514   0.71630   0.42471   0.00000  Uiso   1.00
H1082  H     0.08300   0.70454   0.42544   0.00000  Uiso   1.00
H1083  H     0.11143   0.75187   0.43090   0.00000  Uiso   1.00
H1084  H     0.12672   0.71122   0.38678   0.00000  Uiso   1.00
C1085  C     0.21927   0.95044   0.57423   0.00000  Uiso   1.00
H1086  H     0.22196   0.91467   0.56907   0.00000  Uiso   1.00
H1087  H     0.25145   0.96158   0.57130   0.00000  Uiso   1.00
H1088  H     0.20921   0.95648   0.61272   0.00000  Uiso   1.00
C1089  C     0.42017   0.83414   0.50142   0.00000  Uiso   1.00
C1090  C     0.57983   0.83240   0.49867   0.00000  Uiso   1.00
C1091  C     0.49971   0.83344   0.40637   0.00000  Uiso   1.00
C1092  C     0.50021   0.83323   0.59362   0.00000  Uiso   1.00
C1093  C     0.49984   0.83347   0.35517   0.00000  Uiso   1.00
C1094  C     0.50004   0.83320   0.64482   0.00000  Uiso   1.00
C1095  C     0.35759   0.80014   0.52746   0.00000  Uiso   1.00
C1096  C     0.64230   0.86570   0.47139   0.00000  Uiso   1.00
C1097  C     0.64823   0.79582   0.52066   0.00000  Uiso   1.00
C1098  C     0.35172   0.86975   0.47764   0.00000  Uiso   1.00
C1099  C     0.62408   0.83027   0.49544   0.00000  Uiso   1.00
C1100  C     0.37585   0.83562   0.50342   0.00000  Uiso   1.00
C1101  C     0.52247   0.68970   0.53683   0.00000  Uiso   1.00
C1102  C     0.47768   0.97696   0.46303   0.00000  Uiso   1.00
C1103  C     0.47662   0.69150   0.46385   0.00000  Uiso   1.00
C1104  C     0.52361   0.97516   0.53591   0.00000  Uiso   1.00
N1105  N     0.50000   0.95240   0.50000   0.00000  Uiso   1.00
N1106  N     0.50000   0.71427   0.50000   0.00000  Uiso   1.00
O1107  O     0.43892   0.87154   0.50000   0.00000  Uiso   1.00
O1108  O     0.56108   0.79513   0.50000   0.00000  Uiso   1.00
O1109  O     0.56108   0.87154   0.50000   0.00000  Uiso   1.00
O1110  O     0.43892   0.79513   0.50000   0.00000  Uiso   1.00
O1111  O     0.50000   0.87155   0.42845   0.00000  Uiso   1.00
O1112  O     0.50000   0.79512   0.57155   0.00000  Uiso   1.00
O1113  O     0.50000   0.87155   0.57155   0.00000  Uiso   1.00
O1114  O     0.50000   0.79512   0.42845   0.00000  Uiso   1.00
Zn1115 Zn    0.50000   0.88437   0.50000   0.00000  Uiso   1.00
Zn1116 Zn    0.50000   0.78229   0.50000   0.00000  Uiso   1.00
N1117  N     0.38170   0.77279   0.56349   0.00000  Uiso   1.00
H1118  H     0.37219   0.77462   0.59961   0.00000  Uiso   1.00
C1119  C     0.39380   0.72811   0.54858   0.00000  Uiso   1.00
H1120  H     0.37303   0.70340   0.56387   0.00000  Uiso   1.00
H1121  H     0.42598   0.72014   0.56407   0.00000  Uiso   1.00
H1122  H     0.39302   0.72514   0.50709   0.00000  Uiso   1.00
N1123  N     0.61724   0.89655   0.44032   0.00000  Uiso   1.00
H1124  H     0.62590   0.92925   0.44112   0.00000  Uiso   1.00
C1125  C     0.60669   0.88089   0.39001   0.00000  Uiso   1.00
H1126  H     0.63504   0.87769   0.36868   0.00000  Uiso   1.00
H1127  H     0.58438   0.90505   0.37011   0.00000  Uiso   1.00
H1128  H     0.59188   0.84806   0.39131   0.00000  Uiso   1.00
N1129  N     0.62974   0.75667   0.53819   0.00000  Uiso   1.00
H1130  H     0.64133   0.74504   0.57296   0.00000  Uiso   1.00
C1131  C     0.62571   0.72168   0.50099   0.00000  Uiso   1.00
H1132  H     0.65645   0.71066   0.48862   0.00000  Uiso   1.00
H1133  H     0.60609   0.73348   0.46742   0.00000  Uiso   1.00
H1134  H     0.61111   0.69248   0.51728   0.00000  Uiso   1.00
N1135  N     0.37032   0.90828   0.45883   0.00000  Uiso   1.00
H1136  H     0.36010   0.91745   0.42263   0.00000  Uiso   1.00
C1137  C     0.37125   0.94542   0.49341   0.00000  Uiso   1.00
H1138  H     0.33935   0.95621   0.50229   0.00000  Uiso   1.00
H1139  H     0.38609   0.97409   0.47633   0.00000  Uiso   1.00
H1140  H     0.38940   0.93595   0.52897   0.00000  Uiso   1.00
C1141  C     0.54355   0.71365   0.58070   0.00000  Uiso   1.00
H1142  H     0.57021   0.69504   0.59993   0.00000  Uiso   1.00
H1143  H     0.55692   0.74458   0.56820   0.00000  Uiso   1.00
H1144  H     0.52067   0.72084   0.60908   0.00000  Uiso   1.00
C1145  C     0.45714   0.95294   0.41886   0.00000  Uiso   1.00
H1146  H     0.48056   0.94522   0.39128   0.00000  Uiso   1.00
H1147  H     0.44316   0.92235   0.43136   0.00000  Uiso   1.00
H1148  H     0.43115   0.97167   0.39846   0.00000  Uiso   1.00
C1149  C     0.44848   0.71630   0.42471   0.00000  Uiso   1.00
H1150  H     0.41634   0.70454   0.42544   0.00000  Uiso   1.00
H1151  H     0.44476   0.75187   0.43090   0.00000  Uiso   1.00
H1152  H     0.46005   0.71122   0.38678   0.00000  Uiso   1.00
C1153  C     0.55261   0.95044   0.57423   0.00000  Uiso   1.00
H1154  H     0.55529   0.91467   0.56907   0.00000  Uiso   1.00
H1155  H     0.58478   0.96158   0.57130   0.00000  Uiso   1.00
H1156  H     0.54255   0.95648   0.61272   0.00000  Uiso   1.00
C1157  C     0.75351   0.83414   0.50142   0.00000  Uiso   1.00
C1158  C     0.91317   0.83240   0.49867   0.00000  Uiso   1.00
C1159  C     0.83305   0.83344   0.40637   0.00000  Uiso   1.00
C1160  C     0.83354   0.83323   0.59362   0.00000  Uiso   1.00
C1161  C     0.83317   0.83347   0.35517   0.00000  Uiso   1.00
C1162  C     0.83337   0.83320   0.64482   0.00000  Uiso   1.00
C1163  C     0.69093   0.80014   0.52746   0.00000  Uiso   1.00
C1164  C     0.97563   0.86570   0.47139   0.00000  Uiso   1.00
C1165  C     0.98156   0.79582   0.52066   0.00000  Uiso   1.00
C1166  C     0.68505   0.86975   0.47764   0.00000  Uiso   1.00
C1167  C     0.95741   0.83027   0.49544   0.00000  Uiso   1.00
C1168  C     0.70918   0.83562   0.50342   0.00000  Uiso   1.00
C1169  C     0.85581   0.68970   0.53683   0.00000  Uiso   1.00
C1170  C     0.81101   0.97696   0.46303   0.00000  Uiso   1.00
C1171  C     0.80995   0.69150   0.46385   0.00000  Uiso   1.00
C1172  C     0.85694   0.97516   0.53591   0.00000  Uiso   1.00
N1173  N     0.83333   0.95240   0.50000   0.00000  Uiso   1.00
N1174  N     0.83333   0.71427   0.50000   0.00000  Uiso   1.00
O1175  O     0.77226   0.87154   0.50000   0.00000  Uiso   1.00
O1176  O     0.89441   0.79513   0.50000   0.00000  Uiso   1.00
O1177  O     0.89441   0.87154   0.50000   0.00000  Uiso   1.00
O1178  O     0.77226   0.79513   0.50000   0.00000  Uiso   1.00
O1179  O     0.83334   0.87155   0.42845   0.00000  Uiso   1.00
O1180  O     0.83333   0.79512   0.57155   0.00000  Uiso   1.00
O1181  O     0.83333   0.87155   0.57155   0.00000  Uiso   1.00
O1182  O     0.83334   0.79512   0.42845   0.00000  Uiso   1.00
Zn1183 Zn    0.83333   0.88437   0.50000   0.00000  Uiso   1.00
Zn1184 Zn    0.83333   0.78229   0.50000   0.00000  Uiso   1.00
N1185  N     0.71504   0.77279   0.56349   0.00000  Uiso   1.00
H1186  H     0.70552   0.77462   0.59961   0.00000  Uiso   1.00
C1187  C     0.72714   0.72811   0.54858   0.00000  Uiso   1.00
H1188  H     0.70636   0.70340   0.56387   0.00000  Uiso   1.00
H1189  H     0.75932   0.72014   0.56407   0.00000  Uiso   1.00
H1190  H     0.72636   0.72514   0.50709   0.00000  Uiso   1.00
N1191  N     0.95057   0.89655   0.44032   0.00000  Uiso   1.00
H1192  H     0.95924   0.92925   0.44112   0.00000  Uiso   1.00
C1193  C     0.94003   0.88089   0.39001   0.00000  Uiso   1.00
H1194  H     0.96837   0.87769   0.36868   0.00000  Uiso   1.00
H1195  H     0.91771   0.90505   0.37011   0.00000  Uiso   1.00
H1196  H     0.92521   0.84806   0.39131   0.00000  Uiso   1.00
N1197  N     0.96307   0.75667   0.53819   0.00000  Uiso   1.00
H1198  H     0.97466   0.74504   0.57296   0.00000  Uiso   1.00
C1199  C     0.95904   0.72168   0.50099   0.00000  Uiso   1.00
H1200  H     0.98978   0.71066   0.48862   0.00000  Uiso   1.00
H1201  H     0.93943   0.73348   0.46742   0.00000  Uiso   1.00
H1202  H     0.94444   0.69248   0.51728   0.00000  Uiso   1.00
N1203  N     0.70365   0.90828   0.45883   0.00000  Uiso   1.00
H1204  H     0.69343   0.91745   0.42263   0.00000  Uiso   1.00
C1205  C     0.70458   0.94542   0.49341   0.00000  Uiso   1.00
H1206  H     0.67268   0.95621   0.50229   0.00000  Uiso   1.00
H1207  H     0.71942   0.97409   0.47633   0.00000  Uiso   1.00
H1208  H     0.72274   0.93595   0.52897   0.00000  Uiso   1.00
C1209  C     0.87689   0.71365   0.58070   0.00000  Uiso   1.00
H1210  H     0.90354   0.69504   0.59993   0.00000  Uiso   1.00
H1211  H     0.89025   0.74458   0.56820   0.00000  Uiso   1.00
H1212  H     0.85400   0.72084   0.60908   0.00000  Uiso   1.00
C1213  C     0.79047   0.95294   0.41886   0.00000  Uiso   1.00
H1214  H     0.81389   0.94522   0.39128   0.00000  Uiso   1.00
H1215  H     0.77649   0.92235   0.43136   0.00000  Uiso   1.00
H1216  H     0.76448   0.97167   0.39846   0.00000  Uiso   1.00
C1217  C     0.78181   0.71630   0.42471   0.00000  Uiso   1.00
H1218  H     0.74967   0.70454   0.42544   0.00000  Uiso   1.00
H1219  H     0.77810   0.75187   0.43090   0.00000  Uiso   1.00
H1220  H     0.79339   0.71122   0.38678   0.00000  Uiso   1.00
C1221  C     0.88594   0.95044   0.57423   0.00000  Uiso   1.00
H1222  H     0.88862   0.91467   0.56907   0.00000  Uiso   1.00
H1223  H     0.91812   0.96158   0.57130   0.00000  Uiso   1.00
H1224  H     0.87588   0.95648   0.61272   0.00000  Uiso   1.00
C1225  C     0.08684   0.16748   0.83475   0.00000  Uiso   1.00
C1226  C     0.24650   0.16573   0.83200   0.00000  Uiso   1.00
C1227  C     0.16638   0.16677   0.73971   0.00000  Uiso   1.00
C1228  C     0.16688   0.16657   0.92696   0.00000  Uiso   1.00
C1229  C     0.16651   0.16681   0.68850   0.00000  Uiso   1.00
C1230  C     0.16670   0.16653   0.97816   0.00000  Uiso   1.00
C1231  C     0.02426   0.13347   0.86079   0.00000  Uiso   1.00
C1232  C     0.30896   0.19903   0.80472   0.00000  Uiso   1.00
C1233  C     0.31489   0.12916   0.85399   0.00000  Uiso   1.00
C1234  C     0.01838   0.20309   0.81097   0.00000  Uiso   1.00
C1235  C     0.29074   0.16361   0.82878   0.00000  Uiso   1.00
C1236  C     0.04252   0.16896   0.83675   0.00000  Uiso   1.00
C1237  C     0.18914   0.02303   0.87016   0.00000  Uiso   1.00
C1238  C     0.14435   0.31030   0.79636   0.00000  Uiso   1.00
C1239  C     0.14329   0.02483   0.79718   0.00000  Uiso   1.00
C1240  C     0.19028   0.30850   0.86925   0.00000  Uiso   1.00
N1241  N     0.16667   0.28573   0.83333   0.00000  Uiso   1.00
N1242  N     0.16667   0.04760   0.83333   0.00000  Uiso   1.00
O1243  O     0.10559   0.20487   0.83333   0.00000  Uiso   1.00
O1244  O     0.22774   0.12846   0.83334   0.00000  Uiso   1.00
O1245  O     0.22774   0.20487   0.83334   0.00000  Uiso   1.00
O1246  O     0.10559   0.12846   0.83333   0.00000  Uiso   1.00
O1247  O     0.16667   0.20488   0.76178   0.00000  Uiso   1.00
O1248  O     0.16666   0.12845   0.90489   0.00000  Uiso   1.00
O1249  O     0.16666   0.20488   0.90489   0.00000  Uiso   1.00
O1250  O     0.16667   0.12845   0.76178   0.00000  Uiso   1.00
Zn1251 Zn    0.16667   0.21771   0.83333   0.00000  Uiso   1.00
Zn1252 Zn    0.16667   0.11563   0.83333   0.00000  Uiso   1.00
N1253  N     0.04837   0.10613   0.89682   0.00000  Uiso   1.00
H1254  H     0.03885   0.10795   0.93294   0.00000  Uiso   1.00
C1255  C     0.06047   0.06144   0.88192   0.00000  Uiso   1.00
H1256  H     0.03969   0.03673   0.89721   0.00000  Uiso   1.00
H1257  H     0.09265   0.05347   0.89740   0.00000  Uiso   1.00
H1258  H     0.05969   0.05847   0.84042   0.00000  Uiso   1.00
N1259  N     0.28391   0.22988   0.77365   0.00000  Uiso   1.00
H1260  H     0.29257   0.26259   0.77446   0.00000  Uiso   1.00
C1261  C     0.27336   0.21422   0.72334   0.00000  Uiso   1.00
H1262  H     0.30170   0.21102   0.70201   0.00000  Uiso   1.00
H1263  H     0.25104   0.23838   0.70345   0.00000  Uiso   1.00
H1264  H     0.25855   0.18140   0.72464   0.00000  Uiso   1.00
N1265  N     0.29640   0.09001   0.87152   0.00000  Uiso   1.00
H1266  H     0.30799   0.07837   0.90629   0.00000  Uiso   1.00
C1267  C     0.29237   0.05502   0.83433   0.00000  Uiso   1.00
H1268  H     0.32311   0.04400   0.82196   0.00000  Uiso   1.00
H1269  H     0.27276   0.06681   0.80075   0.00000  Uiso   1.00
H1270  H     0.27778   0.02581   0.85061   0.00000  Uiso   1.00
N1271  N     0.03699   0.24162   0.79216   0.00000  Uiso   1.00
H1272  H     0.02676   0.25078   0.75596   0.00000  Uiso   1.00
C1273  C     0.03791   0.27875   0.82675   0.00000  Uiso   1.00
H1274  H     0.00601   0.28954   0.83562   0.00000  Uiso   1.00
H1275  H     0.05276   0.30742   0.80966   0.00000  Uiso   1.00
H1276  H     0.05607   0.26928   0.86231   0.00000  Uiso   1.00
C1277  C     0.21022   0.04699   0.91403   0.00000  Uiso   1.00
H1278  H     0.23687   0.02837   0.93326   0.00000  Uiso   1.00
H1279  H     0.22358   0.07791   0.90154   0.00000  Uiso   1.00
H1280  H     0.18734   0.05417   0.94242   0.00000  Uiso   1.00
C1281  C     0.12381   0.28627   0.75220   0.00000  Uiso   1.00
H1282  H     0.14723   0.27855   0.72461   0.00000  Uiso   1.00
H1283  H     0.10983   0.25568   0.76470   0.00000  Uiso   1.00
H1284  H     0.09781   0.30500   0.73180   0.00000  Uiso   1.00
C1285  C     0.11514   0.04964   0.75804   0.00000  Uiso   1.00
H1286  H     0.08300   0.03787   0.75877   0.00000  Uiso   1.00
H1287  H     0.11143   0.08521   0.76423   0.00000  Uiso   1.00
H1288  H     0.12672   0.04455   0.72012   0.00000  Uiso   1.00
C1289  C     0.21927   0.28377   0.90756   0.00000  Uiso   1.00
H1290  H     0.22196   0.24800   0.90241   0.00000  Uiso   1.00
H1291  H     0.25145   0.29492   0.90463   0.00000  Uiso   1.00
H1292  H     0.20921   0.28981   0.94605   0.00000  Uiso   1.00
C1293  C     0.42017   0.16748   0.83475   0.00000  Uiso   1.00
C1294  C     0.57983   0.16573   0.83200   0.00000  Uiso   1.00
C1295  C     0.49971   0.16677   0.73971   0.00000  Uiso   1.00
C1296  C     0.50021   0.16657   0.92696   0.00000  Uiso   1.00
C1297  C     0.49984   0.16681   0.68850   0.00000  Uiso   1.00
C1298  C     0.50004   0.16653   0.97816   0.00000  Uiso   1.00
C1299  C     0.35759   0.13347   0.86079   0.00000  Uiso   1.00
C1300  C     0.64230   0.19903   0.80472   0.00000  Uiso   1.00
C1301  C     0.64823   0.12916   0.85399   0.00000  Uiso   1.00
C1302  C     0.35172   0.20309   0.81097   0.00000  Uiso   1.00
C1303  C     0.62408   0.16361   0.82878   0.00000  Uiso   1.00
C1304  C     0.37585   0.16896   0.83675   0.00000  Uiso   1.00
C1305  C     0.52247   0.02303   0.87016   0.00000  Uiso   1.00
C1306  C     0.47768   0.31030   0.79636   0.00000  Uiso   1.00
C1307  C     0.47662   0.02483   0.79718   0.00000  Uiso   1.00
C1308  C     0.52361   0.30850   0.86925   0.00000  Uiso   1.00
N1309  N     0.50000   0.28573   0.83333   0.00000  Uiso   1.00
N1310  N     0.50000   0.04760   0.83333   0.00000  Uiso   1.00
O1311  O     0.43892   0.20487   0.83333   0.00000  Uiso   1.00
O1312  O     0.56108   0.12846   0.83334   0.00000  Uiso   1.00
O1313  O     0.56108   0.20487   0.83334   0.00000  Uiso   1.00
O1314  O     0.43892   0.12846   0.83333   0.00000  Uiso   1.00
O1315  O     0.50000   0.20488   0.76178   0.00000  Uiso   1.00
O1316  O     0.50000   0.12845   0.90489   0.00000  Uiso   1.00
O1317  O     0.50000   0.20488   0.90489   0.00000  Uiso   1.00
O1318  O     0.50000   0.12845   0.76178   0.00000  Uiso   1.00
Zn1319 Zn    0.50000   0.21771   0.83333   0.00000  Uiso   1.00
Zn1320 Zn    0.50000   0.11563   0.83333   0.00000  Uiso   1.00
N1321  N     0.38170   0.10613   0.89682   0.00000  Uiso   1.00
H1322  H     0.37219   0.10795   0.93294   0.00000  Uiso   1.00
C1323  C     0.39380   0.06144   0.88192   0.00000  Uiso   1.00
H1324  H     0.37303   0.03673   0.89721   0.00000  Uiso   1.00
H1325  H     0.42598   0.05347   0.89740   0.00000  Uiso   1.00
H1326  H     0.39302   0.05847   0.84042   0.00000  Uiso   1.00
N1327  N     0.61724   0.22988   0.77365   0.00000  Uiso   1.00
H1328  H     0.62590   0.26259   0.77446   0.00000  Uiso   1.00
C1329  C     0.60669   0.21422   0.72334   0.00000  Uiso   1.00
H1330  H     0.63504   0.21102   0.70201   0.00000  Uiso   1.00
H1331  H     0.58438   0.23838   0.70345   0.00000  Uiso   1.00
H1332  H     0.59188   0.18140   0.72464   0.00000  Uiso   1.00
N1333  N     0.62974   0.09001   0.87152   0.00000  Uiso   1.00
H1334  H     0.64133   0.07837   0.90629   0.00000  Uiso   1.00
C1335  C     0.62571   0.05502   0.83433   0.00000  Uiso   1.00
H1336  H     0.65645   0.04400   0.82196   0.00000  Uiso   1.00
H1337  H     0.60609   0.06681   0.80075   0.00000  Uiso   1.00
H1338  H     0.61111   0.02581   0.85061   0.00000  Uiso   1.00
N1339  N     0.37032   0.24162   0.79216   0.00000  Uiso   1.00
H1340  H     0.36010   0.25078   0.75596   0.00000  Uiso   1.00
C1341  C     0.37125   0.27875   0.82675   0.00000  Uiso   1.00
H1342  H     0.33935   0.28954   0.83562   0.00000  Uiso   1.00
H1343  H     0.38609   0.30742   0.80966   0.00000  Uiso   1.00
H1344  H     0.38940   0.26928   0.86231   0.00000  Uiso   1.00
C1345  C     0.54355   0.04699   0.91403   0.00000  Uiso   1.00
H1346  H     0.57021   0.02837   0.93326   0.00000  Uiso   1.00
H1347  H     0.55692   0.07791   0.90154   0.00000  Uiso   1.00
H1348  H     0.52067   0.05417   0.94242   0.00000  Uiso   1.00
C1349  C     0.45714   0.28627   0.75220   0.00000  Uiso   1.00
H1350  H     0.48056   0.27855   0.72461   0.00000  Uiso   1.00
H1351  H     0.44316   0.25568   0.76470   0.00000  Uiso   1.00
H1352  H     0.43115   0.30500   0.73180   0.00000  Uiso   1.00
C1353  C     0.44848   0.04964   0.75804   0.00000  Uiso   1.00
H1354  H     0.41634   0.03787   0.75877   0.00000  Uiso   1.00
H1355  H     0.44476   0.08521   0.76423   0.00000  Uiso   1.00
H1356  H     0.46005   0.04455   0.72012   0.00000  Uiso   1.00
C1357  C     0.55261   0.28377   0.90756   0.00000  Uiso   1.00
H1358  H     0.55529   0.24800   0.90241   0.00000  Uiso   1.00
H1359  H     0.58478   0.29492   0.90463   0.00000  Uiso   1.00
H1360  H     0.54255   0.28981   0.94605   0.00000  Uiso   1.00
C1361  C     0.75351   0.16748   0.83475   0.00000  Uiso   1.00
C1362  C     0.91317   0.16573   0.83200   0.00000  Uiso   1.00
C1363  C     0.83305   0.16677   0.73971   0.00000  Uiso   1.00
C1364  C     0.83354   0.16657   0.92696   0.00000  Uiso   1.00
C1365  C     0.83317   0.16681   0.68850   0.00000  Uiso   1.00
C1366  C     0.83337   0.16653   0.97816   0.00000  Uiso   1.00
C1367  C     0.69093   0.13347   0.86079   0.00000  Uiso   1.00
C1368  C     0.97563   0.19903   0.80472   0.00000  Uiso   1.00
C1369  C     0.98156   0.12916   0.85399   0.00000  Uiso   1.00
C1370  C     0.68505   0.20309   0.81097   0.00000  Uiso   1.00
C1371  C     0.95741   0.16361   0.82878   0.00000  Uiso   1.00
C1372  C     0.70918   0.16896   0.83675   0.00000  Uiso   1.00
C1373  C     0.85581   0.02303   0.87016   0.00000  Uiso   1.00
C1374  C     0.81101   0.31030   0.79636   0.00000  Uiso   1.00
C1375  C     0.80995   0.02483   0.79718   0.00000  Uiso   1.00
C1376  C     0.85694   0.30850   0.86925   0.00000  Uiso   1.00
N1377  N     0.83333   0.28573   0.83333   0.00000  Uiso   1.00
N1378  N     0.83333   0.04760   0.83333   0.00000  Uiso   1.00
O1379  O     0.77226   0.20487   0.83333   0.00000  Uiso   1.00
O1380  O     0.89441   0.12846   0.83334   0.00000  Uiso   1.00
O1381  O     0.89441   0.20487   0.83334   0.00000  Uiso   1.00
O1382  O     0.77226   0.12846   0.83333   0.00000  Uiso   1.00
O1383  O     0.83334   0.20488   0.76178   0.00000  Uiso   1.00
O1384  O     0.83333   0.12845   0.90489   0.00000  Uiso   1.00
O1385  O     0.83333   0.20488   0.90489   0.00000  Uiso   1.00
O1386  O     0.83334   0.12845   0.76178   0.00000  Uiso   1.00
Zn1387 Zn    0.83333   0.21771   0.83333   0.00000  Uiso   1.00
Zn1388 Zn    0.83333   0.11563   0.83333   0.00000  Uiso   1.00
N1389  N     0.71504   0.10613   0.89682   0.00000  Uiso   1.00
H1390  H     0.70552   0.10795   0.93294   0.00000  Uiso   1.00
C1391  C     0.72714   0.06144   0.88192   0.00000  Uiso   1.00
H1392  H     0.70636   0.03673   0.89721   0.00000  Uiso   1.00
H1393  H     0.75932   0.05347   0.89740   0.00000  Uiso   1.00
H1394  H     0.72636   0.05847   0.84042   0.00000  Uiso   1.00
N1395  N     0.95057   0.22988   0.77365   0.00000  Uiso   1.00
H1396  H     0.95924   0.26259   0.77446   0.00000  Uiso   1.00
C1397  C     0.94003   0.21422   0.72334   0.00000  Uiso   1.00
H1398  H     0.96837   0.21102   0.70201   0.00000  Uiso   1.00
H1399  H     0.91771   0.23838   0.70345   0.00000  Uiso   1.00
H1400  H     0.92521   0.18140   0.72464   0.00000  Uiso   1.00
N1401  N     0.96307   0.09001   0.87152   0.00000  Uiso   1.00
H1402  H     0.97466   0.07837   0.90629   0.00000  Uiso   1.00
C1403  C     0.95904   0.05502   0.83433   0.00000  Uiso   1.00
H1404  H     0.98978   0.04400   0.82196   0.00000  Uiso   1.00
H1405  H     0.93943   0.06681   0.80075   0.00000  Uiso   1.00
H1406  H     0.94444   0.02581   0.85061   0.00000  Uiso   1.00
N1407  N     0.70365   0.24162   0.79216   0.00000  Uiso   1.00
H1408  H     0.69343   0.25078   0.75596   0.00000  Uiso   1.00
C1409  C     0.70458   0.27875   0.82675   0.00000  Uiso   1.00
H1410  H     0.67268   0.28954   0.83562   0.00000  Uiso   1.00
H1411  H     0.71942   0.30742   0.80966   0.00000  Uiso   1.00
H1412  H     0.72274   0.26928   0.86231   0.00000  Uiso   1.00
C1413  C     0.87689   0.04699   0.91403   0.00000  Uiso   1.00
H1414  H     0.90354   0.02837   0.93326   0.00000  Uiso   1.00
H1415  H     0.89025   0.07791   0.90154   0.00000  Uiso   1.00
H1416  H     0.85400   0.05417   0.94242   0.00000  Uiso   1.00
C1417  C     0.79047   0.28627   0.75220   0.00000  Uiso   1.00
H1418  H     0.81389   0.27855   0.72461   0.00000  Uiso   1.00
H1419  H     0.77649   0.25568   0.76470   0.00000  Uiso   1.00
H1420  H     0.76448   0.30500   0.73180   0.00000  Uiso   1.00
C1421  C     0.78181   0.04964   0.75804   0.00000  Uiso   1.00
H1422  H     0.74967   0.03787   0.75877   0.00000  Uiso   1.00
H1423  H     0.77810   0.08521   0.76423   0.00000  Uiso   1.00
H1424  H     0.79339   0.04455   0.72012   0.00000  Uiso   1.00
C1425  C     0.88594   0.28377   0.90756   0.00000  Uiso   1.00
H1426  H     0.88862   0.24800   0.90241   0.00000  Uiso   1.00
H1427  H     0.91812   0.29492   0.90463   0.00000  Uiso   1.00
H1428  H     0.87588   0.28981   0.94605   0.00000  Uiso   1.00
C1429  C     0.08684   0.50081   0.83475   0.00000  Uiso   1.00
C1430  C     0.24650   0.49906   0.83200   0.00000  Uiso   1.00
C1431  C     0.16638   0.50010   0.73971   0.00000  Uiso   1.00
C1432  C     0.16688   0.49990   0.92696   0.00000  Uiso   1.00
C1433  C     0.16651   0.50014   0.68850   0.00000  Uiso   1.00
C1434  C     0.16670   0.49986   0.97816   0.00000  Uiso   1.00
C1435  C     0.02426   0.46681   0.86079   0.00000  Uiso   1.00
C1436  C     0.30896   0.53237   0.80472   0.00000  Uiso   1.00
C1437  C     0.31489   0.46249   0.85399   0.00000  Uiso   1.00
C1438  C     0.01838   0.53642   0.81097   0.00000  Uiso   1.00
C1439  C     0.29074   0.49694   0.82878   0.00000  Uiso   1.00
C1440  C     0.04252   0.50229   0.83675   0.00000  Uiso   1.00
C1441  C     0.18914   0.35637   0.87016   0.00000  Uiso   1.00
C1442  C     0.14435   0.64363   0.79636   0.00000  Uiso   1.00
C1443  C     0.14329   0.35817   0.79718   0.00000  Uiso   1.00
C1444  C     0.19028   0.64183   0.86925   0.00000  Uiso   1.00
N1445  N     0.16667   0.61907   0.83333   0.00000  Uiso   1.00
N1446  N     0.16667   0.38093   0.83333   0.00000  Uiso   1.00
O1447  O     0.10559   0.53821   0.83333   0.00000  Uiso   1.00
O1448  O     0.22774   0.46179   0.83334   0.00000  Uiso   1.00
O1449  O     0.22774   0.53821   0.83334   0.00000  Uiso   1.00
O1450  O     0.10559   0.46179   0.83333   0.00000  Uiso   1.00
O1451  O     0.16667   0.53821   0.76178   0.00000  Uiso   1.00
O1452  O     0.16666   0.46179   0.90489   0.00000  Uiso   1.00
O1453  O     0.16666   0.53821   0.90489   0.00000  Uiso   1.00
O1454  O     0.16667   0.46179   0.76178   0.00000  Uiso   1.00
Zn1455 Zn    0.16667   0.55104   0.83333   0.00000  Uiso   1.00
Zn1456 Zn    0.16667   0.44896   0.83333   0.00000  Uiso   1.00
N1457  N     0.04837   0.43946   0.89682   0.00000  Uiso   1.00
H1458  H     0.03885   0.44129   0.93294   0.00000  Uiso   1.00
C1459  C     0.06047   0.39477   0.88192   0.00000  Uiso   1.00
H1460  H     0.03969   0.37006   0.89721   0.00000  Uiso   1.00
H1461  H     0.09265   0.38680   0.89740   0.00000  Uiso   1.00
H1462  H     0.05969   0.39181   0.84042   0.00000  Uiso   1.00
N1463  N     0.28391   0.56322   0.77365   0.00000  Uiso   1.00
H1464  H     0.29257   0.59592   0.77446   0.00000  Uiso   1.00
C1465  C     0.27336   0.54756   0.72334   0.00000  Uiso   1.00
H1466  H     0.30170   0.54436   0.70201   0.00000  Uiso   1.00
H1467  H     0.25104   0.57171   0.70345   0.00000  Uiso   1.00
H1468  H     0.25855   0.51473   0.72464   0.00000  Uiso   1.00
N1469  N     0.29640   0.42334   0.87152   0.00000  Uiso   1.00
H1470  H     0.30799   0.41170   0.90629   0.00000  Uiso   1.00
C1471  C     0.29237   0.38835   0.83433   0.00000  Uiso   1.00
H1472  H     0.32311   0.37733   0.82196   0.00000  Uiso   1.00
H1473  H     0.27276   0.40014   0.80075   0.00000  Uiso   1.00
H1474  H     0.27778   0.35914   0.85061   0.00000  Uiso   1.00
N1475  N     0.03699   0.57495   0.79216   0.00000  Uiso   1.00
H1476  H     0.02676   0.58412   0.75596   0.00000  Uiso   1.00
C1477  C     0.03791   0.61209   0.82675   0.00000  Uiso   1.00
H1478  H     0.00601   0.62287   0.83562   0.00000  Uiso   1.00
H1479  H     0.05276   0.64075   0.80966   0.00000  Uiso   1.00
H1480  H     0.05607   0.60261   0.86231   0.00000  Uiso   1.00
C1481  C     0.21022   0.38032   0.91403   0.00000  Uiso   1.00
H1482  H     0.23687   0.36170   0.93326   0.00000  Uiso   1.00
H1483  H     0.22358   0.41125   0.90154   0.00000  Uiso   1.00
H1484  H     0.18734   0.38751   0.94242   0.00000  Uiso   1.00
C1485  C     0.12381   0.61961   0.75220   0.00000  Uiso   1.00
H1486  H     0.14723   0.61189   0.72461   0.00000  Uiso   1.00
H1487  H     0.10983   0.58901   0.76470   0.00000  Uiso   1.00
H1488  H     0.09781   0.63833   0.73180   0.00000  Uiso   1.00
C1489  C     0.11514   0.38297   0.75804   0.00000  Uiso   1.00
H1490  H     0.08300   0.37120   0.75877   0.00000  Uiso   1.00
H1491  H     0.11143   0.41854   0.76423   0.00000  Uiso   1.00
H1492  H     0.12672   0.37788   0.72012   0.00000  Uiso   1.00
C1493  C     0.21927   0.61711   0.90756   0.00000  Uiso   1.00
H1494  H     0.22196   0.58134   0.90241   0.00000  Uiso   1.00
H1495  H     0.25145   0.62825   0.90463   0.00000  Uiso   1.00
H1496  H     0.20921   0.62314   0.94605   0.00000  Uiso   1.00
C1497  C     0.42017   0.50081   0.83475   0.00000  Uiso   1.00
C1498  C     0.57983   0.49906   0.83200   0.00000  Uiso   1.00
C1499  C     0.49971   0.50010   0.73971   0.00000  Uiso   1.00
C1500  C     0.50021   0.49990   0.92696   0.00000  Uiso   1.00
C1501  C     0.49984   0.50014   0.68850   0.00000  Uiso   1.00
C1502  C     0.50004   0.49986   0.97816   0.00000  Uiso   1.00
C1503  C     0.35759   0.46681   0.86079   0.00000  Uiso   1.00
C1504  C     0.64230   0.53237   0.80472   0.00000  Uiso   1.00
C1505  C     0.64823   0.46249   0.85399   0.00000  Uiso   1.00
C1506  C     0.35172   0.53642   0.81097   0.00000  Uiso   1.00
C1507  C     0.62408   0.49694   0.82878   0.00000  Uiso   1.00
C1508  C     0.37585   0.50229   0.83675   0.00000  Uiso   1.00
C1509  C     0.52247   0.35637   0.87016   0.00000  Uiso   1.00
C1510  C     0.47768   0.64363   0.79636   0.00000  Uiso   1.00
C1511  C     0.47662   0.35817   0.79718   0.00000  Uiso   1.00
C1512  C     0.52361   0.64183   0.86925   0.00000  Uiso   1.00
N1513  N     0.50000   0.61907   0.83333   0.00000  Uiso   1.00
N1514  N     0.50000   0.38093   0.83333   0.00000  Uiso   1.00
O1515  O     0.43892   0.53821   0.83333   0.00000  Uiso   1.00
O1516  O     0.56108   0.46179   0.83334   0.00000  Uiso   1.00
O1517  O     0.56108   0.53821   0.83334   0.00000  Uiso   1.00
O1518  O     0.43892   0.46179   0.83333   0.00000  Uiso   1.00
O1519  O     0.50000   0.53821   0.76178   0.00000  Uiso   1.00
O1520  O     0.50000   0.46179   0.90489   0.00000  Uiso   1.00
O1521  O     0.50000   0.53821   0.90489   0.00000  Uiso   1.00
O1522  O     0.50000   0.46179   0.76178   0.00000  Uiso   1.00
Zn1523 Zn    0.50000   0.55104   0.83333   0.00000  Uiso   1.00
Zn1524 Zn    0.50000   0.44896   0.83333   0.00000  Uiso   1.00
N1525  N     0.38170   0.43946   0.89682   0.00000  Uiso   1.00
H1526  H     0.37219   0.44129   0.93294   0.00000  Uiso   1.00
C1527  C     0.39380   0.39477   0.88192   0.00000  Uiso   1.00
H1528  H     0.37303   0.37006   0.89721   0.00000  Uiso   1.00
H1529  H     0.42598   0.38680   0.89740   0.00000  Uiso   1.00
H1530  H     0.39302   0.39181   0.84042   0.00000  Uiso   1.00
N1531  N     0.61724   0.56322   0.77365   0.00000  Uiso   1.00
H1532  H     0.62590   0.59592   0.77446   0.00000  Uiso   1.00
C1533  C     0.60669   0.54756   0.72334   0.00000  Uiso   1.00
H1534  H     0.63504   0.54436   0.70201   0.00000  Uiso   1.00
H1535  H     0.58438   0.57171   0.70345   0.00000  Uiso   1.00
H1536  H     0.59188   0.51473   0.72464   0.00000  Uiso   1.00
N1537  N     0.62974   0.42334   0.87152   0.00000  Uiso   1.00
H1538  H     0.64133   0.41170   0.90629   0.00000  Uiso   1.00
C1539  C     0.62571   0.38835   0.83433   0.00000  Uiso   1.00
H1540  H     0.65645   0.37733   0.82196   0.00000  Uiso   1.00
H1541  H     0.60609   0.40014   0.80075   0.00000  Uiso   1.00
H1542  H     0.61111   0.35914   0.85061   0.00000  Uiso   1.00
N1543  N     0.37032   0.57495   0.79216   0.00000  Uiso   1.00
H1544  H     0.36010   0.58412   0.75596   0.00000  Uiso   1.00
C1545  C     0.37125   0.61209   0.82675   0.00000  Uiso   1.00
H1546  H     0.33935   0.62287   0.83562   0.00000  Uiso   1.00
H1547  H     0.38609   0.64075   0.80966   0.00000  Uiso   1.00
H1548  H     0.38940   0.60261   0.86231   0.00000  Uiso   1.00
C1549  C     0.54355   0.38032   0.91403   0.00000  Uiso   1.00
H1550  H     0.57021   0.36170   0.93326   0.00000  Uiso   1.00
H1551  H     0.55692   0.41125   0.90154   0.00000  Uiso   1.00
H1552  H     0.52067   0.38751   0.94242   0.00000  Uiso   1.00
C1553  C     0.45714   0.61961   0.75220   0.00000  Uiso   1.00
H1554  H     0.48056   0.61189   0.72461   0.00000  Uiso   1.00
H1555  H     0.44316   0.58901   0.76470   0.00000  Uiso   1.00
H1556  H     0.43115   0.63833   0.73180   0.00000  Uiso   1.00
C1557  C     0.44848   0.38297   0.75804   0.00000  Uiso   1.00
H1558  H     0.41634   0.37120   0.75877   0.00000  Uiso   1.00
H1559  H     0.44476   0.41854   0.76423   0.00000  Uiso   1.00
H1560  H     0.46005   0.37788   0.72012   0.00000  Uiso   1.00
C1561  C     0.55261   0.61711   0.90756   0.00000  Uiso   1.00
H1562  H     0.55529   0.58134   0.90241   0.00000  Uiso   1.00
H1563  H     0.58478   0.62825   0.90463   0.00000  Uiso   1.00
H1564  H     0.54255   0.62314   0.94605   0.00000  Uiso   1.00
C1565  C     0.75351   0.50081   0.83475   0.00000  Uiso   1.00
C1566  C     0.91317   0.49906   0.83200   0.00000  Uiso   1.00
C1567  C     0.83305   0.50010   0.73971   0.00000  Uiso   1.00
C1568  C     0.83354   0.49990   0.92696   0.00000  Uiso   1.00
C1569  C     0.83317   0.50014   0.68850   0.00000  Uiso   1.00
C1570  C     0.83337   0.49986   0.97816   0.00000  Uiso   1.00
C1571  C     0.69093   0.46681   0.86079   0.00000  Uiso   1.00
C1572  C     0.97563   0.53237   0.80472   0.00000  Uiso   1.00
C1573  C     0.98156   0.46249   0.85399   0.00000  Uiso   1.00
C1574  C     0.68505   0.53642   0.81097   0.00000  Uiso   1.00
C1575  C     0.95741   0.49694   0.82878   0.00000  Uiso   1.00
C1576  C     0.70918   0.50229   0.83675   0.00000  Uiso   1.00
C1577  C     0.85581   0.35637   0.87016   0.00000  Uiso   1.00
C1578  C     0.81101   0.64363   0.79636   0.00000  Uiso   1.00
C1579  C     0.80995   0.35817   0.79718   0.00000  Uiso   1.00
C1580  C     0.85694   0.64183   0.86925   0.00000  Uiso   1.00
N1581  N     0.83333   0.61907   0.83333   0.00000  Uiso   1.00
N1582  N     0.83333   0.38093   0.83333   0.00000  Uiso   1.00
O1583  O     0.77226   0.53821   0.83333   0.00000  Uiso   1.00
O1584  O     0.89441   0.46179   0.83334   0.00000  Uiso   1.00
O1585  O     0.89441   0.53821   0.83334   0.00000  Uiso   1.00
O1586  O     0.77226   0.46179   0.83333   0.00000  Uiso   1.00
O1587  O     0.83334   0.53821   0.76178   0.00000  Uiso   1.00
O1588  O     0.83333   0.46179   0.90489   0.00000  Uiso   1.00
O1589  O     0.83333   0.53821   0.90489   0.00000  Uiso   1.00
O1590  O     0.83334   0.46179   0.76178   0.00000  Uiso   1.00
Zn1591 Zn    0.83333   0.55104   0.83333   0.00000  Uiso   1.00
Zn1592 Zn    0.83333   0.44896   0.83333   0.00000  Uiso   1.00
N1593  N     0.71504   0.43946   0.89682   0.00000  Uiso   1.00
H1594  H     0.70552   0.44129   0.93294   0.00000  Uiso   1.00
C1595  C     0.72714   0.39477   0.88192   0.00000  Uiso   1.00
H1596  H     0.70636   0.37006   0.89721   0.00000  Uiso   1.00
H1597  H     0.75932   0.38680   0.89740   0.00000  Uiso   1.00
H1598  H     0.72636   0.39181   0.84042   0.00000  Uiso   1.00
N1599  N     0.95057   0.56322   0.77365   0.00000  Uiso   1.00
H1600  H     0.95924   0.59592   0.77446   0.00000  Uiso   1.00
C1601  C     0.94003   0.54756   0.72334   0.00000  Uiso   1.00
H1602  H     0.96837   0.54436   0.70201   0.00000  Uiso   1.00
H1603  H     0.91771   0.57171   0.70345   0.00000  Uiso   1.00
H1604  H     0.92521   0.51473   0.72464   0.00000  Uiso   1.00
N1605  N     0.96307   0.42334   0.87152   0.00000  Uiso   1.00
H1606  H     0.97466   0.41170   0.90629   0.00000  Uiso   1.00
C1607  C     0.95904   0.38835   0.83433   0.00000  Uiso   1.00
H1608  H     0.98978   0.37733   0.82196   0.00000  Uiso   1.00
H1609  H     0.93943   0.40014   0.80075   0.00000  Uiso   1.00
H1610  H     0.94444   0.35914   0.85061   0.00000  Uiso   1.00
N1611  N     0.70365   0.57495   0.79216   0.00000  Uiso   1.00
H1612  H     0.69343   0.58412   0.75596   0.00000  Uiso   1.00
C1613  C     0.70458   0.61209   0.82675   0.00000  Uiso   1.00
H1614  H     0.67268   0.62287   0.83562   0.00000  Uiso   1.00
H1615  H     0.71942   0.64075   0.80966   0.00000  Uiso   1.00
H1616  H     0.72274   0.60261   0.86231   0.00000  Uiso   1.00
C1617  C     0.87689   0.38032   0.91403   0.00000  Uiso   1.00
H1618  H     0.90354   0.36170   0.93326   0.00000  Uiso   1.00
H1619  H     0.89025   0.41125   0.90154   0.00000  Uiso   1.00
H1620  H     0.85400   0.38751   0.94242   0.00000  Uiso   1.00
C1621  C     0.79047   0.61961   0.75220   0.00000  Uiso   1.00
H1622  H     0.81389   0.61189   0.72461   0.00000  Uiso   1.00
H1623  H     0.77649   0.58901   0.76470   0.00000  Uiso   1.00
H1624  H     0.76448   0.63833   0.73180   0.00000  Uiso   1.00
C1625  C     0.78181   0.38297   0.75804   0.00000  Uiso   1.00
H1626  H     0.74967   0.37120   0.75877   0.00000  Uiso   1.00
H1627  H     0.77810   0.41854   0.76423   0.00000  Uiso   1.00
H1628  H     0.79339   0.37788   0.72012   0.00000  Uiso   1.00
C1629  C     0.88594   0.61711   0.90756   0.00000  Uiso   1.00
H1630  H     0.88862   0.58134   0.90241   0.00000  Uiso   1.00
H1631  H     0.91812   0.62825   0.90463   0.00000  Uiso   1.00
H1632  H     0.87588   0.62314   0.94605   0.00000  Uiso   1.00
C1633  C     0.08684   0.83414   0.83475   0.00000  Uiso   1.00
C1634  C     0.24650   0.83240   0.83200   0.00000  Uiso   1.00
C1635  C     0.16638   0.83344   0.73971   0.00000  Uiso   1.00
C1636  C     0.16688   0.83323   0.92696   0.00000  Uiso   1.00
C1637  C     0.16651   0.83347   0.68850   0.00000  Uiso   1.00
C1638  C     0.16670   0.83320   0.97816   0.00000  Uiso   1.00
C1639  C     0.02426   0.80014   0.86079   0.00000  Uiso   1.00
C1640  C     0.30896   0.86570   0.80472   0.00000  Uiso   1.00
C1641  C     0.31489   0.79582   0.85399   0.00000  Uiso   1.00
C1642  C     0.01838   0.86975   0.81097   0.00000  Uiso   1.00
C1643  C     0.29074   0.83027   0.82878   0.00000  Uiso   1.00
C1644  C     0.04252   0.83562   0.83675   0.00000  Uiso   1.00
C1645  C     0.18914   0.68970   0.87016   0.00000  Uiso   1.00
C1646  C     0.14435   0.97696   0.79636   0.00000  Uiso   1.00
C1647  C     0.14329   0.69150   0.79718   0.00000  Uiso   1.00
C1648  C     0.19028   0.97516   0.86925   0.00000  Uiso   1.00
N1649  N     0.16667   0.95240   0.83333   0.00000  Uiso   1.00
N1650  N     0.16667   0.71427   0.83333   0.00000  Uiso   1.00
O1651  O     0.10559   0.87154   0.83333   0.00000  Uiso   1.00
O1652  O     0.22774   0.79513   0.83334   0.00000  Uiso   1.00
O1653  O     0.22774   0.87154   0.83334   0.00000  Uiso   1.00
O1654  O     0.10559   0.79513   0.83333   0.00000  Uiso   1.00
O1655  O     0.16667   0.87155   0.76178   0.00000  Uiso   1.00
O1656  O     0.16666   0.79512   0.90489   0.00000  Uiso   1.00
O1657  O     0.16666   0.87155   0.90489   0.00000  Uiso   1.00
O1658  O     0.16667   0.79512   0.76178   0.00000  Uiso   1.00
Zn1659 Zn    0.16667   0.88437   0.83333   0.00000  Uiso   1.00
Zn1660 Zn    0.16667   0.78229   0.83333   0.00000  Uiso   1.00
N1661  N     0.04837   0.77279   0.89682   0.00000  Uiso   1.00
H1662  H     0.03885   0.77462   0.93294   0.00000  Uiso   1.00
C1663  C     0.06047   0.72811   0.88192   0.00000  Uiso   1.00
H1664  H     0.03969   0.70340   0.89721   0.00000  Uiso   1.00
H1665  H     0.09265   0.72014   0.89740   0.00000  Uiso   1.00
H1666  H     0.05969   0.72514   0.84042   0.00000  Uiso   1.00
N1667  N     0.28391   0.89655   0.77365   0.00000  Uiso   1.00
H1668  H     0.29257   0.92925   0.77446   0.00000  Uiso   1.00
C1669  C     0.27336   0.88089   0.72334   0.00000  Uiso   1.00
H1670  H     0.30170   0.87769   0.70201   0.00000  Uiso   1.00
H1671  H     0.25104   0.90505   0.70345   0.00000  Uiso   1.00
H1672  H     0.25855   0.84806   0.72464   0.00000  Uiso   1.00
N1673  N     0.29640   0.75667   0.87152   0.00000  Uiso   1.00
H1674  H     0.30799   0.74504   0.90629   0.00000  Uiso   1.00
C1675  C     0.29237   0.72168   0.83433   0.00000  Uiso   1.00
H1676  H     0.32311   0.71066   0.82196   0.00000  Uiso   1.00
H1677  H     0.27276   0.73348   0.80075   0.00000  Uiso   1.00
H1678  H     0.27778   0.69248   0.85061   0.00000  Uiso   1.00
N1679  N     0.03699   0.90828   0.79216   0.00000  Uiso   1.00
H1680  H     0.02676   0.91745   0.75596   0.00000  Uiso   1.00
C1681  C     0.03791   0.94542   0.82675   0.00000  Uiso   1.00
H1682  H     0.00601   0.95621   0.83562   0.00000  Uiso   1.00
H1683  H     0.05276   0.97409   0.80966   0.00000  Uiso   1.00
H1684  H     0.05607   0.93595   0.86231   0.00000  Uiso   1.00
C1685  C     0.21022   0.71365   0.91403   0.00000  Uiso   1.00
H1686  H     0.23687   0.69504   0.93326   0.00000  Uiso   1.00
H1687  H     0.22358   0.74458   0.90154   0.00000  Uiso   1.00
H1688  H     0.18734   0.72084   0.94242   0.00000  Uiso   1.00
C1689  C     0.12381   0.95294   0.75220   0.00000  Uiso   1.00
H1690  H     0.14723   0.94522   0.72461   0.00000  Uiso   1.00
H1691  H     0.10983   0.92235   0.76470   0.00000  Uiso   1.00
H1692  H     0.09781   0.97167   0.73180   0.00000  Uiso   1.00
C1693  C     0.11514   0.71630   0.75804   0.00000  Uiso   1.00
H1694  H     0.08300   0.70454   0.75877   0.00000  Uiso   1.00
H1695  H     0.11143   0.75187   0.76423   0.00000  Uiso   1.00
H1696  H     0.12672   0.71122   0.72012   0.00000  Uiso   1.00
C1697  C     0.21927   0.95044   0.90756   0.00000  Uiso   1.00
H1698  H     0.22196   0.91467   0.90241   0.00000  Uiso   1.00
H1699  H     0.25145   0.96158   0.90463   0.00000  Uiso   1.00
H1700  H     0.20921   0.95648   0.94605   0.00000  Uiso   1.00
C1701  C     0.42017   0.83414   0.83475   0.00000  Uiso   1.00
C1702  C     0.57983   0.83240   0.83200   0.00000  Uiso   1.00
C1703  C     0.49971   0.83344   0.73971   0.00000  Uiso   1.00
C1704  C     0.50021   0.83323   0.92696   0.00000  Uiso   1.00
C1705  C     0.49984   0.83347   0.68850   0.00000  Uiso   1.00
C1706  C     0.50004   0.83320   0.97816   0.00000  Uiso   1.00
C1707  C     0.35759   0.80014   0.86079   0.00000  Uiso   1.00
C1708  C     0.64230   0.86570   0.80472   0.00000  Uiso   1.00
C1709  C     0.64823   0.79582   0.85399   0.00000  Uiso   1.00
C1710  C     0.35172   0.86975   0.81097   0.00000  Uiso   1.00
C1711  C     0.62408   0.83027   0.82878   0.00000  Uiso   1.00
C1712  C     0.37585   0.83562   0.83675   0.00000  Uiso   1.00
C1713  C     0.52247   0.68970   0.87016   0.00000  Uiso   1.00
C1714  C     0.47768   0.97696   0.79636   0.00000  Uiso   1.00
C1715  C     0.47662   0.69150   0.79718   0.00000  Uiso   1.00
C1716  C     0.52361   0.97516   0.86925   0.00000  Uiso   1.00
N1717  N     0.50000   0.95240   0.83333   0.00000  Uiso   1.00
N1718  N     0.50000   0.71427   0.83333   0.00000  Uiso   1.00
O1719  O     0.43892   0.87154   0.83333   0.00000  Uiso   1.00
O1720  O     0.56108   0.79513   0.83334   0.00000  Uiso   1.00
O1721  O     0.56108   0.87154   0.83334   0.00000  Uiso   1.00
O1722  O     0.43892   0.79513   0.83333   0.00000  Uiso   1.00
O1723  O     0.50000   0.87155   0.76178   0.00000  Uiso   1.00
O1724  O     0.50000   0.79512   0.90489   0.00000  Uiso   1.00
O1725  O     0.50000   0.87155   0.90489   0.00000  Uiso   1.00
O1726  O     0.50000   0.79512   0.76178   0.00000  Uiso   1.00
Zn1727 Zn    0.50000   0.88437   0.83333   0.00000  Uiso   1.00
Zn1728 Zn    0.50000   0.78229   0.83333   0.00000  Uiso   1.00
N1729  N     0.38170   0.77279   0.89682   0.00000  Uiso   1.00
H1730  H     0.37219   0.77462   0.93294   0.00000  Uiso   1.00
C1731  C     0.39380   0.72811   0.88192   0.00000  Uiso   1.00
H1732  H     0.37303   0.70340   0.89721   0.00000  Uiso   1.00
H1733  H     0.42598   0.72014   0.89740   0.00000  Uiso   1.00
H1734  H     0.39302   0.72514   0.84042   0.00000  Uiso   1.00
N1735  N     0.61724   0.89655   0.77365   0.00000  Uiso   1.00
H1736  H     0.62590   0.92925   0.77446   0.00000  Uiso   1.00
C1737  C     0.60669   0.88089   0.72334   0.00000  Uiso   1.00
H1738  H     0.63504   0.87769   0.70201   0.00000  Uiso   1.00
H1739  H     0.58438   0.90505   0.70345   0.00000  Uiso   1.00
H1740  H     0.59188   0.84806   0.72464   0.00000  Uiso   1.00
N1741  N     0.62974   0.75667   0.87152   0.00000  Uiso   1.00
H1742  H     0.64133   0.74504   0.90629   0.00000  Uiso   1.00
C1743  C     0.62571   0.72168   0.83433   0.00000  Uiso   1.00
H1744  H     0.65645   0.71066   0.82196   0.00000  Uiso   1.00
H1745  H     0.60609   0.73348   0.80075   0.00000  Uiso   1.00
H1746  H     0.61111   0.69248   0.85061   0.00000  Uiso   1.00
N1747  N     0.37032   0.90828   0.79216   0.00000  Uiso   1.00
H1748  H     0.36010   0.91745   0.75596   0.00000  Uiso   1.00
C1749  C     0.37125   0.94542   0.82675   0.00000  Uiso   1.00
H1750  H     0.33935   0.95621   0.83562   0.00000  Uiso   1.00
H1751  H     0.38609   0.97409   0.80966   0.00000  Uiso   1.00
H1752  H     0.38940   0.93595   0.86231   0.00000  Uiso   1.00
C1753  C     0.54355   0.71365   0.91403   0.00000  Uiso   1.00
H1754  H     0.57021   0.69504   0.93326   0.00000  Uiso   1.00
H1755  H     0.55692   0.74458   0.90154   0.00000  Uiso   1.00
H1756  H     0.52067   0.72084   0.94242   0.00000  Uiso   1.00
C1757  C     0.45714   0.95294   0.75220   0.00000  Uiso   1.00
H1758  H     0.48056   0.94522   0.72461   0.00000  Uiso   1.00
H1759  H     0.44316   0.92235   0.76470   0.00000  Uiso   1.00
H1760  H     0.43115   0.97167   0.73180   0.00000  Uiso   1.00
C1761  C     0.44848   0.71630   0.75804   0.00000  Uiso   1.00
H1762  H     0.41634   0.70454   0.75877   0.00000  Uiso   1.00
H1763  H     0.44476   0.75187   0.76423   0.00000  Uiso   1.00
H1764  H     0.46005   0.71122   0.72012   0.00000  Uiso   1.00
C1765  C     0.55261   0.95044   0.90756   0.00000  Uiso   1.00
H1766  H     0.55529   0.91467   0.90241   0.00000  Uiso   1.00
H1767  H     0.58478   0.96158   0.90463   0.00000  Uiso   1.00
H1768  H     0.54255   0.95648   0.94605   0.00000  Uiso   1.00
C1769  C     0.75351   0.83414   0.83475   0.00000  Uiso   1.00
C1770  C     0.91317   0.83240   0.83200   0.00000  Uiso   1.00
C1771  C     0.83305   0.83344   0.73971   0.00000  Uiso   1.00
C1772  C     0.83354   0.83323   0.92696   0.00000  Uiso   1.00
C1773  C     0.83317   0.83347   0.68850   0.00000  Uiso   1.00
C1774  C     0.83337   0.83320   0.97816   0.00000  Uiso   1.00
C1775  C     0.69093   0.80014   0.86079   0.00000  Uiso   1.00
C1776  C     0.97563   0.86570   0.80472   0.00000  Uiso   1.00
C1777  C     0.98156   0.79582   0.85399   0.00000  Uiso   1.00
C1778  C     0.68505   0.86975   0.81097   0.00000  Uiso   1.00
C1779  C     0.95741   0.83027   0.82878   0.00000  Uiso   1.00
C1780  C     0.70918   0.83562   0.83675   0.00000  Uiso   1.00
C1781  C     0.85581   0.68970   0.87016   0.00000  Uiso   1.00
C1782  C     0.81101   0.97696   0.79636   0.00000  Uiso   1.00
C1783  C     0.80995   0.69150   0.79718   0.00000  Uiso   1.00
C1784  C     0.85694   0.97516   0.86925   0.00000  Uiso   1.00
N1785  N     0.83333   0.95240   0.83333   0.00000  Uiso   1.00
N1786  N     0.83333   0.71427   0.83333   0.00000  Uiso   1.00
O1787  O     0.77226   0.87154   0.83333   0.00000  Uiso   1.00
O1788  O     0.89441   0.79513   0.83334   0.00000  Uiso   1.00
O1789  O     0.89441   0.87154   0.83334   0.00000  Uiso   1.00
O1790  O     0.77226   0.79513   0.83333   0.00000  Uiso   1.00
O1791  O     0.83334   0.87155   0.76178   0.00000  Uiso   1.00
O1792  O     0.83333   0.79512   0.90489   0.00000  Uiso   1.00
O1793  O     0.83333   0.87155   0.90489   0.00000  Uiso   1.00
O1794  O     0.83334   0.79512   0.76178   0.00000  Uiso   1.00
Zn1795 Zn    0.83333   0.88437   0.83333   0.00000  Uiso   1.00
Zn1796 Zn    0.83333   0.78229   0.83333   0.00000  Uiso   1.00
N1797  N     0.71504   0.77279   0.89682   0.00000  Uiso   1.00
H1798  H     0.70552   0.77462   0.93294   0.00000  Uiso   1.00
C1799  C     0.72714   0.72811   0.88192   0.00000  Uiso   1.00
H1800  H     0.70636   0.70340   0.89721   0.00000  Uiso   1.00
H1801  H     0.75932   0.72014   0.89740   0.00000  Uiso   1.00
H1802  H     0.72636   0.72514   0.84042   0.00000  Uiso   1.00
N1803  N     0.95057   0.89655   0.77365   0.00000  Uiso   1.00
H1804  H     0.95924   0.92925   0.77446   0.00000  Uiso   1.00
C1805  C     0.94003   0.88089   0.72334   0.00000  Uiso   1.00
H1806  H     0.96837   0.87769   0.70201   0.00000  Uiso   1.00
H1807  H     0.91771   0.90505   0.70345   0.00000  Uiso   1.00
H1808  H     0.92521   0.84806   0.72464   0.00000  Uiso   1.00
N1809  N     0.96307   0.75667   0.87152   0.00000  Uiso   1.00
H1810  H     0.97466   0.74504   0.90629   0.00000  Uiso   1.00
C1811  C     0.95904   0.72168   0.83433   0.00000  Uiso   1.00
H1812  H     0.98978   0.71066   0.82196   0.00000  Uiso   1.00
H1813  H     0.93943   0.73348   0.80075   0.00000  Uiso   1.00
H1814  H     0.94444   0.69248   0.85061   0.00000  Uiso   1.00
N1815  N     0.70365   0.90828   0.79216   0.00000  Uiso   1.00
H1816  H     0.69343   0.91745   0.75596   0.00000  Uiso   1.00
C1817  C     0.70458   0.94542   0.82675   0.00000  Uiso   1.00
H1818  H     0.67268   0.95621   0.83562   0.00000  Uiso   1.00
H1819  H     0.71942   0.97409   0.80966   0.00000  Uiso   1.00
H1820  H     0.72274   0.93595   0.86231   0.00000  Uiso   1.00
C1821  C     0.87689   0.71365   0.91403   0.00000  Uiso   1.00
H1822  H     0.90354   0.69504   0.93326   0.00000  Uiso   1.00
H1823  H     0.89025   0.74458   0.90154   0.00000  Uiso   1.00
H1824  H     0.85400   0.72084   0.94242   0.00000  Uiso   1.00
C1825  C     0.79047   0.95294   0.75220   0.00000  Uiso   1.00
H1826  H     0.81389   0.94522   0.72461   0.00000  Uiso   1.00
H1827  H     0.77649   0.92235   0.76470   0.00000  Uiso   1.00
H1828  H     0.76448   0.97167   0.73180   0.00000  Uiso   1.00
C1829  C     0.78181   0.71630   0.75804   0.00000  Uiso   1.00
H1830  H     0.74967   0.70454   0.75877   0.00000  Uiso   1.00
H1831  H     0.77810   0.75187   0.76423   0.00000  Uiso   1.00
H1832  H     0.79339   0.71122   0.72012   0.00000  Uiso   1.00
C1833  C     0.88594   0.95044   0.90756   0.00000  Uiso   1.00
H1834  H     0.88862   0.91467   0.90241   0.00000  Uiso   1.00
H1835  H     0.91812   0.96158   0.90463   0.00000  Uiso   1.00
H1836  H     0.87588   0.95648   0.94605   0.00000  Uiso   1.00
loop_
_geom_bond_atom_site_label_1
_geom_bond_atom_site_label_2
_geom_bond_distance
_geom_bond_site_symmetry_2
_ccdc_geom_bond_type
C1     O22     1.301   .     A
C1     C12     1.435   .     S
C1     O19     1.295   .     A
C2     O21     1.305   .     A
C2     C11     1.436   .     S
C2     O20     1.291   .     A
C3     O26     1.287   .     A
C3     C5      1.365   .     S
C3     O23     1.289   .     A
C4     O25     1.287   .     A
C4     C6      1.365   .     S
C4     O24     1.289   .     A
C5     C1230   1.165   1_554 S
C6     C617    1.165   .     S
C7     N29     1.431   .     S
C7     C12     1.406   .     A
C7     C145    1.389   1_455 S
C8     C11     1.404   .     A
C8     N35     1.430   .     S
C8     C78     1.389   .     S
C9     N41     1.426   .     S
C9     C11     1.412   .     A
C9     C75     1.389   .     S
C10    C12     1.411   .     A
C10    N47     1.424   .     S
C10    C144    1.389   1_455 S
C13    N18     1.375   .     A
C13    C53     1.512   .     S
C13    C424    1.436   1_545 S
C14    N17     1.376   .     A
C14    C57     1.511   .     S
C14    C219    1.436   .     S
C15    N18     1.383   .     A
C15    C61     1.511   .     S
C15    C422    1.436   1_545 S
C16    C65     1.511   .     S
C16    N17     1.382   .     A
C16    C217    1.436   .     S
N17    Zn27    2.041   .     S
N18    Zn28    2.041   .     S
O19    Zn27    2.023   .     S
O20    Zn28    2.023   .     S
O21    Zn27    1.997   .     S
O22    Zn28    1.997   .     S
O23    Zn27    1.948   .     S
O24    Zn28    1.948   .     S
O25    Zn27    1.943   .     S
O26    Zn28    1.943   .     S
N29    H30     1.031   .     S
N29    C31     1.449   .     S
C31    H33     1.110   .     S
C31    H32     1.110   .     S
C31    H34     1.109   .     S
N35    H36     1.029   .     S
N35    C37     1.446   .     S
C37    H38     1.111   .     S
C37    H40     1.111   .     S
C37    H39     1.111   .     S
N41    H42     1.030   .     S
N41    C43     1.452   .     S
C43    H44     1.107   .     S
C43    H45     1.110   .     S
C43    H46     1.109   .     S
N47    C49     1.450   .     S
N47    H48     1.031   .     S
C49    H52     1.111   .     S
C49    H50     1.110   .     S
C49    H51     1.109   .     S
C53    H54     1.104   .     S
C53    H55     1.096   .     S
C53    H56     1.110   .     S
C57    H58     1.109   .     S
C57    H59     1.096   .     S
C57    H60     1.104   .     S
C61    H63     1.085   .     S
C61    H64     1.111   .     S
C61    H62     1.109   .     S
C65    H68     1.111   .     S
C65    H66     1.084   .     S
C65    H67     1.110   .     S
C69    O90     1.301   .     A
C69    C80     1.435   .     S
C69    O87     1.295   .     A
C70    O89     1.305   .     A
C70    C79     1.436   .     S
C70    O88     1.291   .     A
C71    O94     1.287   .     A
C71    C73     1.365   .     S
C71    O91     1.289   .     A
C72    O93     1.287   .     A
C72    C74     1.365   .     S
C72    O92     1.289   .     A
C73    C1298   1.165   1_554 S
C74    C685    1.165   .     S
C75    N97     1.431   .     S
C75    C80     1.406   .     A
C76    C79     1.404   .     A
C76    N103    1.430   .     S
C76    C146    1.389   .     S
C77    N109    1.426   .     S
C77    C79     1.412   .     A
C77    C143    1.389   .     S
C78    C80     1.411   .     A
C78    N115    1.424   .     S
C81    N86     1.375   .     A
C81    C121    1.512   .     S
C81    C492    1.436   1_545 S
C82    N85     1.376   .     A
C82    C125    1.511   .     S
C82    C287    1.436   .     S
C83    N86     1.383   .     A
C83    C129    1.511   .     S
C83    C490    1.436   1_545 S
C84    C133    1.511   .     S
C84    N85     1.382   .     A
C84    C285    1.436   .     S
N85    Zn95    2.041   .     S
N86    Zn96    2.041   .     S
O87    Zn95    2.023   .     S
O88    Zn96    2.023   .     S
O89    Zn95    1.997   .     S
O90    Zn96    1.997   .     S
O91    Zn95    1.948   .     S
O92    Zn96    1.948   .     S
O93    Zn95    1.943   .     S
O94    Zn96    1.943   .     S
N97    H98     1.031   .     S
N97    C99     1.449   .     S
C99    H101    1.110   .     S
C99    H100    1.110   .     S
C99    H102    1.109   .     S
N103   H104    1.029   .     S
N103   C105    1.446   .     S
C105   H106    1.111   .     S
C105   H108    1.111   .     S
C105   H107    1.111   .     S
N109   H110    1.030   .     S
N109   C111    1.452   .     S
C111   H112    1.107   .     S
C111   H113    1.110   .     S
C111   H114    1.109   .     S
N115   C117    1.450   .     S
N115   H116    1.031   .     S
C117   H120    1.111   .     S
C117   H118    1.110   .     S
C117   H119    1.109   .     S
C121   H122    1.104   .     S
C121   H123    1.096   .     S
C121   H124    1.110   .     S
C125   H126    1.109   .     S
C125   H127    1.096   .     S
C125   H128    1.104   .     S
C129   H131    1.085   .     S
C129   H132    1.111   .     S
C129   H130    1.109   .     S
C133   H136    1.111   .     S
C133   H134    1.084   .     S
C133   H135    1.110   .     S
C137   O158    1.301   .     A
C137   C148    1.435   .     S
C137   O155    1.295   .     A
C138   O157    1.305   .     A
C138   C147    1.436   .     S
C138   O156    1.291   .     A
C139   O162    1.287   .     A
C139   C141    1.365   .     S
C139   O159    1.289   .     A
C140   O161    1.287   .     A
C140   C142    1.365   .     S
C140   O160    1.289   .     A
C141   C1366   1.165   1_554 S
C142   C753    1.165   .     S
C143   N165    1.431   .     S
C143   C148    1.406   .     A
C144   C147    1.404   .     A
C144   N171    1.430   .     S
C144   C10     1.389   1_655 S
C145   N177    1.426   .     S
C145   C147    1.412   .     A
C145   C7      1.389   1_655 S
C146   C148    1.411   .     A
C146   N183    1.424   .     S
C149   N154    1.375   .     A
C149   C189    1.512   .     S
C149   C560    1.436   1_545 S
C150   N153    1.376   .     A
C150   C193    1.511   .     S
C150   C355    1.436   .     S
C151   N154    1.383   .     A
C151   C197    1.511   .     S
C151   C558    1.436   1_545 S
C152   C201    1.511   .     S
C152   N153    1.382   .     A
C152   C353    1.436   .     S
N153   Zn163   2.041   .     S
N154   Zn164   2.041   .     S
O155   Zn163   2.023   .     S
O156   Zn164   2.023   .     S
O157   Zn163   1.997   .     S
O158   Zn164   1.997   .     S
O159   Zn163   1.948   .     S
O160   Zn164   1.948   .     S
O161   Zn163   1.943   .     S
O162   Zn164   1.943   .     S
N165   H166    1.031   .     S
N165   C167    1.449   .     S
C167   H169    1.110   .     S
C167   H168    1.110   .     S
C167   H170    1.109   .     S
N171   H172    1.029   .     S
N171   C173    1.446   .     S
C173   H174    1.111   .     S
C173   H176    1.111   .     S
C173   H175    1.111   .     S
N177   H178    1.030   .     S
N177   C179    1.452   .     S
C179   H180    1.107   .     S
C179   H181    1.110   .     S
C179   H182    1.109   .     S
N183   C185    1.450   .     S
N183   H184    1.031   .     S
C185   H188    1.111   .     S
C185   H186    1.110   .     S
C185   H187    1.109   .     S
C189   H190    1.104   .     S
C189   H191    1.096   .     S
C189   H192    1.110   .     S
C193   H194    1.109   .     S
C193   H195    1.096   .     S
C193   H196    1.104   .     S
C197   H199    1.085   .     S
C197   H200    1.111   .     S
C197   H198    1.109   .     S
C201   H204    1.111   .     S
C201   H202    1.084   .     S
C201   H203    1.110   .     S
C205   O226    1.301   .     A
C205   C216    1.435   .     S
C205   O223    1.295   .     A
C206   O225    1.305   .     A
C206   C215    1.436   .     S
C206   O224    1.291   .     A
C207   O230    1.287   .     A
C207   C209    1.365   .     S
C207   O227    1.289   .     A
C208   O229    1.287   .     A
C208   C210    1.365   .     S
C208   O228    1.289   .     A
C209   C1434   1.165   1_554 S
C210   C821    1.165   .     S
C211   N233    1.431   .     S
C211   C216    1.406   .     A
C211   C349    1.389   1_455 S
C212   C215    1.404   .     A
C212   N239    1.430   .     S
C212   C282    1.389   .     S
C213   N245    1.426   .     S
C213   C215    1.412   .     A
C213   C279    1.389   .     S
C214   C216    1.411   .     A
C214   N251    1.424   .     S
C214   C348    1.389   1_455 S
C217   N222    1.375   .     A
C217   C257    1.512   .     S
C218   N221    1.376   .     A
C218   C261    1.511   .     S
C218   C423    1.436   .     S
C219   N222    1.383   .     A
C219   C265    1.511   .     S
C220   C269    1.511   .     S
C220   N221    1.382   .     A
C220   C421    1.436   .     S
N221   Zn231   2.041   .     S
N222   Zn232   2.041   .     S
O223   Zn231   2.023   .     S
O224   Zn232   2.023   .     S
O225   Zn231   1.997   .     S
O226   Zn232   1.997   .     S
O227   Zn231   1.948   .     S
O228   Zn232   1.948   .     S
O229   Zn231   1.943   .     S
O230   Zn232   1.943   .     S
N233   H234    1.031   .     S
N233   C235    1.449   .     S
C235   H237    1.110   .     S
C235   H236    1.110   .     S
C235   H238    1.109   .     S
N239   H240    1.029   .     S
N239   C241    1.446   .     S
C241   H242    1.111   .     S
C241   H244    1.111   .     S
C241   H243    1.111   .     S
N245   H246    1.030   .     S
N245   C247    1.452   .     S
C247   H248    1.107   .     S
C247   H249    1.110   .     S
C247   H250    1.109   .     S
N251   C253    1.450   .     S
N251   H252    1.031   .     S
C253   H256    1.111   .     S
C253   H254    1.110   .     S
C253   H255    1.109   .     S
C257   H258    1.104   .     S
C257   H259    1.096   .     S
C257   H260    1.110   .     S
C261   H262    1.109   .     S
C261   H263    1.096   .     S
C261   H264    1.104   .     S
C265   H267    1.085   .     S
C265   H268    1.111   .     S
C265   H266    1.109   .     S
C269   H272    1.111   .     S
C269   H270    1.084   .     S
C269   H271    1.110   .     S
C273   O294    1.301   .     A
C273   C284    1.435   .     S
C273   O291    1.295   .     A
C274   O293    1.305   .     A
C274   C283    1.436   .     S
C274   O292    1.291   .     A
C275   O298    1.287   .     A
C275   C277    1.365   .     S
C275   O295    1.289   .     A
C276   O297    1.287   .     A
C276   C278    1.365   .     S
C276   O296    1.289   .     A
C277   C1502   1.165   1_554 S
C278   C889    1.165   .     S
C279   N301    1.431   .     S
C279   C284    1.406   .     A
C280   C283    1.404   .     A
C280   N307    1.430   .     S
C280   C350    1.389   .     S
C281   N313    1.426   .     S
C281   C283    1.412   .     A
C281   C347    1.389   .     S
C282   C284    1.411   .     A
C282   N319    1.424   .     S
C285   N290    1.375   .     A
C285   C325    1.512   .     S
C286   N289    1.376   .     A
C286   C329    1.511   .     S
C286   C491    1.436   .     S
C287   N290    1.383   .     A
C287   C333    1.511   .     S
C288   C337    1.511   .     S
C288   N289    1.382   .     A
C288   C489    1.436   .     S
N289   Zn299   2.041   .     S
N290   Zn300   2.041   .     S
O291   Zn299   2.023   .     S
O292   Zn300   2.023   .     S
O293   Zn299   1.997   .     S
O294   Zn300   1.997   .     S
O295   Zn299   1.948   .     S
O296   Zn300   1.948   .     S
O297   Zn299   1.943   .     S
O298   Zn300   1.943   .     S
N301   H302    1.031   .     S
N301   C303    1.449   .     S
C303   H305    1.110   .     S
C303   H304    1.110   .     S
C303   H306    1.109   .     S
N307   H308    1.029   .     S
N307   C309    1.446   .     S
C309   H310    1.111   .     S
C309   H312    1.111   .     S
C309   H311    1.111   .     S
N313   H314    1.030   .     S
N313   C315    1.452   .     S
C315   H316    1.107   .     S
C315   H317    1.110   .     S
C315   H318    1.109   .     S
N319   C321    1.450   .     S
N319   H320    1.031   .     S
C321   H324    1.111   .     S
C321   H322    1.110   .     S
C321   H323    1.109   .     S
C325   H326    1.104   .     S
C325   H327    1.096   .     S
C325   H328    1.110   .     S
C329   H330    1.109   .     S
C329   H331    1.096   .     S
C329   H332    1.104   .     S
C333   H335    1.085   .     S
C333   H336    1.111   .     S
C333   H334    1.109   .     S
C337   H340    1.111   .     S
C337   H338    1.084   .     S
C337   H339    1.110   .     S
C341   O362    1.301   .     A
C341   C352    1.435   .     S
C341   O359    1.295   .     A
C342   O361    1.305   .     A
C342   C351    1.436   .     S
C342   O360    1.291   .     A
C343   O366    1.287   .     A
C343   C345    1.365   .     S
C343   O363    1.289   .     A
C344   O365    1.287   .     A
C344   C346    1.365   .     S
C344   O364    1.289   .     A
C345   C1570   1.165   1_554 S
C346   C957    1.165   .     S
C347   N369    1.431   .     S
C347   C352    1.406   .     A
C348   C351    1.404   .     A
C348   N375    1.430   .     S
C348   C214    1.389   1_655 S
C349   N381    1.426   .     S
C349   C351    1.412   .     A
C349   C211    1.389   1_655 S
C350   C352    1.411   .     A
C350   N387    1.424   .     S
C353   N358    1.375   .     A
C353   C393    1.512   .     S
C354   N357    1.376   .     A
C354   C397    1.511   .     S
C354   C559    1.436   .     S
C355   N358    1.383   .     A
C355   C401    1.511   .     S
C356   C405    1.511   .     S
C356   N357    1.382   .     A
C356   C557    1.436   .     S
N357   Zn367   2.041   .     S
N358   Zn368   2.041   .     S
O359   Zn367   2.023   .     S
O360   Zn368   2.023   .     S
O361   Zn367   1.997   .     S
O362   Zn368   1.997   .     S
O363   Zn367   1.948   .     S
O364   Zn368   1.948   .     S
O365   Zn367   1.943   .     S
O366   Zn368   1.943   .     S
N369   H370    1.031   .     S
N369   C371    1.449   .     S
C371   H373    1.110   .     S
C371   H372    1.110   .     S
C371   H374    1.109   .     S
N375   H376    1.029   .     S
N375   C377    1.446   .     S
C377   H378    1.111   .     S
C377   H380    1.111   .     S
C377   H379    1.111   .     S
N381   H382    1.030   .     S
N381   C383    1.452   .     S
C383   H384    1.107   .     S
C383   H385    1.110   .     S
C383   H386    1.109   .     S
N387   C389    1.450   .     S
N387   H388    1.031   .     S
C389   H392    1.111   .     S
C389   H390    1.110   .     S
C389   H391    1.109   .     S
C393   H394    1.104   .     S
C393   H395    1.096   .     S
C393   H396    1.110   .     S
C397   H398    1.109   .     S
C397   H399    1.096   .     S
C397   H400    1.104   .     S
C401   H403    1.085   .     S
C401   H404    1.111   .     S
C401   H402    1.109   .     S
C405   H408    1.111   .     S
C405   H406    1.084   .     S
C405   H407    1.110   .     S
C409   O430    1.301   .     A
C409   C420    1.435   .     S
C409   O427    1.295   .     A
C410   O429    1.305   .     A
C410   C419    1.436   .     S
C410   O428    1.291   .     A
C411   O434    1.287   .     A
C411   C413    1.365   .     S
C411   O431    1.289   .     A
C412   O433    1.287   .     A
C412   C414    1.365   .     S
C412   O432    1.289   .     A
C413   C1638   1.165   1_554 S
C414   C1025   1.165   .     S
C415   N437    1.431   .     S
C415   C420    1.406   .     A
C415   C553    1.389   1_455 S
C416   C419    1.404   .     A
C416   N443    1.430   .     S
C416   C486    1.389   .     S
C417   N449    1.426   .     S
C417   C419    1.412   .     A
C417   C483    1.389   .     S
C418   C420    1.411   .     A
C418   N455    1.424   .     S
C418   C552    1.389   1_455 S
C421   N426    1.375   .     A
C421   C461    1.512   .     S
C422   N425    1.376   .     A
C422   C465    1.511   .     S
C422   C15     1.436   1_565 S
C423   N426    1.383   .     A
C423   C469    1.511   .     S
C424   C473    1.511   .     S
C424   N425    1.382   .     A
C424   C13     1.436   1_565 S
N425   Zn435   2.041   .     S
N426   Zn436   2.041   .     S
O427   Zn435   2.023   .     S
O428   Zn436   2.023   .     S
O429   Zn435   1.997   .     S
O430   Zn436   1.997   .     S
O431   Zn435   1.948   .     S
O432   Zn436   1.948   .     S
O433   Zn435   1.943   .     S
O434   Zn436   1.943   .     S
N437   H438    1.031   .     S
N437   C439    1.449   .     S
C439   H441    1.110   .     S
C439   H440    1.110   .     S
C439   H442    1.109   .     S
N443   H444    1.029   .     S
N443   C445    1.446   .     S
C445   H446    1.111   .     S
C445   H448    1.111   .     S
C445   H447    1.111   .     S
N449   H450    1.030   .     S
N449   C451    1.452   .     S
C451   H452    1.107   .     S
C451   H453    1.110   .     S
C451   H454    1.109   .     S
N455   C457    1.450   .     S
N455   H456    1.031   .     S
C457   H460    1.111   .     S
C457   H458    1.110   .     S
C457   H459    1.109   .     S
C461   H462    1.104   .     S
C461   H463    1.096   .     S
C461   H464    1.110   .     S
C465   H466    1.109   .     S
C465   H467    1.096   .     S
C465   H468    1.104   .     S
C469   H471    1.085   .     S
C469   H472    1.111   .     S
C469   H470    1.109   .     S
C473   H476    1.111   .     S
C473   H474    1.084   .     S
C473   H475    1.110   .     S
C477   O498    1.301   .     A
C477   C488    1.435   .     S
C477   O495    1.295   .     A
C478   O497    1.305   .     A
C478   C487    1.436   .     S
C478   O496    1.291   .     A
C479   O502    1.287   .     A
C479   C481    1.365   .     S
C479   O499    1.289   .     A
C480   O501    1.287   .     A
C480   C482    1.365   .     S
C480   O500    1.289   .     A
C481   C1706   1.165   1_554 S
C482   C1093   1.165   .     S
C483   N505    1.431   .     S
C483   C488    1.406   .     A
C484   C487    1.404   .     A
C484   N511    1.430   .     S
C484   C554    1.389   .     S
C485   N517    1.426   .     S
C485   C487    1.412   .     A
C485   C551    1.389   .     S
C486   C488    1.411   .     A
C486   N523    1.424   .     S
C489   N494    1.375   .     A
C489   C529    1.512   .     S
C490   N493    1.376   .     A
C490   C533    1.511   .     S
C490   C83     1.436   1_565 S
C491   N494    1.383   .     A
C491   C537    1.511   .     S
C492   C541    1.511   .     S
C492   N493    1.382   .     A
C492   C81     1.436   1_565 S
N493   Zn503   2.041   .     S
N494   Zn504   2.041   .     S
O495   Zn503   2.023   .     S
O496   Zn504   2.023   .     S
O497   Zn503   1.997   .     S
O498   Zn504   1.997   .     S
O499   Zn503   1.948   .     S
O500   Zn504   1.948   .     S
O501   Zn503   1.943   .     S
O502   Zn504   1.943   .     S
N505   H506    1.031   .     S
N505   C507    1.449   .     S
C507   H509    1.110   .     S
C507   H508    1.110   .     S
C507   H510    1.109   .     S
N511   H512    1.029   .     S
N511   C513    1.446   .     S
C513   H514    1.111   .     S
C513   H516    1.111   .     S
C513   H515    1.111   .     S
N517   H518    1.030   .     S
N517   C519    1.452   .     S
C519   H520    1.107   .     S
C519   H521    1.110   .     S
C519   H522    1.109   .     S
N523   C525    1.450   .     S
N523   H524    1.031   .     S
C525   H528    1.111   .     S
C525   H526    1.110   .     S
C525   H527    1.109   .     S
C529   H530    1.104   .     S
C529   H531    1.096   .     S
C529   H532    1.110   .     S
C533   H534    1.109   .     S
C533   H535    1.096   .     S
C533   H536    1.104   .     S
C537   H539    1.085   .     S
C537   H540    1.111   .     S
C537   H538    1.109   .     S
C541   H544    1.111   .     S
C541   H542    1.084   .     S
C541   H543    1.110   .     S
C545   O566    1.301   .     A
C545   C556    1.435   .     S
C545   O563    1.295   .     A
C546   O565    1.305   .     A
C546   C555    1.436   .     S
C546   O564    1.291   .     A
C547   O570    1.287   .     A
C547   C549    1.365   .     S
C547   O567    1.289   .     A
C548   O569    1.287   .     A
C548   C550    1.365   .     S
C548   O568    1.289   .     A
C549   C1774   1.165   1_554 S
C550   C1161   1.165   .     S
C551   N573    1.431   .     S
C551   C556    1.406   .     A
C552   C555    1.404   .     A
C552   N579    1.430   .     S
C552   C418    1.389   1_655 S
C553   N585    1.426   .     S
C553   C555    1.412   .     A
C553   C415    1.389   1_655 S
C554   C556    1.411   .     A
C554   N591    1.424   .     S
C557   N562    1.375   .     A
C557   C597    1.512   .     S
C558   N561    1.376   .     A
C558   C601    1.511   .     S
C558   C151    1.436   1_565 S
C559   N562    1.383   .     A
C559   C605    1.511   .     S
C560   C609    1.511   .     S
C560   N561    1.382   .     A
C560   C149    1.436   1_565 S
N561   Zn571   2.041   .     S
N562   Zn572   2.041   .     S
O563   Zn571   2.023   .     S
O564   Zn572   2.023   .     S
O565   Zn571   1.997   .     S
O566   Zn572   1.997   .     S
O567   Zn571   1.948   .     S
O568   Zn572   1.948   .     S
O569   Zn571   1.943   .     S
O570   Zn572   1.943   .     S
N573   H574    1.031   .     S
N573   C575    1.449   .     S
C575   H577    1.110   .     S
C575   H576    1.110   .     S
C575   H578    1.109   .     S
N579   H580    1.029   .     S
N579   C581    1.446   .     S
C581   H582    1.111   .     S
C581   H584    1.111   .     S
C581   H583    1.111   .     S
N585   H586    1.030   .     S
N585   C587    1.452   .     S
C587   H588    1.107   .     S
C587   H589    1.110   .     S
C587   H590    1.109   .     S
N591   C593    1.450   .     S
N591   H592    1.031   .     S
C593   H596    1.111   .     S
C593   H594    1.110   .     S
C593   H595    1.109   .     S
C597   H598    1.104   .     S
C597   H599    1.096   .     S
C597   H600    1.110   .     S
C601   H602    1.109   .     S
C601   H603    1.096   .     S
C601   H604    1.104   .     S
C605   H607    1.085   .     S
C605   H608    1.111   .     S
C605   H606    1.109   .     S
C609   H612    1.111   .     S
C609   H610    1.084   .     S
C609   H611    1.110   .     S
C613   O634    1.301   .     A
C613   C624    1.435   .     S
C613   O631    1.295   .     A
C614   O633    1.305   .     A
C614   C623    1.436   .     S
C614   O632    1.291   .     A
C615   O638    1.287   .     A
C615   C617    1.365   .     S
C615   O635    1.289   .     A
C616   O637    1.287   .     A
C616   C618    1.365   .     S
C616   O636    1.289   .     A
C618   C1229   1.165   .     S
C619   N641    1.431   .     S
C619   C624    1.406   .     A
C619   C757    1.389   1_455 S
C620   C623    1.404   .     A
C620   N647    1.430   .     S
C620   C690    1.389   .     S
C621   N653    1.426   .     S
C621   C623    1.412   .     A
C621   C687    1.389   .     S
C622   C624    1.411   .     A
C622   N659    1.424   .     S
C622   C756    1.389   1_455 S
C625   N630    1.375   .     A
C625   C665    1.512   .     S
C625   C1036   1.436   1_545 S
C626   N629    1.376   .     A
C626   C669    1.511   .     S
C626   C831    1.436   .     S
C627   N630    1.383   .     A
C627   C673    1.511   .     S
C627   C1034   1.436   1_545 S
C628   C677    1.511   .     S
C628   N629    1.382   .     A
C628   C829    1.436   .     S
N629   Zn639   2.041   .     S
N630   Zn640   2.041   .     S
O631   Zn639   2.023   .     S
O632   Zn640   2.023   .     S
O633   Zn639   1.997   .     S
O634   Zn640   1.997   .     S
O635   Zn639   1.948   .     S
O636   Zn640   1.948   .     S
O637   Zn639   1.943   .     S
O638   Zn640   1.943   .     S
N641   H642    1.031   .     S
N641   C643    1.449   .     S
C643   H645    1.110   .     S
C643   H644    1.110   .     S
C643   H646    1.109   .     S
N647   H648    1.029   .     S
N647   C649    1.446   .     S
C649   H650    1.111   .     S
C649   H652    1.111   .     S
C649   H651    1.111   .     S
N653   H654    1.030   .     S
N653   C655    1.452   .     S
C655   H656    1.107   .     S
C655   H657    1.110   .     S
C655   H658    1.109   .     S
N659   C661    1.450   .     S
N659   H660    1.031   .     S
C661   H664    1.111   .     S
C661   H662    1.110   .     S
C661   H663    1.109   .     S
C665   H666    1.104   .     S
C665   H667    1.096   .     S
C665   H668    1.110   .     S
C669   H670    1.109   .     S
C669   H671    1.096   .     S
C669   H672    1.104   .     S
C673   H675    1.085   .     S
C673   H676    1.111   .     S
C673   H674    1.109   .     S
C677   H680    1.111   .     S
C677   H678    1.084   .     S
C677   H679    1.110   .     S
C681   O702    1.301   .     A
C681   C692    1.435   .     S
C681   O699    1.295   .     A
C682   O701    1.305   .     A
C682   C691    1.436   .     S
C682   O700    1.291   .     A
C683   O706    1.287   .     A
C683   C685    1.365   .     S
C683   O703    1.289   .     A
C684   O705    1.287   .     A
C684   C686    1.365   .     S
C684   O704    1.289   .     A
C686   C1297   1.165   .     S
C687   N709    1.431   .     S
C687   C692    1.406   .     A
C688   C691    1.404   .     A
C688   N715    1.430   .     S
C688   C758    1.389   .     S
C689   N721    1.426   .     S
C689   C691    1.412   .     A
C689   C755    1.389   .     S
C690   C692    1.411   .     A
C690   N727    1.424   .     S
C693   N698    1.375   .     A
C693   C733    1.512   .     S
C693   C1104   1.436   1_545 S
C694   N697    1.376   .     A
C694   C737    1.511   .     S
C694   C899    1.436   .     S
C695   N698    1.383   .     A
C695   C741    1.511   .     S
C695   C1102   1.436   1_545 S
C696   C745    1.511   .     S
C696   N697    1.382   .     A
C696   C897    1.436   .     S
N697   Zn707   2.041   .     S
N698   Zn708   2.041   .     S
O699   Zn707   2.023   .     S
O700   Zn708   2.023   .     S
O701   Zn707   1.997   .     S
O702   Zn708   1.997   .     S
O703   Zn707   1.948   .     S
O704   Zn708   1.948   .     S
O705   Zn707   1.943   .     S
O706   Zn708   1.943   .     S
N709   H710    1.031   .     S
N709   C711    1.449   .     S
C711   H713    1.110   .     S
C711   H712    1.110   .     S
C711   H714    1.109   .     S
N715   H716    1.029   .     S
N715   C717    1.446   .     S
C717   H718    1.111   .     S
C717   H720    1.111   .     S
C717   H719    1.111   .     S
N721   H722    1.030   .     S
N721   C723    1.452   .     S
C723   H724    1.107   .     S
C723   H725    1.110   .     S
C723   H726    1.109   .     S
N727   C729    1.450   .     S
N727   H728    1.031   .     S
C729   H732    1.111   .     S
C729   H730    1.110   .     S
C729   H731    1.109   .     S
C733   H734    1.104   .     S
C733   H735    1.096   .     S
C733   H736    1.110   .     S
C737   H738    1.109   .     S
C737   H739    1.096   .     S
C737   H740    1.104   .     S
C741   H743    1.085   .     S
C741   H744    1.111   .     S
C741   H742    1.109   .     S
C745   H748    1.111   .     S
C745   H746    1.084   .     S
C745   H747    1.110   .     S
C749   O770    1.301   .     A
C749   C760    1.435   .     S
C749   O767    1.295   .     A
C750   O769    1.305   .     A
C750   C759    1.436   .     S
C750   O768    1.291   .     A
C751   O774    1.287   .     A
C751   C753    1.365   .     S
C751   O771    1.289   .     A
C752   O773    1.287   .     A
C752   C754    1.365   .     S
C752   O772    1.289   .     A
C754   C1365   1.165   .     S
C755   N777    1.431   .     S
C755   C760    1.406   .     A
C756   C759    1.404   .     A
C756   N783    1.430   .     S
C756   C622    1.389   1_655 S
C757   N789    1.426   .     S
C757   C759    1.412   .     A
C757   C619    1.389   1_655 S
C758   C760    1.411   .     A
C758   N795    1.424   .     S
C761   N766    1.375   .     A
C761   C801    1.512   .     S
C761   C1172   1.436   1_545 S
C762   N765    1.376   .     A
C762   C805    1.511   .     S
C762   C967    1.436   .     S
C763   N766    1.383   .     A
C763   C809    1.511   .     S
C763   C1170   1.436   1_545 S
C764   C813    1.511   .     S
C764   N765    1.382   .     A
C764   C965    1.436   .     S
N765   Zn775   2.041   .     S
N766   Zn776   2.041   .     S
O767   Zn775   2.023   .     S
O768   Zn776   2.023   .     S
O769   Zn775   1.997   .     S
O770   Zn776   1.997   .     S
O771   Zn775   1.948   .     S
O772   Zn776   1.948   .     S
O773   Zn775   1.943   .     S
O774   Zn776   1.943   .     S
N777   H778    1.031   .     S
N777   C779    1.449   .     S
C779   H781    1.110   .     S
C779   H780    1.110   .     S
C779   H782    1.109   .     S
N783   H784    1.029   .     S
N783   C785    1.446   .     S
C785   H786    1.111   .     S
C785   H788    1.111   .     S
C785   H787    1.111   .     S
N789   H790    1.030   .     S
N789   C791    1.452   .     S
C791   H792    1.107   .     S
C791   H793    1.110   .     S
C791   H794    1.109   .     S
N795   C797    1.450   .     S
N795   H796    1.031   .     S
C797   H800    1.111   .     S
C797   H798    1.110   .     S
C797   H799    1.109   .     S
C801   H802    1.104   .     S
C801   H803    1.096   .     S
C801   H804    1.110   .     S
C805   H806    1.109   .     S
C805   H807    1.096   .     S
C805   H808    1.104   .     S
C809   H811    1.085   .     S
C809   H812    1.111   .     S
C809   H810    1.109   .     S
C813   H816    1.111   .     S
C813   H814    1.084   .     S
C813   H815    1.110   .     S
C817   O838    1.301   .     A
C817   C828    1.435   .     S
C817   O835    1.295   .     A
C818   O837    1.305   .     A
C818   C827    1.436   .     S
C818   O836    1.291   .     A
C819   O842    1.287   .     A
C819   C821    1.365   .     S
C819   O839    1.289   .     A
C820   O841    1.287   .     A
C820   C822    1.365   .     S
C820   O840    1.289   .     A
C822   C1433   1.165   .     S
C823   N845    1.431   .     S
C823   C828    1.406   .     A
C823   C961    1.389   1_455 S
C824   C827    1.404   .     A
C824   N851    1.430   .     S
C824   C894    1.389   .     S
C825   N857    1.426   .     S
C825   C827    1.412   .     A
C825   C891    1.389   .     S
C826   C828    1.411   .     A
C826   N863    1.424   .     S
C826   C960    1.389   1_455 S
C829   N834    1.375   .     A
C829   C869    1.512   .     S
C830   N833    1.376   .     A
C830   C873    1.511   .     S
C830   C1035   1.436   .     S
C831   N834    1.383   .     A
C831   C877    1.511   .     S
C832   C881    1.511   .     S
C832   N833    1.382   .     A
C832   C1033   1.436   .     S
N833   Zn843   2.041   .     S
N834   Zn844   2.041   .     S
O835   Zn843   2.023   .     S
O836   Zn844   2.023   .     S
O837   Zn843   1.997   .     S
O838   Zn844   1.997   .     S
O839   Zn843   1.948   .     S
O840   Zn844   1.948   .     S
O841   Zn843   1.943   .     S
O842   Zn844   1.943   .     S
N845   H846    1.031   .     S
N845   C847    1.449   .     S
C847   H849    1.110   .     S
C847   H848    1.110   .     S
C847   H850    1.109   .     S
N851   H852    1.029   .     S
N851   C853    1.446   .     S
C853   H854    1.111   .     S
C853   H856    1.111   .     S
C853   H855    1.111   .     S
N857   H858    1.030   .     S
N857   C859    1.452   .     S
C859   H860    1.107   .     S
C859   H861    1.110   .     S
C859   H862    1.109   .     S
N863   C865    1.450   .     S
N863   H864    1.031   .     S
C865   H868    1.111   .     S
C865   H866    1.110   .     S
C865   H867    1.109   .     S
C869   H870    1.104   .     S
C869   H871    1.096   .     S
C869   H872    1.110   .     S
C873   H874    1.109   .     S
C873   H875    1.096   .     S
C873   H876    1.104   .     S
C877   H879    1.085   .     S
C877   H880    1.111   .     S
C877   H878    1.109   .     S
C881   H884    1.111   .     S
C881   H882    1.084   .     S
C881   H883    1.110   .     S
C885   O906    1.301   .     A
C885   C896    1.435   .     S
C885   O903    1.295   .     A
C886   O905    1.305   .     A
C886   C895    1.436   .     S
C886   O904    1.291   .     A
C887   O910    1.287   .     A
C887   C889    1.365   .     S
C887   O907    1.289   .     A
C888   O909    1.287   .     A
C888   C890    1.365   .     S
C888   O908    1.289   .     A
C890   C1501   1.165   .     S
C891   N913    1.431   .     S
C891   C896    1.406   .     A
C892   C895    1.404   .     A
C892   N919    1.430   .     S
C892   C962    1.389   .     S
C893   N925    1.426   .     S
C893   C895    1.412   .     A
C893   C959    1.389   .     S
C894   C896    1.411   .     A
C894   N931    1.424   .     S
C897   N902    1.375   .     A
C897   C937    1.512   .     S
C898   N901    1.376   .     A
C898   C941    1.511   .     S
C898   C1103   1.436   .     S
C899   N902    1.383   .     A
C899   C945    1.511   .     S
C900   C949    1.511   .     S
C900   N901    1.382   .     A
C900   C1101   1.436   .     S
N901   Zn911   2.041   .     S
N902   Zn912   2.041   .     S
O903   Zn911   2.023   .     S
O904   Zn912   2.023   .     S
O905   Zn911   1.997   .     S
O906   Zn912   1.997   .     S
O907   Zn911   1.948   .     S
O908   Zn912   1.948   .     S
O909   Zn911   1.943   .     S
O910   Zn912   1.943   .     S
N913   H914    1.031   .     S
N913   C915    1.449   .     S
C915   H917    1.110   .     S
C915   H916    1.110   .     S
C915   H918    1.109   .     S
N919   H920    1.029   .     S
N919   C921    1.446   .     S
C921   H922    1.111   .     S
C921   H924    1.111   .     S
C921   H923    1.111   .     S
N925   H926    1.030   .     S
N925   C927    1.452   .     S
C927   H928    1.107   .     S
C927   H929    1.110   .     S
C927   H930    1.109   .     S
N931   C933    1.450   .     S
N931   H932    1.031   .     S
C933   H936    1.111   .     S
C933   H934    1.110   .     S
C933   H935    1.109   .     S
C937   H938    1.104   .     S
C937   H939    1.096   .     S
C937   H940    1.110   .     S
C941   H942    1.109   .     S
C941   H943    1.096   .     S
C941   H944    1.104   .     S
C945   H947    1.085   .     S
C945   H948    1.111   .     S
C945   H946    1.109   .     S
C949   H952    1.111   .     S
C949   H950    1.084   .     S
C949   H951    1.110   .     S
C953   O974    1.301   .     A
C953   C964    1.435   .     S
C953   O971    1.295   .     A
C954   O973    1.305   .     A
C954   C963    1.436   .     S
C954   O972    1.291   .     A
C955   O978    1.287   .     A
C955   C957    1.365   .     S
C955   O975    1.289   .     A
C956   O977    1.287   .     A
C956   C958    1.365   .     S
C956   O976    1.289   .     A
C958   C1569   1.165   .     S
C959   N981    1.431   .     S
C959   C964    1.406   .     A
C960   C963    1.404   .     A
C960   N987    1.430   .     S
C960   C826    1.389   1_655 S
C961   N993    1.426   .     S
C961   C963    1.412   .     A
C961   C823    1.389   1_655 S
C962   C964    1.411   .     A
C962   N999    1.424   .     S
C965   N970    1.375   .     A
C965   C1005   1.512   .     S
C966   N969    1.376   .     A
C966   C1009   1.511   .     S
C966   C1171   1.436   .     S
C967   N970    1.383   .     A
C967   C1013   1.511   .     S
C968   C1017   1.511   .     S
C968   N969    1.382   .     A
C968   C1169   1.436   .     S
N969   Zn979   2.041   .     S
N970   Zn980   2.041   .     S
O971   Zn979   2.023   .     S
O972   Zn980   2.023   .     S
O973   Zn979   1.997   .     S
O974   Zn980   1.997   .     S
O975   Zn979   1.948   .     S
O976   Zn980   1.948   .     S
O977   Zn979   1.943   .     S
O978   Zn980   1.943   .     S
N981   H982    1.031   .     S
N981   C983    1.449   .     S
C983   H985    1.110   .     S
C983   H984    1.110   .     S
C983   H986    1.109   .     S
N987   H988    1.029   .     S
N987   C989    1.446   .     S
C989   H990    1.111   .     S
C989   H992    1.111   .     S
C989   H991    1.111   .     S
N993   H994    1.030   .     S
N993   C995    1.452   .     S
C995   H996    1.107   .     S
C995   H997    1.110   .     S
C995   H998    1.109   .     S
N999   C1001   1.450   .     S
N999   H1000   1.031   .     S
C1001  H1004   1.111   .     S
C1001  H1002   1.110   .     S
C1001  H1003   1.109   .     S
C1005  H1006   1.104   .     S
C1005  H1007   1.096   .     S
C1005  H1008   1.110   .     S
C1009  H1010   1.109   .     S
C1009  H1011   1.096   .     S
C1009  H1012   1.104   .     S
C1013  H1015   1.085   .     S
C1013  H1016   1.111   .     S
C1013  H1014   1.109   .     S
C1017  H1020   1.111   .     S
C1017  H1018   1.084   .     S
C1017  H1019   1.110   .     S
C1021  O1042   1.301   .     A
C1021  C1032   1.435   .     S
C1021  O1039   1.295   .     A
C1022  O1041   1.305   .     A
C1022  C1031   1.436   .     S
C1022  O1040   1.291   .     A
C1023  O1046   1.287   .     A
C1023  C1025   1.365   .     S
C1023  O1043   1.289   .     A
C1024  O1045   1.287   .     A
C1024  C1026   1.365   .     S
C1024  O1044   1.289   .     A
C1026  C1637   1.165   .     S
C1027  N1049   1.431   .     S
C1027  C1032   1.406   .     A
C1027  C1165   1.389   1_455 S
C1028  C1031   1.404   .     A
C1028  N1055   1.430   .     S
C1028  C1098   1.389   .     S
C1029  N1061   1.426   .     S
C1029  C1031   1.412   .     A
C1029  C1095   1.389   .     S
C1030  C1032   1.411   .     A
C1030  N1067   1.424   .     S
C1030  C1164   1.389   1_455 S
C1033  N1038   1.375   .     A
C1033  C1073   1.512   .     S
C1034  N1037   1.376   .     A
C1034  C1077   1.511   .     S
C1034  C627    1.436   1_565 S
C1035  N1038   1.383   .     A
C1035  C1081   1.511   .     S
C1036  C1085   1.511   .     S
C1036  N1037   1.382   .     A
C1036  C625    1.436   1_565 S
N1037  Zn1047  2.041   .     S
N1038  Zn1048  2.041   .     S
O1039  Zn1047  2.023   .     S
O1040  Zn1048  2.023   .     S
O1041  Zn1047  1.997   .     S
O1042  Zn1048  1.997   .     S
O1043  Zn1047  1.948   .     S
O1044  Zn1048  1.948   .     S
O1045  Zn1047  1.943   .     S
O1046  Zn1048  1.943   .     S
N1049  H1050   1.031   .     S
N1049  C1051   1.449   .     S
C1051  H1053   1.110   .     S
C1051  H1052   1.110   .     S
C1051  H1054   1.109   .     S
N1055  H1056   1.029   .     S
N1055  C1057   1.446   .     S
C1057  H1058   1.111   .     S
C1057  H1060   1.111   .     S
C1057  H1059   1.111   .     S
N1061  H1062   1.030   .     S
N1061  C1063   1.452   .     S
C1063  H1064   1.107   .     S
C1063  H1065   1.110   .     S
C1063  H1066   1.109   .     S
N1067  C1069   1.450   .     S
N1067  H1068   1.031   .     S
C1069  H1072   1.111   .     S
C1069  H1070   1.110   .     S
C1069  H1071   1.109   .     S
C1073  H1074   1.104   .     S
C1073  H1075   1.096   .     S
C1073  H1076   1.110   .     S
C1077  H1078   1.109   .     S
C1077  H1079   1.096   .     S
C1077  H1080   1.104   .     S
C1081  H1083   1.085   .     S
C1081  H1084   1.111   .     S
C1081  H1082   1.109   .     S
C1085  H1088   1.111   .     S
C1085  H1086   1.084   .     S
C1085  H1087   1.110   .     S
C1089  O1110   1.301   .     A
C1089  C1100   1.435   .     S
C1089  O1107   1.295   .     A
C1090  O1109   1.305   .     A
C1090  C1099   1.436   .     S
C1090  O1108   1.291   .     A
C1091  O1114   1.287   .     A
C1091  C1093   1.365   .     S
C1091  O1111   1.289   .     A
C1092  O1113   1.287   .     A
C1092  C1094   1.365   .     S
C1092  O1112   1.289   .     A
C1094  C1705   1.165   .     S
C1095  N1117   1.431   .     S
C1095  C1100   1.406   .     A
C1096  C1099   1.404   .     A
C1096  N1123   1.430   .     S
C1096  C1166   1.389   .     S
C1097  N1129   1.426   .     S
C1097  C1099   1.412   .     A
C1097  C1163   1.389   .     S
C1098  C1100   1.411   .     A
C1098  N1135   1.424   .     S
C1101  N1106   1.375   .     A
C1101  C1141   1.512   .     S
C1102  N1105   1.376   .     A
C1102  C1145   1.511   .     S
C1102  C695    1.436   1_565 S
C1103  N1106   1.383   .     A
C1103  C1149   1.511   .     S
C1104  C1153   1.511   .     S
C1104  N1105   1.382   .     A
C1104  C693    1.436   1_565 S
N1105  Zn1115  2.041   .     S
N1106  Zn1116  2.041   .     S
O1107  Zn1115  2.023   .     S
O1108  Zn1116  2.023   .     S
O1109  Zn1115  1.997   .     S
O1110  Zn1116  1.997   .     S
O1111  Zn1115  1.948   .     S
O1112  Zn1116  1.948   .     S
O1113  Zn1115  1.943   .     S
O1114  Zn1116  1.943   .     S
N1117  H1118   1.031   .     S
N1117  C1119   1.449   .     S
C1119  H1121   1.110   .     S
C1119  H1120   1.110   .     S
C1119  H1122   1.109   .     S
N1123  H1124   1.029   .     S
N1123  C1125   1.446   .     S
C1125  H1126   1.111   .     S
C1125  H1128   1.111   .     S
C1125  H1127   1.111   .     S
N1129  H1130   1.030   .     S
N1129  C1131   1.452   .     S
C1131  H1132   1.107   .     S
C1131  H1133   1.110   .     S
C1131  H1134   1.109   .     S
N1135  C1137   1.450   .     S
N1135  H1136   1.031   .     S
C1137  H1140   1.111   .     S
C1137  H1138   1.110   .     S
C1137  H1139   1.109   .     S
C1141  H1142   1.104   .     S
C1141  H1143   1.096   .     S
C1141  H1144   1.110   .     S
C1145  H1146   1.109   .     S
C1145  H1147   1.096   .     S
C1145  H1148   1.104   .     S
C1149  H1151   1.085   .     S
C1149  H1152   1.111   .     S
C1149  H1150   1.109   .     S
C1153  H1156   1.111   .     S
C1153  H1154   1.084   .     S
C1153  H1155   1.110   .     S
C1157  O1178   1.301   .     A
C1157  C1168   1.435   .     S
C1157  O1175   1.295   .     A
C1158  O1177   1.305   .     A
C1158  C1167   1.436   .     S
C1158  O1176   1.291   .     A
C1159  O1182   1.287   .     A
C1159  C1161   1.365   .     S
C1159  O1179   1.289   .     A
C1160  O1181   1.287   .     A
C1160  C1162   1.365   .     S
C1160  O1180   1.289   .     A
C1162  C1773   1.165   .     S
C1163  N1185   1.431   .     S
C1163  C1168   1.406   .     A
C1164  C1167   1.404   .     A
C1164  N1191   1.430   .     S
C1164  C1030   1.389   1_655 S
C1165  N1197   1.426   .     S
C1165  C1167   1.412   .     A
C1165  C1027   1.389   1_655 S
C1166  C1168   1.411   .     A
C1166  N1203   1.424   .     S
C1169  N1174   1.375   .     A
C1169  C1209   1.512   .     S
C1170  N1173   1.376   .     A
C1170  C1213   1.511   .     S
C1170  C763    1.436   1_565 S
C1171  N1174   1.383   .     A
C1171  C1217   1.511   .     S
C1172  C1221   1.511   .     S
C1172  N1173   1.382   .     A
C1172  C761    1.436   1_565 S
N1173  Zn1183  2.041   .     S
N1174  Zn1184  2.041   .     S
O1175  Zn1183  2.023   .     S
O1176  Zn1184  2.023   .     S
O1177  Zn1183  1.997   .     S
O1178  Zn1184  1.997   .     S
O1179  Zn1183  1.948   .     S
O1180  Zn1184  1.948   .     S
O1181  Zn1183  1.943   .     S
O1182  Zn1184  1.943   .     S
N1185  H1186   1.031   .     S
N1185  C1187   1.449   .     S
C1187  H1189   1.110   .     S
C1187  H1188   1.110   .     S
C1187  H1190   1.109   .     S
N1191  H1192   1.029   .     S
N1191  C1193   1.446   .     S
C1193  H1194   1.111   .     S
C1193  H1196   1.111   .     S
C1193  H1195   1.111   .     S
N1197  H1198   1.030   .     S
N1197  C1199   1.452   .     S
C1199  H1200   1.107   .     S
C1199  H1201   1.110   .     S
C1199  H1202   1.109   .     S
N1203  C1205   1.450   .     S
N1203  H1204   1.031   .     S
C1205  H1208   1.111   .     S
C1205  H1206   1.110   .     S
C1205  H1207   1.109   .     S
C1209  H1210   1.104   .     S
C1209  H1211   1.096   .     S
C1209  H1212   1.110   .     S
C1213  H1214   1.109   .     S
C1213  H1215   1.096   .     S
C1213  H1216   1.104   .     S
C1217  H1219   1.085   .     S
C1217  H1220   1.111   .     S
C1217  H1218   1.109   .     S
C1221  H1224   1.111   .     S
C1221  H1222   1.084   .     S
C1221  H1223   1.110   .     S
C1225  O1246   1.301   .     A
C1225  C1236   1.435   .     S
C1225  O1243   1.295   .     A
C1226  O1245   1.305   .     A
C1226  C1235   1.436   .     S
C1226  O1244   1.291   .     A
C1227  O1250   1.287   .     A
C1227  C1229   1.365   .     S
C1227  O1247   1.289   .     A
C1228  O1249   1.287   .     A
C1228  C1230   1.365   .     S
C1228  O1248   1.289   .     A
C1230  C5      1.165   1_556 S
C1231  N1253   1.431   .     S
C1231  C1236   1.406   .     A
C1231  C1369   1.389   1_455 S
C1232  C1235   1.404   .     A
C1232  N1259   1.430   .     S
C1232  C1302   1.389   .     S
C1233  N1265   1.426   .     S
C1233  C1235   1.412   .     A
C1233  C1299   1.389   .     S
C1234  C1236   1.411   .     A
C1234  N1271   1.424   .     S
C1234  C1368   1.389   1_455 S
C1237  N1242   1.375   .     A
C1237  C1277   1.512   .     S
C1237  C1648   1.436   1_545 S
C1238  N1241   1.376   .     A
C1238  C1281   1.511   .     S
C1238  C1443   1.436   .     S
C1239  N1242   1.383   .     A
C1239  C1285   1.511   .     S
C1239  C1646   1.436   1_545 S
C1240  C1289   1.511   .     S
C1240  N1241   1.382   .     A
C1240  C1441   1.436   .     S
N1241  Zn1251  2.041   .     S
N1242  Zn1252  2.041   .     S
O1243  Zn1251  2.023   .     S
O1244  Zn1252  2.023   .     S
O1245  Zn1251  1.997   .     S
O1246  Zn1252  1.997   .     S
O1247  Zn1251  1.948   .     S
O1248  Zn1252  1.948   .     S
O1249  Zn1251  1.943   .     S
O1250  Zn1252  1.943   .     S
N1253  H1254   1.031   .     S
N1253  C1255   1.449   .     S
C1255  H1257   1.110   .     S
C1255  H1256   1.110   .     S
C1255  H1258   1.109   .     S
N1259  H1260   1.029   .     S
N1259  C1261   1.446   .     S
C1261  H1262   1.111   .     S
C1261  H1264   1.111   .     S
C1261  H1263   1.111   .     S
N1265  H1266   1.030   .     S
N1265  C1267   1.452   .     S
C1267  H1268   1.107   .     S
C1267  H1269   1.110   .     S
C1267  H1270   1.109   .     S
N1271  C1273   1.450   .     S
N1271  H1272   1.031   .     S
C1273  H1276   1.111   .     S
C1273  H1274   1.110   .     S
C1273  H1275   1.109   .     S
C1277  H1278   1.104   .     S
C1277  H1279   1.096   .     S
C1277  H1280   1.110   .     S
C1281  H1282   1.109   .     S
C1281  H1283   1.096   .     S
C1281  H1284   1.104   .     S
C1285  H1287   1.085   .     S
C1285  H1288   1.111   .     S
C1285  H1286   1.109   .     S
C1289  H1292   1.111   .     S
C1289  H1290   1.084   .     S
C1289  H1291   1.110   .     S
C1293  O1314   1.301   .     A
C1293  C1304   1.435   .     S
C1293  O1311   1.295   .     A
C1294  O1313   1.305   .     A
C1294  C1303   1.436   .     S
C1294  O1312   1.291   .     A
C1295  O1318   1.287   .     A
C1295  C1297   1.365   .     S
C1295  O1315   1.289   .     A
C1296  O1317   1.287   .     A
C1296  C1298   1.365   .     S
C1296  O1316   1.289   .     A
C1298  C73     1.165   1_556 S
C1299  N1321   1.431   .     S
C1299  C1304   1.406   .     A
C1300  C1303   1.404   .     A
C1300  N1327   1.430   .     S
C1300  C1370   1.389   .     S
C1301  N1333   1.426   .     S
C1301  C1303   1.412   .     A
C1301  C1367   1.389   .     S
C1302  C1304   1.411   .     A
C1302  N1339   1.424   .     S
C1305  N1310   1.375   .     A
C1305  C1345   1.512   .     S
C1305  C1716   1.436   1_545 S
C1306  N1309   1.376   .     A
C1306  C1349   1.511   .     S
C1306  C1511   1.436   .     S
C1307  N1310   1.383   .     A
C1307  C1353   1.511   .     S
C1307  C1714   1.436   1_545 S
C1308  C1357   1.511   .     S
C1308  N1309   1.382   .     A
C1308  C1509   1.436   .     S
N1309  Zn1319  2.041   .     S
N1310  Zn1320  2.041   .     S
O1311  Zn1319  2.023   .     S
O1312  Zn1320  2.023   .     S
O1313  Zn1319  1.997   .     S
O1314  Zn1320  1.997   .     S
O1315  Zn1319  1.948   .     S
O1316  Zn1320  1.948   .     S
O1317  Zn1319  1.943   .     S
O1318  Zn1320  1.943   .     S
N1321  H1322   1.031   .     S
N1321  C1323   1.449   .     S
C1323  H1325   1.110   .     S
C1323  H1324   1.110   .     S
C1323  H1326   1.109   .     S
N1327  H1328   1.029   .     S
N1327  C1329   1.446   .     S
C1329  H1330   1.111   .     S
C1329  H1332   1.111   .     S
C1329  H1331   1.111   .     S
N1333  H1334   1.030   .     S
N1333  C1335   1.452   .     S
C1335  H1336   1.107   .     S
C1335  H1337   1.110   .     S
C1335  H1338   1.109   .     S
N1339  C1341   1.450   .     S
N1339  H1340   1.031   .     S
C1341  H1344   1.111   .     S
C1341  H1342   1.110   .     S
C1341  H1343   1.109   .     S
C1345  H1346   1.104   .     S
C1345  H1347   1.096   .     S
C1345  H1348   1.110   .     S
C1349  H1350   1.109   .     S
C1349  H1351   1.096   .     S
C1349  H1352   1.104   .     S
C1353  H1355   1.085   .     S
C1353  H1356   1.111   .     S
C1353  H1354   1.109   .     S
C1357  H1360   1.111   .     S
C1357  H1358   1.084   .     S
C1357  H1359   1.110   .     S
C1361  O1382   1.301   .     A
C1361  C1372   1.435   .     S
C1361  O1379   1.295   .     A
C1362  O1381   1.305   .     A
C1362  C1371   1.436   .     S
C1362  O1380   1.291   .     A
C1363  O1386   1.287   .     A
C1363  C1365   1.365   .     S
C1363  O1383   1.289   .     A
C1364  O1385   1.287   .     A
C1364  C1366   1.365   .     S
C1364  O1384   1.289   .     A
C1366  C141    1.165   1_556 S
C1367  N1389   1.431   .     S
C1367  C1372   1.406   .     A
C1368  C1371   1.404   .     A
C1368  N1395   1.430   .     S
C1368  C1234   1.389   1_655 S
C1369  N1401   1.426   .     S
C1369  C1371   1.412   .     A
C1369  C1231   1.389   1_655 S
C1370  C1372   1.411   .     A
C1370  N1407   1.424   .     S
C1373  N1378   1.375   .     A
C1373  C1413   1.512   .     S
C1373  C1784   1.436   1_545 S
C1374  N1377   1.376   .     A
C1374  C1417   1.511   .     S
C1374  C1579   1.436   .     S
C1375  N1378   1.383   .     A
C1375  C1421   1.511   .     S
C1375  C1782   1.436   1_545 S
C1376  C1425   1.511   .     S
C1376  N1377   1.382   .     A
C1376  C1577   1.436   .     S
N1377  Zn1387  2.041   .     S
N1378  Zn1388  2.041   .     S
O1379  Zn1387  2.023   .     S
O1380  Zn1388  2.023   .     S
O1381  Zn1387  1.997   .     S
O1382  Zn1388  1.997   .     S
O1383  Zn1387  1.948   .     S
O1384  Zn1388  1.948   .     S
O1385  Zn1387  1.943   .     S
O1386  Zn1388  1.943   .     S
N1389  H1390   1.031   .     S
N1389  C1391   1.449   .     S
C1391  H1393   1.110   .     S
C1391  H1392   1.110   .     S
C1391  H1394   1.109   .     S
N1395  H1396   1.029   .     S
N1395  C1397   1.446   .     S
C1397  H1398   1.111   .     S
C1397  H1400   1.111   .     S
C1397  H1399   1.111   .     S
N1401  H1402   1.030   .     S
N1401  C1403   1.452   .     S
C1403  H1404   1.107   .     S
C1403  H1405   1.110   .     S
C1403  H1406   1.109   .     S
N1407  C1409   1.450   .     S
N1407  H1408   1.031   .     S
C1409  H1412   1.111   .     S
C1409  H1410   1.110   .     S
C1409  H1411   1.109   .     S
C1413  H1414   1.104   .     S
C1413  H1415   1.096   .     S
C1413  H1416   1.110   .     S
C1417  H1418   1.109   .     S
C1417  H1419   1.096   .     S
C1417  H1420   1.104   .     S
C1421  H1423   1.085   .     S
C1421  H1424   1.111   .     S
C1421  H1422   1.109   .     S
C1425  H1428   1.111   .     S
C1425  H1426   1.084   .     S
C1425  H1427   1.110   .     S
C1429  O1450   1.301   .     A
C1429  C1440   1.435   .     S
C1429  O1447   1.295   .     A
C1430  O1449   1.305   .     A
C1430  C1439   1.436   .     S
C1430  O1448   1.291   .     A
C1431  O1454   1.287   .     A
C1431  C1433   1.365   .     S
C1431  O1451   1.289   .     A
C1432  O1453   1.287   .     A
C1432  C1434   1.365   .     S
C1432  O1452   1.289   .     A
C1434  C209    1.165   1_556 S
C1435  N1457   1.431   .     S
C1435  C1440   1.406   .     A
C1435  C1573   1.389   1_455 S
C1436  C1439   1.404   .     A
C1436  N1463   1.430   .     S
C1436  C1506   1.389   .     S
C1437  N1469   1.426   .     S
C1437  C1439   1.412   .     A
C1437  C1503   1.389   .     S
C1438  C1440   1.411   .     A
C1438  N1475   1.424   .     S
C1438  C1572   1.389   1_455 S
C1441  N1446   1.375   .     A
C1441  C1481   1.512   .     S
C1442  N1445   1.376   .     A
C1442  C1485   1.511   .     S
C1442  C1647   1.436   .     S
C1443  N1446   1.383   .     A
C1443  C1489   1.511   .     S
C1444  C1493   1.511   .     S
C1444  N1445   1.382   .     A
C1444  C1645   1.436   .     S
N1445  Zn1455  2.041   .     S
N1446  Zn1456  2.041   .     S
O1447  Zn1455  2.023   .     S
O1448  Zn1456  2.023   .     S
O1449  Zn1455  1.997   .     S
O1450  Zn1456  1.997   .     S
O1451  Zn1455  1.948   .     S
O1452  Zn1456  1.948   .     S
O1453  Zn1455  1.943   .     S
O1454  Zn1456  1.943   .     S
N1457  H1458   1.031   .     S
N1457  C1459   1.449   .     S
C1459  H1461   1.110   .     S
C1459  H1460   1.110   .     S
C1459  H1462   1.109   .     S
N1463  H1464   1.029   .     S
N1463  C1465   1.446   .     S
C1465  H1466   1.111   .     S
C1465  H1468   1.111   .     S
C1465  H1467   1.111   .     S
N1469  H1470   1.030   .     S
N1469  C1471   1.452   .     S
C1471  H1472   1.107   .     S
C1471  H1473   1.110   .     S
C1471  H1474   1.109   .     S
N1475  C1477   1.450   .     S
N1475  H1476   1.031   .     S
C1477  H1480   1.111   .     S
C1477  H1478   1.110   .     S
C1477  H1479   1.109   .     S
C1481  H1482   1.104   .     S
C1481  H1483   1.096   .     S
C1481  H1484   1.110   .     S
C1485  H1486   1.109   .     S
C1485  H1487   1.096   .     S
C1485  H1488   1.104   .     S
C1489  H1491   1.085   .     S
C1489  H1492   1.111   .     S
C1489  H1490   1.109   .     S
C1493  H1496   1.111   .     S
C1493  H1494   1.084   .     S
C1493  H1495   1.110   .     S
C1497  O1518   1.301   .     A
C1497  C1508   1.435   .     S
C1497  O1515   1.295   .     A
C1498  O1517   1.305   .     A
C1498  C1507   1.436   .     S
C1498  O1516   1.291   .     A
C1499  O1522   1.287   .     A
C1499  C1501   1.365   .     S
C1499  O1519   1.289   .     A
C1500  O1521   1.287   .     A
C1500  C1502   1.365   .     S
C1500  O1520   1.289   .     A
C1502  C277    1.165   1_556 S
C1503  N1525   1.431   .     S
C1503  C1508   1.406   .     A
C1504  C1507   1.404   .     A
C1504  N1531   1.430   .     S
C1504  C1574   1.389   .     S
C1505  N1537   1.426   .     S
C1505  C1507   1.412   .     A
C1505  C1571   1.389   .     S
C1506  C1508   1.411   .     A
C1506  N1543   1.424   .     S
C1509  N1514   1.375   .     A
C1509  C1549   1.512   .     S
C1510  N1513   1.376   .     A
C1510  C1553   1.511   .     S
C1510  C1715   1.436   .     S
C1511  N1514   1.383   .     A
C1511  C1557   1.511   .     S
C1512  C1561   1.511   .     S
C1512  N1513   1.382   .     A
C1512  C1713   1.436   .     S
N1513  Zn1523  2.041   .     S
N1514  Zn1524  2.041   .     S
O1515  Zn1523  2.023   .     S
O1516  Zn1524  2.023   .     S
O1517  Zn1523  1.997   .     S
O1518  Zn1524  1.997   .     S
O1519  Zn1523  1.948   .     S
O1520  Zn1524  1.948   .     S
O1521  Zn1523  1.943   .     S
O1522  Zn1524  1.943   .     S
N1525  H1526   1.031   .     S
N1525  C1527   1.449   .     S
C1527  H1529   1.110   .     S
C1527  H1528   1.110   .     S
C1527  H1530   1.109   .     S
N1531  H1532   1.029   .     S
N1531  C1533   1.446   .     S
C1533  H1534   1.111   .     S
C1533  H1536   1.111   .     S
C1533  H1535   1.111   .     S
N1537  H1538   1.030   .     S
N1537  C1539   1.452   .     S
C1539  H1540   1.107   .     S
C1539  H1541   1.110   .     S
C1539  H1542   1.109   .     S
N1543  C1545   1.450   .     S
N1543  H1544   1.031   .     S
C1545  H1548   1.111   .     S
C1545  H1546   1.110   .     S
C1545  H1547   1.109   .     S
C1549  H1550   1.104   .     S
C1549  H1551   1.096   .     S
C1549  H1552   1.110   .     S
C1553  H1554   1.109   .     S
C1553  H1555   1.096   .     S
C1553  H1556   1.104   .     S
C1557  H1559   1.085   .     S
C1557  H1560   1.111   .     S
C1557  H1558   1.109   .     S
C1561  H1564   1.111   .     S
C1561  H1562   1.084   .     S
C1561  H1563   1.110   .     S
C1565  O1586   1.301   .     A
C1565  C1576   1.435   .     S
C1565  O1583   1.295   .     A
C1566  O1585   1.305   .     A
C1566  C1575   1.436   .     S
C1566  O1584   1.291   .     A
C1567  O1590   1.287   .     A
C1567  C1569   1.365   .     S
C1567  O1587   1.289   .     A
C1568  O1589   1.287   .     A
C1568  C1570   1.365   .     S
C1568  O1588   1.289   .     A
C1570  C345    1.165   1_556 S
C1571  N1593   1.431   .     S
C1571  C1576   1.406   .     A
C1572  C1575   1.404   .     A
C1572  N1599   1.430   .     S
C1572  C1438   1.389   1_655 S
C1573  N1605   1.426   .     S
C1573  C1575   1.412   .     A
C1573  C1435   1.389   1_655 S
C1574  C1576   1.411   .     A
C1574  N1611   1.424   .     S
C1577  N1582   1.375   .     A
C1577  C1617   1.512   .     S
C1578  N1581   1.376   .     A
C1578  C1621   1.511   .     S
C1578  C1783   1.436   .     S
C1579  N1582   1.383   .     A
C1579  C1625   1.511   .     S
C1580  C1629   1.511   .     S
C1580  N1581   1.382   .     A
C1580  C1781   1.436   .     S
N1581  Zn1591  2.041   .     S
N1582  Zn1592  2.041   .     S
O1583  Zn1591  2.023   .     S
O1584  Zn1592  2.023   .     S
O1585  Zn1591  1.997   .     S
O1586  Zn1592  1.997   .     S
O1587  Zn1591  1.948   .     S
O1588  Zn1592  1.948   .     S
O1589  Zn1591  1.943   .     S
O1590  Zn1592  1.943   .     S
N1593  H1594   1.031   .     S
N1593  C1595   1.449   .     S
C1595  H1597   1.110   .     S
C1595  H1596   1.110   .     S
C1595  H1598   1.109   .     S
N1599  H1600   1.029   .     S
N1599  C1601   1.446   .     S
C1601  H1602   1.111   .     S
C1601  H1604   1.111   .     S
C1601  H1603   1.111   .     S
N1605  H1606   1.030   .     S
N1605  C1607   1.452   .     S
C1607  H1608   1.107   .     S
C1607  H1609   1.110   .     S
C1607  H1610   1.109   .     S
N1611  C1613   1.450   .     S
N1611  H1612   1.031   .     S
C1613  H1616   1.111   .     S
C1613  H1614   1.110   .     S
C1613  H1615   1.109   .     S
C1617  H1618   1.104   .     S
C1617  H1619   1.096   .     S
C1617  H1620   1.110   .     S
C1621  H1622   1.109   .     S
C1621  H1623   1.096   .     S
C1621  H1624   1.104   .     S
C1625  H1627   1.085   .     S
C1625  H1628   1.111   .     S
C1625  H1626   1.109   .     S
C1629  H1632   1.111   .     S
C1629  H1630   1.084   .     S
C1629  H1631   1.110   .     S
C1633  O1654   1.301   .     A
C1633  C1644   1.435   .     S
C1633  O1651   1.295   .     A
C1634  O1653   1.305   .     A
C1634  C1643   1.436   .     S
C1634  O1652   1.291   .     A
C1635  O1658   1.287   .     A
C1635  C1637   1.365   .     S
C1635  O1655   1.289   .     A
C1636  O1657   1.287   .     A
C1636  C1638   1.365   .     S
C1636  O1656   1.289   .     A
C1638  C413    1.165   1_556 S
C1639  N1661   1.431   .     S
C1639  C1644   1.406   .     A
C1639  C1777   1.389   1_455 S
C1640  C1643   1.404   .     A
C1640  N1667   1.430   .     S
C1640  C1710   1.389   .     S
C1641  N1673   1.426   .     S
C1641  C1643   1.412   .     A
C1641  C1707   1.389   .     S
C1642  C1644   1.411   .     A
C1642  N1679   1.424   .     S
C1642  C1776   1.389   1_455 S
C1645  N1650   1.375   .     A
C1645  C1685   1.512   .     S
C1646  N1649   1.376   .     A
C1646  C1689   1.511   .     S
C1646  C1239   1.436   1_565 S
C1647  N1650   1.383   .     A
C1647  C1693   1.511   .     S
C1648  C1697   1.511   .     S
C1648  N1649   1.382   .     A
C1648  C1237   1.436   1_565 S
N1649  Zn1659  2.041   .     S
N1650  Zn1660  2.041   .     S
O1651  Zn1659  2.023   .     S
O1652  Zn1660  2.023   .     S
O1653  Zn1659  1.997   .     S
O1654  Zn1660  1.997   .     S
O1655  Zn1659  1.948   .     S
O1656  Zn1660  1.948   .     S
O1657  Zn1659  1.943   .     S
O1658  Zn1660  1.943   .     S
N1661  H1662   1.031   .     S
N1661  C1663   1.449   .     S
C1663  H1665   1.110   .     S
C1663  H1664   1.110   .     S
C1663  H1666   1.109   .     S
N1667  H1668   1.029   .     S
N1667  C1669   1.446   .     S
C1669  H1670   1.111   .     S
C1669  H1672   1.111   .     S
C1669  H1671   1.111   .     S
N1673  H1674   1.030   .     S
N1673  C1675   1.452   .     S
C1675  H1676   1.107   .     S
C1675  H1677   1.110   .     S
C1675  H1678   1.109   .     S
N1679  C1681   1.450   .     S
N1679  H1680   1.031   .     S
C1681  H1684   1.111   .     S
C1681  H1682   1.110   .     S
C1681  H1683   1.109   .     S
C1685  H1686   1.104   .     S
C1685  H1687   1.096   .     S
C1685  H1688   1.110   .     S
C1689  H1690   1.109   .     S
C1689  H1691   1.096   .     S
C1689  H1692   1.104   .     S
C1693  H1695   1.085   .     S
C1693  H1696   1.111   .     S
C1693  H1694   1.109   .     S
C1697  H1700   1.111   .     S
C1697  H1698   1.084   .     S
C1697  H1699   1.110   .     S
C1701  O1722   1.301   .     A
C1701  C1712   1.435   .     S
C1701  O1719   1.295   .     A
C1702  O1721   1.305   .     A
C1702  C1711   1.436   .     S
C1702  O1720   1.291   .     A
C1703  O1726   1.287   .     A
C1703  C1705   1.365   .     S
C1703  O1723   1.289   .     A
C1704  O1725   1.287   .     A
C1704  C1706   1.365   .     S
C1704  O1724   1.289   .     A
C1706  C481    1.165   1_556 S
C1707  N1729   1.431   .     S
C1707  C1712   1.406   .     A
C1708  C1711   1.404   .     A
C1708  N1735   1.430   .     S
C1708  C1778   1.389   .     S
C1709  N1741   1.426   .     S
C1709  C1711   1.412   .     A
C1709  C1775   1.389   .     S
C1710  C1712   1.411   .     A
C1710  N1747   1.424   .     S
C1713  N1718   1.375   .     A
C1713  C1753   1.512   .     S
C1714  N1717   1.376   .     A
C1714  C1757   1.511   .     S
C1714  C1307   1.436   1_565 S
C1715  N1718   1.383   .     A
C1715  C1761   1.511   .     S
C1716  C1765   1.511   .     S
C1716  N1717   1.382   .     A
C1716  C1305   1.436   1_565 S
N1717  Zn1727  2.041   .     S
N1718  Zn1728  2.041   .     S
O1719  Zn1727  2.023   .     S
O1720  Zn1728  2.023   .     S
O1721  Zn1727  1.997   .     S
O1722  Zn1728  1.997   .     S
O1723  Zn1727  1.948   .     S
O1724  Zn1728  1.948   .     S
O1725  Zn1727  1.943   .     S
O1726  Zn1728  1.943   .     S
N1729  H1730   1.031   .     S
N1729  C1731   1.449   .     S
C1731  H1733   1.110   .     S
C1731  H1732   1.110   .     S
C1731  H1734   1.109   .     S
N1735  H1736   1.029   .     S
N1735  C1737   1.446   .     S
C1737  H1738   1.111   .     S
C1737  H1740   1.111   .     S
C1737  H1739   1.111   .     S
N1741  H1742   1.030   .     S
N1741  C1743   1.452   .     S
C1743  H1744   1.107   .     S
C1743  H1745   1.110   .     S
C1743  H1746   1.109   .     S
N1747  C1749   1.450   .     S
N1747  H1748   1.031   .     S
C1749  H1752   1.111   .     S
C1749  H1750   1.110   .     S
C1749  H1751   1.109   .     S
C1753  H1754   1.104   .     S
C1753  H1755   1.096   .     S
C1753  H1756   1.110   .     S
C1757  H1758   1.109   .     S
C1757  H1759   1.096   .     S
C1757  H1760   1.104   .     S
C1761  H1763   1.085   .     S
C1761  H1764   1.111   .     S
C1761  H1762   1.109   .     S
C1765  H1768   1.111   .     S
C1765  H1766   1.084   .     S
C1765  H1767   1.110   .     S
C1769  O1790   1.301   .     A
C1769  C1780   1.435   .     S
C1769  O1787   1.295   .     A
C1770  O1789   1.305   .     A
C1770  C1779   1.436   .     S
C1770  O1788   1.291   .     A
C1771  O1794   1.287   .     A
C1771  C1773   1.365   .     S
C1771  O1791   1.289   .     A
C1772  O1793   1.287   .     A
C1772  C1774   1.365   .     S
C1772  O1792   1.289   .     A
C1774  C549    1.165   1_556 S
C1775  N1797   1.431   .     S
C1775  C1780   1.406   .     A
C1776  C1779   1.404   .     A
C1776  N1803   1.430   .     S
C1776  C1642   1.389   1_655 S
C1777  N1809   1.426   .     S
C1777  C1779   1.412   .     A
C1777  C1639   1.389   1_655 S
C1778  C1780   1.411   .     A
C1778  N1815   1.424   .     S
C1781  N1786   1.375   .     A
C1781  C1821   1.512   .     S
C1782  N1785   1.376   .     A
C1782  C1825   1.511   .     S
C1782  C1375   1.436   1_565 S
C1783  N1786   1.383   .     A
C1783  C1829   1.511   .     S
C1784  C1833   1.511   .     S
C1784  N1785   1.382   .     A
C1784  C1373   1.436   1_565 S
N1785  Zn1795  2.041   .     S
N1786  Zn1796  2.041   .     S
O1787  Zn1795  2.023   .     S
O1788  Zn1796  2.023   .     S
O1789  Zn1795  1.997   .     S
O1790  Zn1796  1.997   .     S
O1791  Zn1795  1.948   .     S
O1792  Zn1796  1.948   .     S
O1793  Zn1795  1.943   .     S
O1794  Zn1796  1.943   .     S
N1797  H1798   1.031   .     S
N1797  C1799   1.449   .     S
C1799  H1801   1.110   .     S
C1799  H1800   1.110   .     S
C1799  H1802   1.109   .     S
N1803  H1804   1.029   .     S
N1803  C1805   1.446   .     S
C1805  H1806   1.111   .     S
C1805  H1808   1.111   .     S
C1805  H1807   1.111   .     S
N1809  H1810   1.030   .     S
N1809  C1811   1.452   .     S
C1811  H1812   1.107   .     S
C1811  H1813   1.110   .     S
C1811  H1814   1.109   .     S
N1815  C1817   1.450   .     S
N1815  H1816   1.031   .     S
C1817  H1820   1.111   .     S
C1817  H1818   1.110   .     S
C1817  H1819   1.109   .     S
C1821  H1822   1.104   .     S
C1821  H1823   1.096   .     S
C1821  H1824   1.110   .     S
C1825  H1826   1.109   .     S
C1825  H1827   1.096   .     S
C1825  H1828   1.104   .     S
C1829  H1831   1.085   .     S
C1829  H1832   1.111   .     S
C1829  H1830   1.109   .     S
C1833  H1836   1.111   .     S
C1833  H1834   1.084   .     S
C1833  H1835   1.110   .     S
