data_str_m2_o2_o10_pcu_sym.219
_audit_creation_date              2020-01-03
_audit_creation_method            'Materials Studio'
_symmetry_space_group_name_H-M    'P1'
_symmetry_Int_Tables_number       1
_symmetry_cell_setting            triclinic
loop_
_symmetry_equiv_pos_as_xyz
  x,y,z
_cell_length_a                    26.1931
_cell_length_b                    30.2250
_cell_length_c                    27.9684
_cell_angle_alpha                 90.7323
_cell_angle_beta                  98.5731
_cell_angle_gamma                 91.7252
loop_
_atom_site_label
_atom_site_type_symbol
_atom_site_fract_x
_atom_site_fract_y
_atom_site_fract_z
_atom_site_U_iso_or_equiv
_atom_site_adp_type
_atom_site_occupancy
C1     C     0.16795   0.16500   0.25003   0.00000  Uiso   1.00
C2     C     0.16539   0.33500   0.24997   0.00000  Uiso   1.00
C3     C     0.19738   0.28082   0.05957   0.00000  Uiso   1.00
C4     C     0.13596   0.21918   0.44043   0.00000  Uiso   1.00
C5     C     0.19541   0.28105   0.10959   0.00000  Uiso   1.00
C6     C     0.13792   0.21895   0.39041   0.00000  Uiso   1.00
C7     C     0.14338   0.21544   0.10022   0.00000  Uiso   1.00
C8     C     0.18996   0.28456   0.39978   0.00000  Uiso   1.00
C9     C     0.15192   0.21095   0.05147   0.00000  Uiso   1.00
C10    C     0.18142   0.28904   0.44853   0.00000  Uiso   1.00
C11    C     0.16999   0.24820   0.02785   0.00000  Uiso   1.00
C12    C     0.16334   0.25179   0.47215   0.00000  Uiso   1.00
C13    C     0.06792   0.24992   0.23747   0.00000  Uiso   1.00
C14    C     0.26541   0.25008   0.26253   0.00000  Uiso   1.00
C15    C     0.01245   0.24994   0.23073   0.00000  Uiso   1.00
C16    C     0.32088   0.25006   0.26927   0.00000  Uiso   1.00
C17    C     0.17787   0.04871   0.29576   0.00000  Uiso   1.00
C18    C     0.15546   0.45129   0.20423   0.00000  Uiso   1.00
C19    C     0.17275   0.09437   0.29448   0.00000  Uiso   1.00
C20    C     0.16059   0.40562   0.20551   0.00000  Uiso   1.00
C21    C     0.17238   0.11680   0.25090   0.00000  Uiso   1.00
C22    C     0.16095   0.38319   0.24910   0.00000  Uiso   1.00
C23    C     0.18477   0.09365   0.21080   0.00000  Uiso   1.00
C24    C     0.14855   0.40635   0.28920   0.00000  Uiso   1.00
C25    C     0.18960   0.04786   0.21242   0.00000  Uiso   1.00
C26    C     0.14372   0.45214   0.28757   0.00000  Uiso   1.00
C27    C     0.17453   0.02427   0.25185   0.00000  Uiso   1.00
C28    C     0.15879   0.47573   0.24814   0.00000  Uiso   1.00
Cu29   Cu    0.16667   0.24999   0.29822   0.00000  Uiso   1.00
Cu30   Cu    0.16667   0.25000   0.20179   0.00000  Uiso   1.00
H31    H     0.32538   0.24986   0.19391   0.00000  Uiso   1.00
H32    H     0.00795   0.25014   0.30609   0.00000  Uiso   1.00
H33    H     0.17252   0.11246   0.32814   0.00000  Uiso   1.00
H34    H     0.16082   0.38753   0.17186   0.00000  Uiso   1.00
H35    H     0.19464   0.11133   0.17983   0.00000  Uiso   1.00
H36    H     0.13868   0.38867   0.32016   0.00000  Uiso   1.00
H37    H     0.22240   0.30548   0.04701   0.00000  Uiso   1.00
H38    H     0.11094   0.19451   0.45299   0.00000  Uiso   1.00
H39    H     0.21700   0.30634   0.13258   0.00000  Uiso   1.00
H40    H     0.11633   0.19366   0.36742   0.00000  Uiso   1.00
N41    N     0.16667   0.25001   0.12935   0.00000  Uiso   1.00
N42    N     0.16667   0.24999   0.37066   0.00000  Uiso   1.00
O43    O     0.16667   0.18572   0.29072   0.00000  Uiso   1.00
O44    O     0.16666   0.31427   0.20929   0.00000  Uiso   1.00
O45    O     0.16667   0.18573   0.20928   0.00000  Uiso   1.00
O46    O     0.16666   0.31427   0.29072   0.00000  Uiso   1.00
O47    O     0.09161   0.24999   0.28132   0.00000  Uiso   1.00
O48    O     0.24172   0.25000   0.21868   0.00000  Uiso   1.00
O49    O     0.09161   0.25000   0.19989   0.00000  Uiso   1.00
O50    O     0.24172   0.25000   0.30012   0.00000  Uiso   1.00
Cl51   Cl    0.20534   0.02706   0.35179   0.00000  Uiso   1.00
Cl52   Cl    0.12799   0.47294   0.14820   0.00000  Uiso   1.00
Cl53   Cl    0.23023   0.02508   0.17413   0.00000  Uiso   1.00
Cl54   Cl    0.10308   0.47492   0.32586   0.00000  Uiso   1.00
C55    C     0.10865   0.18052   0.11816   0.00000  Uiso   1.00
H56    H     0.09074   0.19125   0.14903   0.00000  Uiso   1.00
H57    H     0.07561   0.17205   0.08944   0.00000  Uiso   1.00
H58    H     0.13008   0.14997   0.12733   0.00000  Uiso   1.00
C59    C     0.22467   0.31949   0.38183   0.00000  Uiso   1.00
H60    H     0.24260   0.30875   0.35098   0.00000  Uiso   1.00
H61    H     0.20322   0.35003   0.37265   0.00000  Uiso   1.00
H62    H     0.25770   0.32798   0.41056   0.00000  Uiso   1.00
C63    C     0.15340   0.16438   0.03094   0.00000  Uiso   1.00
H64    H     0.11375   0.15088   0.01821   0.00000  Uiso   1.00
H65    H     0.17772   0.16278   0.00176   0.00000  Uiso   1.00
H66    H     0.17227   0.14222   0.05916   0.00000  Uiso   1.00
C67    C     0.17993   0.33562   0.46907   0.00000  Uiso   1.00
H68    H     0.15561   0.33722   0.49824   0.00000  Uiso   1.00
H69    H     0.21958   0.34911   0.48180   0.00000  Uiso   1.00
H70    H     0.16107   0.35778   0.44085   0.00000  Uiso   1.00
C71    C     0.50128   0.16500   0.25003   0.00000  Uiso   1.00
C72    C     0.49872   0.33500   0.24997   0.00000  Uiso   1.00
C73    C     0.53071   0.28082   0.05957   0.00000  Uiso   1.00
C74    C     0.46929   0.21918   0.44043   0.00000  Uiso   1.00
C75    C     0.52875   0.28105   0.10959   0.00000  Uiso   1.00
C76    C     0.47126   0.21895   0.39041   0.00000  Uiso   1.00
C77    C     0.47671   0.21544   0.10022   0.00000  Uiso   1.00
C78    C     0.52329   0.28456   0.39978   0.00000  Uiso   1.00
C79    C     0.48525   0.21095   0.05147   0.00000  Uiso   1.00
C80    C     0.51475   0.28904   0.44853   0.00000  Uiso   1.00
C81    C     0.50333   0.24820   0.02785   0.00000  Uiso   1.00
C82    C     0.49668   0.25179   0.47215   0.00000  Uiso   1.00
C83    C     0.40125   0.24992   0.23747   0.00000  Uiso   1.00
C84    C     0.59875   0.25008   0.26253   0.00000  Uiso   1.00
C85    C     0.34578   0.24994   0.23073   0.00000  Uiso   1.00
C86    C     0.65422   0.25006   0.26927   0.00000  Uiso   1.00
C87    C     0.51120   0.04871   0.29576   0.00000  Uiso   1.00
C88    C     0.48880   0.45129   0.20423   0.00000  Uiso   1.00
C89    C     0.50608   0.09437   0.29448   0.00000  Uiso   1.00
C90    C     0.49392   0.40562   0.20551   0.00000  Uiso   1.00
C91    C     0.50572   0.11680   0.25090   0.00000  Uiso   1.00
C92    C     0.49428   0.38319   0.24910   0.00000  Uiso   1.00
C93    C     0.51811   0.09365   0.21080   0.00000  Uiso   1.00
C94    C     0.48188   0.40635   0.28920   0.00000  Uiso   1.00
C95    C     0.52293   0.04786   0.21242   0.00000  Uiso   1.00
C96    C     0.47705   0.45214   0.28757   0.00000  Uiso   1.00
C97    C     0.50786   0.02427   0.25185   0.00000  Uiso   1.00
C98    C     0.49213   0.47573   0.24814   0.00000  Uiso   1.00
Cu99   Cu    0.50000   0.24999   0.29822   0.00000  Uiso   1.00
Cu100  Cu    0.50000   0.25000   0.20179   0.00000  Uiso   1.00
H101   H     0.65872   0.24986   0.19391   0.00000  Uiso   1.00
H102   H     0.34128   0.25014   0.30609   0.00000  Uiso   1.00
H103   H     0.50586   0.11246   0.32814   0.00000  Uiso   1.00
H104   H     0.49415   0.38753   0.17186   0.00000  Uiso   1.00
H105   H     0.52797   0.11133   0.17983   0.00000  Uiso   1.00
H106   H     0.47201   0.38867   0.32016   0.00000  Uiso   1.00
H107   H     0.55574   0.30548   0.04701   0.00000  Uiso   1.00
H108   H     0.44427   0.19451   0.45299   0.00000  Uiso   1.00
H109   H     0.55034   0.30634   0.13258   0.00000  Uiso   1.00
H110   H     0.44967   0.19366   0.36742   0.00000  Uiso   1.00
N111   N     0.50000   0.25001   0.12935   0.00000  Uiso   1.00
N112   N     0.50000   0.24999   0.37066   0.00000  Uiso   1.00
O113   O     0.50000   0.18572   0.29072   0.00000  Uiso   1.00
O114   O     0.50000   0.31427   0.20929   0.00000  Uiso   1.00
O115   O     0.50000   0.18573   0.20928   0.00000  Uiso   1.00
O116   O     0.50000   0.31427   0.29072   0.00000  Uiso   1.00
O117   O     0.42495   0.24999   0.28132   0.00000  Uiso   1.00
O118   O     0.57505   0.25000   0.21868   0.00000  Uiso   1.00
O119   O     0.42495   0.25000   0.19989   0.00000  Uiso   1.00
O120   O     0.57505   0.25000   0.30012   0.00000  Uiso   1.00
Cl121  Cl    0.53867   0.02706   0.35179   0.00000  Uiso   1.00
Cl122  Cl    0.46132   0.47294   0.14820   0.00000  Uiso   1.00
Cl123  Cl    0.56357   0.02508   0.17413   0.00000  Uiso   1.00
Cl124  Cl    0.43642   0.47492   0.32586   0.00000  Uiso   1.00
C125   C     0.44199   0.18052   0.11816   0.00000  Uiso   1.00
H126   H     0.42408   0.19125   0.14903   0.00000  Uiso   1.00
H127   H     0.40894   0.17205   0.08944   0.00000  Uiso   1.00
H128   H     0.46341   0.14997   0.12733   0.00000  Uiso   1.00
C129   C     0.55800   0.31949   0.38183   0.00000  Uiso   1.00
H130   H     0.57593   0.30875   0.35098   0.00000  Uiso   1.00
H131   H     0.53656   0.35003   0.37265   0.00000  Uiso   1.00
H132   H     0.59104   0.32798   0.41056   0.00000  Uiso   1.00
C133   C     0.48673   0.16438   0.03094   0.00000  Uiso   1.00
H134   H     0.44709   0.15088   0.01821   0.00000  Uiso   1.00
H135   H     0.51105   0.16278   0.00176   0.00000  Uiso   1.00
H136   H     0.50560   0.14222   0.05916   0.00000  Uiso   1.00
C137   C     0.51327   0.33562   0.46907   0.00000  Uiso   1.00
H138   H     0.48894   0.33722   0.49824   0.00000  Uiso   1.00
H139   H     0.55291   0.34911   0.48180   0.00000  Uiso   1.00
H140   H     0.49440   0.35778   0.44085   0.00000  Uiso   1.00
C141   C     0.83461   0.16500   0.25003   0.00000  Uiso   1.00
C142   C     0.83205   0.33500   0.24997   0.00000  Uiso   1.00
C143   C     0.86405   0.28082   0.05957   0.00000  Uiso   1.00
C144   C     0.80263   0.21918   0.44043   0.00000  Uiso   1.00
C145   C     0.86208   0.28105   0.10959   0.00000  Uiso   1.00
C146   C     0.80459   0.21895   0.39041   0.00000  Uiso   1.00
C147   C     0.81004   0.21544   0.10022   0.00000  Uiso   1.00
C148   C     0.85662   0.28456   0.39978   0.00000  Uiso   1.00
C149   C     0.81858   0.21095   0.05147   0.00000  Uiso   1.00
C150   C     0.84808   0.28904   0.44853   0.00000  Uiso   1.00
C151   C     0.83666   0.24820   0.02785   0.00000  Uiso   1.00
C152   C     0.83001   0.25179   0.47215   0.00000  Uiso   1.00
C153   C     0.73459   0.24992   0.23747   0.00000  Uiso   1.00
C154   C     0.93208   0.25008   0.26253   0.00000  Uiso   1.00
C155   C     0.67912   0.24994   0.23073   0.00000  Uiso   1.00
C156   C     0.98755   0.25006   0.26927   0.00000  Uiso   1.00
C157   C     0.84453   0.04871   0.29576   0.00000  Uiso   1.00
C158   C     0.82213   0.45129   0.20423   0.00000  Uiso   1.00
C159   C     0.83942   0.09437   0.29448   0.00000  Uiso   1.00
C160   C     0.82725   0.40562   0.20551   0.00000  Uiso   1.00
C161   C     0.83905   0.11680   0.25090   0.00000  Uiso   1.00
C162   C     0.82761   0.38319   0.24910   0.00000  Uiso   1.00
C163   C     0.85144   0.09365   0.21080   0.00000  Uiso   1.00
C164   C     0.81521   0.40635   0.28920   0.00000  Uiso   1.00
C165   C     0.85627   0.04786   0.21242   0.00000  Uiso   1.00
C166   C     0.81039   0.45214   0.28757   0.00000  Uiso   1.00
C167   C     0.84120   0.02427   0.25185   0.00000  Uiso   1.00
C168   C     0.82546   0.47573   0.24814   0.00000  Uiso   1.00
Cu169  Cu    0.83333   0.24999   0.29822   0.00000  Uiso   1.00
Cu170  Cu    0.83333   0.25000   0.20179   0.00000  Uiso   1.00
H171   H     0.99205   0.24986   0.19391   0.00000  Uiso   1.00
H172   H     0.67462   0.25014   0.30609   0.00000  Uiso   1.00
H173   H     0.83919   0.11246   0.32814   0.00000  Uiso   1.00
H174   H     0.82748   0.38753   0.17186   0.00000  Uiso   1.00
H175   H     0.86130   0.11133   0.17983   0.00000  Uiso   1.00
H176   H     0.80534   0.38867   0.32016   0.00000  Uiso   1.00
H177   H     0.88907   0.30548   0.04701   0.00000  Uiso   1.00
H178   H     0.77760   0.19451   0.45299   0.00000  Uiso   1.00
H179   H     0.88367   0.30634   0.13258   0.00000  Uiso   1.00
H180   H     0.78300   0.19366   0.36742   0.00000  Uiso   1.00
N181   N     0.83333   0.25001   0.12935   0.00000  Uiso   1.00
N182   N     0.83333   0.24999   0.37066   0.00000  Uiso   1.00
O183   O     0.83334   0.18572   0.29072   0.00000  Uiso   1.00
O184   O     0.83333   0.31427   0.20929   0.00000  Uiso   1.00
O185   O     0.83334   0.18573   0.20928   0.00000  Uiso   1.00
O186   O     0.83333   0.31427   0.29072   0.00000  Uiso   1.00
O187   O     0.75828   0.24999   0.28132   0.00000  Uiso   1.00
O188   O     0.90839   0.25000   0.21868   0.00000  Uiso   1.00
O189   O     0.75828   0.25000   0.19989   0.00000  Uiso   1.00
O190   O     0.90839   0.25000   0.30012   0.00000  Uiso   1.00
Cl191  Cl    0.87201   0.02706   0.35179   0.00000  Uiso   1.00
Cl192  Cl    0.79465   0.47294   0.14820   0.00000  Uiso   1.00
Cl193  Cl    0.89690   0.02508   0.17413   0.00000  Uiso   1.00
Cl194  Cl    0.76975   0.47492   0.32586   0.00000  Uiso   1.00
C195   C     0.77532   0.18052   0.11816   0.00000  Uiso   1.00
H196   H     0.75741   0.19125   0.14903   0.00000  Uiso   1.00
H197   H     0.74228   0.17205   0.08944   0.00000  Uiso   1.00
H198   H     0.79674   0.14997   0.12733   0.00000  Uiso   1.00
C199   C     0.89133   0.31949   0.38183   0.00000  Uiso   1.00
H200   H     0.90926   0.30875   0.35098   0.00000  Uiso   1.00
H201   H     0.86989   0.35003   0.37265   0.00000  Uiso   1.00
H202   H     0.92437   0.32798   0.41056   0.00000  Uiso   1.00
C203   C     0.82007   0.16438   0.03094   0.00000  Uiso   1.00
H204   H     0.78042   0.15088   0.01821   0.00000  Uiso   1.00
H205   H     0.84439   0.16278   0.00176   0.00000  Uiso   1.00
H206   H     0.83893   0.14222   0.05916   0.00000  Uiso   1.00
C207   C     0.84660   0.33562   0.46907   0.00000  Uiso   1.00
H208   H     0.82228   0.33722   0.49824   0.00000  Uiso   1.00
H209   H     0.88624   0.34911   0.48180   0.00000  Uiso   1.00
H210   H     0.82773   0.35778   0.44085   0.00000  Uiso   1.00
C211   C     0.16795   0.66500   0.25003   0.00000  Uiso   1.00
C212   C     0.16539   0.83500   0.24997   0.00000  Uiso   1.00
C213   C     0.19738   0.78082   0.05957   0.00000  Uiso   1.00
C214   C     0.13596   0.71918   0.44043   0.00000  Uiso   1.00
C215   C     0.19541   0.78105   0.10959   0.00000  Uiso   1.00
C216   C     0.13792   0.71895   0.39041   0.00000  Uiso   1.00
C217   C     0.14338   0.71544   0.10022   0.00000  Uiso   1.00
C218   C     0.18996   0.78456   0.39978   0.00000  Uiso   1.00
C219   C     0.15192   0.71095   0.05147   0.00000  Uiso   1.00
C220   C     0.18142   0.78904   0.44853   0.00000  Uiso   1.00
C221   C     0.16999   0.74820   0.02785   0.00000  Uiso   1.00
C222   C     0.16334   0.75179   0.47215   0.00000  Uiso   1.00
C223   C     0.06792   0.74992   0.23747   0.00000  Uiso   1.00
C224   C     0.26541   0.75008   0.26253   0.00000  Uiso   1.00
C225   C     0.01245   0.74994   0.23073   0.00000  Uiso   1.00
C226   C     0.32088   0.75006   0.26927   0.00000  Uiso   1.00
C227   C     0.17787   0.54871   0.29576   0.00000  Uiso   1.00
C228   C     0.15546   0.95129   0.20423   0.00000  Uiso   1.00
C229   C     0.17275   0.59437   0.29448   0.00000  Uiso   1.00
C230   C     0.16059   0.90562   0.20551   0.00000  Uiso   1.00
C231   C     0.17238   0.61680   0.25090   0.00000  Uiso   1.00
C232   C     0.16095   0.88319   0.24910   0.00000  Uiso   1.00
C233   C     0.18477   0.59365   0.21080   0.00000  Uiso   1.00
C234   C     0.14855   0.90635   0.28920   0.00000  Uiso   1.00
C235   C     0.18960   0.54786   0.21242   0.00000  Uiso   1.00
C236   C     0.14372   0.95214   0.28757   0.00000  Uiso   1.00
C237   C     0.17453   0.52427   0.25185   0.00000  Uiso   1.00
C238   C     0.15879   0.97573   0.24814   0.00000  Uiso   1.00
Cu239  Cu    0.16667   0.74999   0.29822   0.00000  Uiso   1.00
Cu240  Cu    0.16667   0.75000   0.20179   0.00000  Uiso   1.00
H241   H     0.32538   0.74986   0.19391   0.00000  Uiso   1.00
H242   H     0.00795   0.75014   0.30609   0.00000  Uiso   1.00
H243   H     0.17252   0.61246   0.32814   0.00000  Uiso   1.00
H244   H     0.16082   0.88753   0.17186   0.00000  Uiso   1.00
H245   H     0.19464   0.61133   0.17983   0.00000  Uiso   1.00
H246   H     0.13868   0.88867   0.32016   0.00000  Uiso   1.00
H247   H     0.22240   0.80548   0.04701   0.00000  Uiso   1.00
H248   H     0.11094   0.69451   0.45299   0.00000  Uiso   1.00
H249   H     0.21700   0.80634   0.13258   0.00000  Uiso   1.00
H250   H     0.11633   0.69366   0.36742   0.00000  Uiso   1.00
N251   N     0.16667   0.75001   0.12935   0.00000  Uiso   1.00
N252   N     0.16667   0.74999   0.37066   0.00000  Uiso   1.00
O253   O     0.16667   0.68572   0.29072   0.00000  Uiso   1.00
O254   O     0.16666   0.81427   0.20929   0.00000  Uiso   1.00
O255   O     0.16667   0.68573   0.20928   0.00000  Uiso   1.00
O256   O     0.16666   0.81427   0.29072   0.00000  Uiso   1.00
O257   O     0.09161   0.74999   0.28132   0.00000  Uiso   1.00
O258   O     0.24172   0.75000   0.21868   0.00000  Uiso   1.00
O259   O     0.09161   0.75000   0.19989   0.00000  Uiso   1.00
O260   O     0.24172   0.75000   0.30012   0.00000  Uiso   1.00
Cl261  Cl    0.20534   0.52706   0.35179   0.00000  Uiso   1.00
Cl262  Cl    0.12799   0.97294   0.14820   0.00000  Uiso   1.00
Cl263  Cl    0.23023   0.52508   0.17413   0.00000  Uiso   1.00
Cl264  Cl    0.10308   0.97492   0.32586   0.00000  Uiso   1.00
C265   C     0.10865   0.68052   0.11816   0.00000  Uiso   1.00
H266   H     0.09074   0.69125   0.14903   0.00000  Uiso   1.00
H267   H     0.07561   0.67205   0.08944   0.00000  Uiso   1.00
H268   H     0.13008   0.64997   0.12733   0.00000  Uiso   1.00
C269   C     0.22467   0.81949   0.38183   0.00000  Uiso   1.00
H270   H     0.24260   0.80875   0.35098   0.00000  Uiso   1.00
H271   H     0.20322   0.85003   0.37265   0.00000  Uiso   1.00
H272   H     0.25770   0.82798   0.41056   0.00000  Uiso   1.00
C273   C     0.15340   0.66438   0.03094   0.00000  Uiso   1.00
H274   H     0.11375   0.65088   0.01821   0.00000  Uiso   1.00
H275   H     0.17772   0.66278   0.00176   0.00000  Uiso   1.00
H276   H     0.17227   0.64222   0.05916   0.00000  Uiso   1.00
C277   C     0.17993   0.83562   0.46907   0.00000  Uiso   1.00
H278   H     0.15561   0.83722   0.49824   0.00000  Uiso   1.00
H279   H     0.21958   0.84911   0.48180   0.00000  Uiso   1.00
H280   H     0.16107   0.85778   0.44085   0.00000  Uiso   1.00
C281   C     0.50128   0.66500   0.25003   0.00000  Uiso   1.00
C282   C     0.49872   0.83500   0.24997   0.00000  Uiso   1.00
C283   C     0.53071   0.78082   0.05957   0.00000  Uiso   1.00
C284   C     0.46929   0.71918   0.44043   0.00000  Uiso   1.00
C285   C     0.52875   0.78105   0.10959   0.00000  Uiso   1.00
C286   C     0.47126   0.71895   0.39041   0.00000  Uiso   1.00
C287   C     0.47671   0.71544   0.10022   0.00000  Uiso   1.00
C288   C     0.52329   0.78456   0.39978   0.00000  Uiso   1.00
C289   C     0.48525   0.71095   0.05147   0.00000  Uiso   1.00
C290   C     0.51475   0.78904   0.44853   0.00000  Uiso   1.00
C291   C     0.50333   0.74820   0.02785   0.00000  Uiso   1.00
C292   C     0.49668   0.75179   0.47215   0.00000  Uiso   1.00
C293   C     0.40125   0.74992   0.23747   0.00000  Uiso   1.00
C294   C     0.59875   0.75008   0.26253   0.00000  Uiso   1.00
C295   C     0.34578   0.74994   0.23073   0.00000  Uiso   1.00
C296   C     0.65422   0.75006   0.26927   0.00000  Uiso   1.00
C297   C     0.51120   0.54871   0.29576   0.00000  Uiso   1.00
C298   C     0.48880   0.95129   0.20423   0.00000  Uiso   1.00
C299   C     0.50608   0.59437   0.29448   0.00000  Uiso   1.00
C300   C     0.49392   0.90562   0.20551   0.00000  Uiso   1.00
C301   C     0.50572   0.61680   0.25090   0.00000  Uiso   1.00
C302   C     0.49428   0.88319   0.24910   0.00000  Uiso   1.00
C303   C     0.51811   0.59365   0.21080   0.00000  Uiso   1.00
C304   C     0.48188   0.90635   0.28920   0.00000  Uiso   1.00
C305   C     0.52293   0.54786   0.21242   0.00000  Uiso   1.00
C306   C     0.47705   0.95214   0.28757   0.00000  Uiso   1.00
C307   C     0.50786   0.52427   0.25185   0.00000  Uiso   1.00
C308   C     0.49213   0.97573   0.24814   0.00000  Uiso   1.00
Cu309  Cu    0.50000   0.74999   0.29822   0.00000  Uiso   1.00
Cu310  Cu    0.50000   0.75000   0.20179   0.00000  Uiso   1.00
H311   H     0.65872   0.74986   0.19391   0.00000  Uiso   1.00
H312   H     0.34128   0.75014   0.30609   0.00000  Uiso   1.00
H313   H     0.50586   0.61246   0.32814   0.00000  Uiso   1.00
H314   H     0.49415   0.88753   0.17186   0.00000  Uiso   1.00
H315   H     0.52797   0.61133   0.17983   0.00000  Uiso   1.00
H316   H     0.47201   0.88867   0.32016   0.00000  Uiso   1.00
H317   H     0.55574   0.80548   0.04701   0.00000  Uiso   1.00
H318   H     0.44427   0.69451   0.45299   0.00000  Uiso   1.00
H319   H     0.55034   0.80634   0.13258   0.00000  Uiso   1.00
H320   H     0.44967   0.69366   0.36742   0.00000  Uiso   1.00
N321   N     0.50000   0.75001   0.12935   0.00000  Uiso   1.00
N322   N     0.50000   0.74999   0.37066   0.00000  Uiso   1.00
O323   O     0.50000   0.68572   0.29072   0.00000  Uiso   1.00
O324   O     0.50000   0.81427   0.20929   0.00000  Uiso   1.00
O325   O     0.50000   0.68573   0.20928   0.00000  Uiso   1.00
O326   O     0.50000   0.81427   0.29072   0.00000  Uiso   1.00
O327   O     0.42495   0.74999   0.28132   0.00000  Uiso   1.00
O328   O     0.57505   0.75000   0.21868   0.00000  Uiso   1.00
O329   O     0.42495   0.75000   0.19989   0.00000  Uiso   1.00
O330   O     0.57505   0.75000   0.30012   0.00000  Uiso   1.00
Cl331  Cl    0.53867   0.52706   0.35179   0.00000  Uiso   1.00
Cl332  Cl    0.46132   0.97294   0.14820   0.00000  Uiso   1.00
Cl333  Cl    0.56357   0.52508   0.17413   0.00000  Uiso   1.00
Cl334  Cl    0.43642   0.97492   0.32586   0.00000  Uiso   1.00
C335   C     0.44199   0.68052   0.11816   0.00000  Uiso   1.00
H336   H     0.42408   0.69125   0.14903   0.00000  Uiso   1.00
H337   H     0.40894   0.67205   0.08944   0.00000  Uiso   1.00
H338   H     0.46341   0.64997   0.12733   0.00000  Uiso   1.00
C339   C     0.55800   0.81949   0.38183   0.00000  Uiso   1.00
H340   H     0.57593   0.80875   0.35098   0.00000  Uiso   1.00
H341   H     0.53656   0.85003   0.37265   0.00000  Uiso   1.00
H342   H     0.59104   0.82798   0.41056   0.00000  Uiso   1.00
C343   C     0.48673   0.66438   0.03094   0.00000  Uiso   1.00
H344   H     0.44709   0.65088   0.01821   0.00000  Uiso   1.00
H345   H     0.51105   0.66278   0.00176   0.00000  Uiso   1.00
H346   H     0.50560   0.64222   0.05916   0.00000  Uiso   1.00
C347   C     0.51327   0.83562   0.46907   0.00000  Uiso   1.00
H348   H     0.48894   0.83722   0.49824   0.00000  Uiso   1.00
H349   H     0.55291   0.84911   0.48180   0.00000  Uiso   1.00
H350   H     0.49440   0.85778   0.44085   0.00000  Uiso   1.00
C351   C     0.83461   0.66500   0.25003   0.00000  Uiso   1.00
C352   C     0.83205   0.83500   0.24997   0.00000  Uiso   1.00
C353   C     0.86405   0.78082   0.05957   0.00000  Uiso   1.00
C354   C     0.80263   0.71918   0.44043   0.00000  Uiso   1.00
C355   C     0.86208   0.78105   0.10959   0.00000  Uiso   1.00
C356   C     0.80459   0.71895   0.39041   0.00000  Uiso   1.00
C357   C     0.81004   0.71544   0.10022   0.00000  Uiso   1.00
C358   C     0.85662   0.78456   0.39978   0.00000  Uiso   1.00
C359   C     0.81858   0.71095   0.05147   0.00000  Uiso   1.00
C360   C     0.84808   0.78904   0.44853   0.00000  Uiso   1.00
C361   C     0.83666   0.74820   0.02785   0.00000  Uiso   1.00
C362   C     0.83001   0.75179   0.47215   0.00000  Uiso   1.00
C363   C     0.73459   0.74992   0.23747   0.00000  Uiso   1.00
C364   C     0.93208   0.75008   0.26253   0.00000  Uiso   1.00
C365   C     0.67912   0.74994   0.23073   0.00000  Uiso   1.00
C366   C     0.98755   0.75006   0.26927   0.00000  Uiso   1.00
C367   C     0.84453   0.54871   0.29576   0.00000  Uiso   1.00
C368   C     0.82213   0.95129   0.20423   0.00000  Uiso   1.00
C369   C     0.83942   0.59437   0.29448   0.00000  Uiso   1.00
C370   C     0.82725   0.90562   0.20551   0.00000  Uiso   1.00
C371   C     0.83905   0.61680   0.25090   0.00000  Uiso   1.00
C372   C     0.82761   0.88319   0.24910   0.00000  Uiso   1.00
C373   C     0.85144   0.59365   0.21080   0.00000  Uiso   1.00
C374   C     0.81521   0.90635   0.28920   0.00000  Uiso   1.00
C375   C     0.85627   0.54786   0.21242   0.00000  Uiso   1.00
C376   C     0.81039   0.95214   0.28757   0.00000  Uiso   1.00
C377   C     0.84120   0.52427   0.25185   0.00000  Uiso   1.00
C378   C     0.82546   0.97573   0.24814   0.00000  Uiso   1.00
Cu379  Cu    0.83333   0.74999   0.29822   0.00000  Uiso   1.00
Cu380  Cu    0.83333   0.75000   0.20179   0.00000  Uiso   1.00
H381   H     0.99205   0.74986   0.19391   0.00000  Uiso   1.00
H382   H     0.67462   0.75014   0.30609   0.00000  Uiso   1.00
H383   H     0.83919   0.61246   0.32814   0.00000  Uiso   1.00
H384   H     0.82748   0.88753   0.17186   0.00000  Uiso   1.00
H385   H     0.86130   0.61133   0.17983   0.00000  Uiso   1.00
H386   H     0.80534   0.88867   0.32016   0.00000  Uiso   1.00
H387   H     0.88907   0.80548   0.04701   0.00000  Uiso   1.00
H388   H     0.77760   0.69451   0.45299   0.00000  Uiso   1.00
H389   H     0.88367   0.80634   0.13258   0.00000  Uiso   1.00
H390   H     0.78300   0.69366   0.36742   0.00000  Uiso   1.00
N391   N     0.83333   0.75001   0.12935   0.00000  Uiso   1.00
N392   N     0.83333   0.74999   0.37066   0.00000  Uiso   1.00
O393   O     0.83334   0.68572   0.29072   0.00000  Uiso   1.00
O394   O     0.83333   0.81427   0.20929   0.00000  Uiso   1.00
O395   O     0.83334   0.68573   0.20928   0.00000  Uiso   1.00
O396   O     0.83333   0.81427   0.29072   0.00000  Uiso   1.00
O397   O     0.75828   0.74999   0.28132   0.00000  Uiso   1.00
O398   O     0.90839   0.75000   0.21868   0.00000  Uiso   1.00
O399   O     0.75828   0.75000   0.19989   0.00000  Uiso   1.00
O400   O     0.90839   0.75000   0.30012   0.00000  Uiso   1.00
Cl401  Cl    0.87201   0.52706   0.35179   0.00000  Uiso   1.00
Cl402  Cl    0.79465   0.97294   0.14820   0.00000  Uiso   1.00
Cl403  Cl    0.89690   0.52508   0.17413   0.00000  Uiso   1.00
Cl404  Cl    0.76975   0.97492   0.32586   0.00000  Uiso   1.00
C405   C     0.77532   0.68052   0.11816   0.00000  Uiso   1.00
H406   H     0.75741   0.69125   0.14903   0.00000  Uiso   1.00
H407   H     0.74228   0.67205   0.08944   0.00000  Uiso   1.00
H408   H     0.79674   0.64997   0.12733   0.00000  Uiso   1.00
C409   C     0.89133   0.81949   0.38183   0.00000  Uiso   1.00
H410   H     0.90926   0.80875   0.35098   0.00000  Uiso   1.00
H411   H     0.86989   0.85003   0.37265   0.00000  Uiso   1.00
H412   H     0.92437   0.82798   0.41056   0.00000  Uiso   1.00
C413   C     0.82007   0.66438   0.03094   0.00000  Uiso   1.00
H414   H     0.78042   0.65088   0.01821   0.00000  Uiso   1.00
H415   H     0.84439   0.66278   0.00176   0.00000  Uiso   1.00
H416   H     0.83893   0.64222   0.05916   0.00000  Uiso   1.00
C417   C     0.84660   0.83562   0.46907   0.00000  Uiso   1.00
H418   H     0.82228   0.83722   0.49824   0.00000  Uiso   1.00
H419   H     0.88624   0.84911   0.48180   0.00000  Uiso   1.00
H420   H     0.82773   0.85778   0.44085   0.00000  Uiso   1.00
C421   C     0.16795   0.16500   0.75003   0.00000  Uiso   1.00
C422   C     0.16539   0.33500   0.74997   0.00000  Uiso   1.00
C423   C     0.19738   0.28082   0.55957   0.00000  Uiso   1.00
C424   C     0.13596   0.21918   0.94043   0.00000  Uiso   1.00
C425   C     0.19541   0.28105   0.60959   0.00000  Uiso   1.00
C426   C     0.13792   0.21895   0.89041   0.00000  Uiso   1.00
C427   C     0.14338   0.21544   0.60022   0.00000  Uiso   1.00
C428   C     0.18996   0.28456   0.89978   0.00000  Uiso   1.00
C429   C     0.15192   0.21095   0.55147   0.00000  Uiso   1.00
C430   C     0.18142   0.28904   0.94853   0.00000  Uiso   1.00
C431   C     0.16999   0.24820   0.52785   0.00000  Uiso   1.00
C432   C     0.16334   0.25179   0.97215   0.00000  Uiso   1.00
C433   C     0.06792   0.24992   0.73747   0.00000  Uiso   1.00
C434   C     0.26541   0.25008   0.76253   0.00000  Uiso   1.00
C435   C     0.01245   0.24994   0.73073   0.00000  Uiso   1.00
C436   C     0.32088   0.25006   0.76927   0.00000  Uiso   1.00
C437   C     0.17787   0.04871   0.79576   0.00000  Uiso   1.00
C438   C     0.15546   0.45129   0.70423   0.00000  Uiso   1.00
C439   C     0.17275   0.09437   0.79448   0.00000  Uiso   1.00
C440   C     0.16059   0.40562   0.70551   0.00000  Uiso   1.00
C441   C     0.17238   0.11680   0.75090   0.00000  Uiso   1.00
C442   C     0.16095   0.38319   0.74910   0.00000  Uiso   1.00
C443   C     0.18477   0.09365   0.71080   0.00000  Uiso   1.00
C444   C     0.14855   0.40635   0.78920   0.00000  Uiso   1.00
C445   C     0.18960   0.04786   0.71242   0.00000  Uiso   1.00
C446   C     0.14372   0.45214   0.78757   0.00000  Uiso   1.00
C447   C     0.17453   0.02427   0.75185   0.00000  Uiso   1.00
C448   C     0.15879   0.47573   0.74814   0.00000  Uiso   1.00
Cu449  Cu    0.16667   0.24999   0.79822   0.00000  Uiso   1.00
Cu450  Cu    0.16667   0.25000   0.70179   0.00000  Uiso   1.00
H451   H     0.32538   0.24986   0.69391   0.00000  Uiso   1.00
H452   H     0.00795   0.25014   0.80609   0.00000  Uiso   1.00
H453   H     0.17252   0.11246   0.82814   0.00000  Uiso   1.00
H454   H     0.16082   0.38753   0.67186   0.00000  Uiso   1.00
H455   H     0.19464   0.11133   0.67983   0.00000  Uiso   1.00
H456   H     0.13868   0.38867   0.82016   0.00000  Uiso   1.00
H457   H     0.22240   0.30548   0.54701   0.00000  Uiso   1.00
H458   H     0.11094   0.19451   0.95299   0.00000  Uiso   1.00
H459   H     0.21700   0.30634   0.63258   0.00000  Uiso   1.00
H460   H     0.11633   0.19366   0.86742   0.00000  Uiso   1.00
N461   N     0.16667   0.25001   0.62935   0.00000  Uiso   1.00
N462   N     0.16667   0.24999   0.87066   0.00000  Uiso   1.00
O463   O     0.16667   0.18572   0.79072   0.00000  Uiso   1.00
O464   O     0.16666   0.31427   0.70929   0.00000  Uiso   1.00
O465   O     0.16667   0.18573   0.70928   0.00000  Uiso   1.00
O466   O     0.16666   0.31427   0.79072   0.00000  Uiso   1.00
O467   O     0.09161   0.24999   0.78132   0.00000  Uiso   1.00
O468   O     0.24172   0.25000   0.71868   0.00000  Uiso   1.00
O469   O     0.09161   0.25000   0.69989   0.00000  Uiso   1.00
O470   O     0.24172   0.25000   0.80012   0.00000  Uiso   1.00
Cl471  Cl    0.20534   0.02706   0.85179   0.00000  Uiso   1.00
Cl472  Cl    0.12799   0.47294   0.64820   0.00000  Uiso   1.00
Cl473  Cl    0.23023   0.02508   0.67413   0.00000  Uiso   1.00
Cl474  Cl    0.10308   0.47492   0.82586   0.00000  Uiso   1.00
C475   C     0.10865   0.18052   0.61816   0.00000  Uiso   1.00
H476   H     0.09074   0.19125   0.64903   0.00000  Uiso   1.00
H477   H     0.07561   0.17205   0.58944   0.00000  Uiso   1.00
H478   H     0.13008   0.14997   0.62733   0.00000  Uiso   1.00
C479   C     0.22467   0.31949   0.88183   0.00000  Uiso   1.00
H480   H     0.24260   0.30875   0.85098   0.00000  Uiso   1.00
H481   H     0.20322   0.35003   0.87265   0.00000  Uiso   1.00
H482   H     0.25770   0.32798   0.91056   0.00000  Uiso   1.00
C483   C     0.15340   0.16438   0.53094   0.00000  Uiso   1.00
H484   H     0.11375   0.15088   0.51821   0.00000  Uiso   1.00
H485   H     0.17772   0.16278   0.50176   0.00000  Uiso   1.00
H486   H     0.17227   0.14222   0.55916   0.00000  Uiso   1.00
C487   C     0.17993   0.33562   0.96907   0.00000  Uiso   1.00
H488   H     0.15561   0.33722   0.99824   0.00000  Uiso   1.00
H489   H     0.21958   0.34911   0.98180   0.00000  Uiso   1.00
H490   H     0.16107   0.35778   0.94085   0.00000  Uiso   1.00
C491   C     0.50128   0.16500   0.75003   0.00000  Uiso   1.00
C492   C     0.49872   0.33500   0.74997   0.00000  Uiso   1.00
C493   C     0.53071   0.28082   0.55957   0.00000  Uiso   1.00
C494   C     0.46929   0.21918   0.94043   0.00000  Uiso   1.00
C495   C     0.52875   0.28105   0.60959   0.00000  Uiso   1.00
C496   C     0.47126   0.21895   0.89041   0.00000  Uiso   1.00
C497   C     0.47671   0.21544   0.60022   0.00000  Uiso   1.00
C498   C     0.52329   0.28456   0.89978   0.00000  Uiso   1.00
C499   C     0.48525   0.21095   0.55147   0.00000  Uiso   1.00
C500   C     0.51475   0.28904   0.94853   0.00000  Uiso   1.00
C501   C     0.50333   0.24820   0.52785   0.00000  Uiso   1.00
C502   C     0.49668   0.25179   0.97215   0.00000  Uiso   1.00
C503   C     0.40125   0.24992   0.73747   0.00000  Uiso   1.00
C504   C     0.59875   0.25008   0.76253   0.00000  Uiso   1.00
C505   C     0.34578   0.24994   0.73073   0.00000  Uiso   1.00
C506   C     0.65422   0.25006   0.76927   0.00000  Uiso   1.00
C507   C     0.51120   0.04871   0.79576   0.00000  Uiso   1.00
C508   C     0.48880   0.45129   0.70423   0.00000  Uiso   1.00
C509   C     0.50608   0.09437   0.79448   0.00000  Uiso   1.00
C510   C     0.49392   0.40562   0.70551   0.00000  Uiso   1.00
C511   C     0.50572   0.11680   0.75090   0.00000  Uiso   1.00
C512   C     0.49428   0.38319   0.74910   0.00000  Uiso   1.00
C513   C     0.51811   0.09365   0.71080   0.00000  Uiso   1.00
C514   C     0.48188   0.40635   0.78920   0.00000  Uiso   1.00
C515   C     0.52293   0.04786   0.71242   0.00000  Uiso   1.00
C516   C     0.47705   0.45214   0.78757   0.00000  Uiso   1.00
C517   C     0.50786   0.02427   0.75185   0.00000  Uiso   1.00
C518   C     0.49213   0.47573   0.74814   0.00000  Uiso   1.00
Cu519  Cu    0.50000   0.24999   0.79822   0.00000  Uiso   1.00
Cu520  Cu    0.50000   0.25000   0.70179   0.00000  Uiso   1.00
H521   H     0.65872   0.24986   0.69391   0.00000  Uiso   1.00
H522   H     0.34128   0.25014   0.80609   0.00000  Uiso   1.00
H523   H     0.50586   0.11246   0.82814   0.00000  Uiso   1.00
H524   H     0.49415   0.38753   0.67186   0.00000  Uiso   1.00
H525   H     0.52797   0.11133   0.67983   0.00000  Uiso   1.00
H526   H     0.47201   0.38867   0.82016   0.00000  Uiso   1.00
H527   H     0.55574   0.30548   0.54701   0.00000  Uiso   1.00
H528   H     0.44427   0.19451   0.95299   0.00000  Uiso   1.00
H529   H     0.55034   0.30634   0.63258   0.00000  Uiso   1.00
H530   H     0.44967   0.19366   0.86742   0.00000  Uiso   1.00
N531   N     0.50000   0.25001   0.62935   0.00000  Uiso   1.00
N532   N     0.50000   0.24999   0.87066   0.00000  Uiso   1.00
O533   O     0.50000   0.18572   0.79072   0.00000  Uiso   1.00
O534   O     0.50000   0.31427   0.70929   0.00000  Uiso   1.00
O535   O     0.50000   0.18573   0.70928   0.00000  Uiso   1.00
O536   O     0.50000   0.31427   0.79072   0.00000  Uiso   1.00
O537   O     0.42495   0.24999   0.78132   0.00000  Uiso   1.00
O538   O     0.57505   0.25000   0.71868   0.00000  Uiso   1.00
O539   O     0.42495   0.25000   0.69989   0.00000  Uiso   1.00
O540   O     0.57505   0.25000   0.80012   0.00000  Uiso   1.00
Cl541  Cl    0.53867   0.02706   0.85179   0.00000  Uiso   1.00
Cl542  Cl    0.46132   0.47294   0.64820   0.00000  Uiso   1.00
Cl543  Cl    0.56357   0.02508   0.67413   0.00000  Uiso   1.00
Cl544  Cl    0.43642   0.47492   0.82586   0.00000  Uiso   1.00
C545   C     0.44199   0.18052   0.61816   0.00000  Uiso   1.00
H546   H     0.42408   0.19125   0.64903   0.00000  Uiso   1.00
H547   H     0.40894   0.17205   0.58944   0.00000  Uiso   1.00
H548   H     0.46341   0.14997   0.62733   0.00000  Uiso   1.00
C549   C     0.55800   0.31949   0.88183   0.00000  Uiso   1.00
H550   H     0.57593   0.30875   0.85098   0.00000  Uiso   1.00
H551   H     0.53656   0.35003   0.87265   0.00000  Uiso   1.00
H552   H     0.59104   0.32798   0.91056   0.00000  Uiso   1.00
C553   C     0.48673   0.16438   0.53094   0.00000  Uiso   1.00
H554   H     0.44709   0.15088   0.51821   0.00000  Uiso   1.00
H555   H     0.51105   0.16278   0.50176   0.00000  Uiso   1.00
H556   H     0.50560   0.14222   0.55916   0.00000  Uiso   1.00
C557   C     0.51327   0.33562   0.96907   0.00000  Uiso   1.00
H558   H     0.48894   0.33722   0.99824   0.00000  Uiso   1.00
H559   H     0.55291   0.34911   0.98180   0.00000  Uiso   1.00
H560   H     0.49440   0.35778   0.94085   0.00000  Uiso   1.00
C561   C     0.83461   0.16500   0.75003   0.00000  Uiso   1.00
C562   C     0.83205   0.33500   0.74997   0.00000  Uiso   1.00
C563   C     0.86405   0.28082   0.55957   0.00000  Uiso   1.00
C564   C     0.80263   0.21918   0.94043   0.00000  Uiso   1.00
C565   C     0.86208   0.28105   0.60959   0.00000  Uiso   1.00
C566   C     0.80459   0.21895   0.89041   0.00000  Uiso   1.00
C567   C     0.81004   0.21544   0.60022   0.00000  Uiso   1.00
C568   C     0.85662   0.28456   0.89978   0.00000  Uiso   1.00
C569   C     0.81858   0.21095   0.55147   0.00000  Uiso   1.00
C570   C     0.84808   0.28904   0.94853   0.00000  Uiso   1.00
C571   C     0.83666   0.24820   0.52785   0.00000  Uiso   1.00
C572   C     0.83001   0.25179   0.97215   0.00000  Uiso   1.00
C573   C     0.73459   0.24992   0.73747   0.00000  Uiso   1.00
C574   C     0.93208   0.25008   0.76253   0.00000  Uiso   1.00
C575   C     0.67912   0.24994   0.73073   0.00000  Uiso   1.00
C576   C     0.98755   0.25006   0.76927   0.00000  Uiso   1.00
C577   C     0.84453   0.04871   0.79576   0.00000  Uiso   1.00
C578   C     0.82213   0.45129   0.70423   0.00000  Uiso   1.00
C579   C     0.83942   0.09437   0.79448   0.00000  Uiso   1.00
C580   C     0.82725   0.40562   0.70551   0.00000  Uiso   1.00
C581   C     0.83905   0.11680   0.75090   0.00000  Uiso   1.00
C582   C     0.82761   0.38319   0.74910   0.00000  Uiso   1.00
C583   C     0.85144   0.09365   0.71080   0.00000  Uiso   1.00
C584   C     0.81521   0.40635   0.78920   0.00000  Uiso   1.00
C585   C     0.85627   0.04786   0.71242   0.00000  Uiso   1.00
C586   C     0.81039   0.45214   0.78757   0.00000  Uiso   1.00
C587   C     0.84120   0.02427   0.75185   0.00000  Uiso   1.00
C588   C     0.82546   0.47573   0.74814   0.00000  Uiso   1.00
Cu589  Cu    0.83333   0.24999   0.79822   0.00000  Uiso   1.00
Cu590  Cu    0.83333   0.25000   0.70179   0.00000  Uiso   1.00
H591   H     0.99205   0.24986   0.69391   0.00000  Uiso   1.00
H592   H     0.67462   0.25014   0.80609   0.00000  Uiso   1.00
H593   H     0.83919   0.11246   0.82814   0.00000  Uiso   1.00
H594   H     0.82748   0.38753   0.67186   0.00000  Uiso   1.00
H595   H     0.86130   0.11133   0.67983   0.00000  Uiso   1.00
H596   H     0.80534   0.38867   0.82016   0.00000  Uiso   1.00
H597   H     0.88907   0.30548   0.54701   0.00000  Uiso   1.00
H598   H     0.77760   0.19451   0.95299   0.00000  Uiso   1.00
H599   H     0.88367   0.30634   0.63258   0.00000  Uiso   1.00
H600   H     0.78300   0.19366   0.86742   0.00000  Uiso   1.00
N601   N     0.83333   0.25001   0.62935   0.00000  Uiso   1.00
N602   N     0.83333   0.24999   0.87066   0.00000  Uiso   1.00
O603   O     0.83334   0.18572   0.79072   0.00000  Uiso   1.00
O604   O     0.83333   0.31427   0.70929   0.00000  Uiso   1.00
O605   O     0.83334   0.18573   0.70928   0.00000  Uiso   1.00
O606   O     0.83333   0.31427   0.79072   0.00000  Uiso   1.00
O607   O     0.75828   0.24999   0.78132   0.00000  Uiso   1.00
O608   O     0.90839   0.25000   0.71868   0.00000  Uiso   1.00
O609   O     0.75828   0.25000   0.69989   0.00000  Uiso   1.00
O610   O     0.90839   0.25000   0.80012   0.00000  Uiso   1.00
Cl611  Cl    0.87201   0.02706   0.85179   0.00000  Uiso   1.00
Cl612  Cl    0.79465   0.47294   0.64820   0.00000  Uiso   1.00
Cl613  Cl    0.89690   0.02508   0.67413   0.00000  Uiso   1.00
Cl614  Cl    0.76975   0.47492   0.82586   0.00000  Uiso   1.00
C615   C     0.77532   0.18052   0.61816   0.00000  Uiso   1.00
H616   H     0.75741   0.19125   0.64903   0.00000  Uiso   1.00
H617   H     0.74228   0.17205   0.58944   0.00000  Uiso   1.00
H618   H     0.79674   0.14997   0.62733   0.00000  Uiso   1.00
C619   C     0.89133   0.31949   0.88183   0.00000  Uiso   1.00
H620   H     0.90926   0.30875   0.85098   0.00000  Uiso   1.00
H621   H     0.86989   0.35003   0.87265   0.00000  Uiso   1.00
H622   H     0.92437   0.32798   0.91056   0.00000  Uiso   1.00
C623   C     0.82007   0.16438   0.53094   0.00000  Uiso   1.00
H624   H     0.78042   0.15088   0.51821   0.00000  Uiso   1.00
H625   H     0.84439   0.16278   0.50176   0.00000  Uiso   1.00
H626   H     0.83893   0.14222   0.55916   0.00000  Uiso   1.00
C627   C     0.84660   0.33562   0.96907   0.00000  Uiso   1.00
H628   H     0.82228   0.33722   0.99824   0.00000  Uiso   1.00
H629   H     0.88624   0.34911   0.98180   0.00000  Uiso   1.00
H630   H     0.82773   0.35778   0.94085   0.00000  Uiso   1.00
C631   C     0.16795   0.66500   0.75003   0.00000  Uiso   1.00
C632   C     0.16539   0.83500   0.74997   0.00000  Uiso   1.00
C633   C     0.19738   0.78082   0.55957   0.00000  Uiso   1.00
C634   C     0.13596   0.71918   0.94043   0.00000  Uiso   1.00
C635   C     0.19541   0.78105   0.60959   0.00000  Uiso   1.00
C636   C     0.13792   0.71895   0.89041   0.00000  Uiso   1.00
C637   C     0.14338   0.71544   0.60022   0.00000  Uiso   1.00
C638   C     0.18996   0.78456   0.89978   0.00000  Uiso   1.00
C639   C     0.15192   0.71095   0.55147   0.00000  Uiso   1.00
C640   C     0.18142   0.78904   0.94853   0.00000  Uiso   1.00
C641   C     0.16999   0.74820   0.52785   0.00000  Uiso   1.00
C642   C     0.16334   0.75179   0.97215   0.00000  Uiso   1.00
C643   C     0.06792   0.74992   0.73747   0.00000  Uiso   1.00
C644   C     0.26541   0.75008   0.76253   0.00000  Uiso   1.00
C645   C     0.01245   0.74994   0.73073   0.00000  Uiso   1.00
C646   C     0.32088   0.75006   0.76927   0.00000  Uiso   1.00
C647   C     0.17787   0.54871   0.79576   0.00000  Uiso   1.00
C648   C     0.15546   0.95129   0.70423   0.00000  Uiso   1.00
C649   C     0.17275   0.59437   0.79448   0.00000  Uiso   1.00
C650   C     0.16059   0.90562   0.70551   0.00000  Uiso   1.00
C651   C     0.17238   0.61680   0.75090   0.00000  Uiso   1.00
C652   C     0.16095   0.88319   0.74910   0.00000  Uiso   1.00
C653   C     0.18477   0.59365   0.71080   0.00000  Uiso   1.00
C654   C     0.14855   0.90635   0.78920   0.00000  Uiso   1.00
C655   C     0.18960   0.54786   0.71242   0.00000  Uiso   1.00
C656   C     0.14372   0.95214   0.78757   0.00000  Uiso   1.00
C657   C     0.17453   0.52427   0.75185   0.00000  Uiso   1.00
C658   C     0.15879   0.97573   0.74814   0.00000  Uiso   1.00
Cu659  Cu    0.16667   0.74999   0.79822   0.00000  Uiso   1.00
Cu660  Cu    0.16667   0.75000   0.70179   0.00000  Uiso   1.00
H661   H     0.32538   0.74986   0.69391   0.00000  Uiso   1.00
H662   H     0.00795   0.75014   0.80609   0.00000  Uiso   1.00
H663   H     0.17252   0.61246   0.82814   0.00000  Uiso   1.00
H664   H     0.16082   0.88753   0.67186   0.00000  Uiso   1.00
H665   H     0.19464   0.61133   0.67983   0.00000  Uiso   1.00
H666   H     0.13868   0.88867   0.82016   0.00000  Uiso   1.00
H667   H     0.22240   0.80548   0.54701   0.00000  Uiso   1.00
H668   H     0.11094   0.69451   0.95299   0.00000  Uiso   1.00
H669   H     0.21700   0.80634   0.63258   0.00000  Uiso   1.00
H670   H     0.11633   0.69366   0.86742   0.00000  Uiso   1.00
N671   N     0.16667   0.75001   0.62935   0.00000  Uiso   1.00
N672   N     0.16667   0.74999   0.87066   0.00000  Uiso   1.00
O673   O     0.16667   0.68572   0.79072   0.00000  Uiso   1.00
O674   O     0.16666   0.81427   0.70929   0.00000  Uiso   1.00
O675   O     0.16667   0.68573   0.70928   0.00000  Uiso   1.00
O676   O     0.16666   0.81427   0.79072   0.00000  Uiso   1.00
O677   O     0.09161   0.74999   0.78132   0.00000  Uiso   1.00
O678   O     0.24172   0.75000   0.71868   0.00000  Uiso   1.00
O679   O     0.09161   0.75000   0.69989   0.00000  Uiso   1.00
O680   O     0.24172   0.75000   0.80012   0.00000  Uiso   1.00
Cl681  Cl    0.20534   0.52706   0.85179   0.00000  Uiso   1.00
Cl682  Cl    0.12799   0.97294   0.64820   0.00000  Uiso   1.00
Cl683  Cl    0.23023   0.52508   0.67413   0.00000  Uiso   1.00
Cl684  Cl    0.10308   0.97492   0.82586   0.00000  Uiso   1.00
C685   C     0.10865   0.68052   0.61816   0.00000  Uiso   1.00
H686   H     0.09074   0.69125   0.64903   0.00000  Uiso   1.00
H687   H     0.07561   0.67205   0.58944   0.00000  Uiso   1.00
H688   H     0.13008   0.64997   0.62733   0.00000  Uiso   1.00
C689   C     0.22467   0.81949   0.88183   0.00000  Uiso   1.00
H690   H     0.24260   0.80875   0.85098   0.00000  Uiso   1.00
H691   H     0.20322   0.85003   0.87265   0.00000  Uiso   1.00
H692   H     0.25770   0.82798   0.91056   0.00000  Uiso   1.00
C693   C     0.15340   0.66438   0.53094   0.00000  Uiso   1.00
H694   H     0.11375   0.65088   0.51821   0.00000  Uiso   1.00
H695   H     0.17772   0.66278   0.50176   0.00000  Uiso   1.00
H696   H     0.17227   0.64222   0.55916   0.00000  Uiso   1.00
C697   C     0.17993   0.83562   0.96907   0.00000  Uiso   1.00
H698   H     0.15561   0.83722   0.99824   0.00000  Uiso   1.00
H699   H     0.21958   0.84911   0.98180   0.00000  Uiso   1.00
H700   H     0.16107   0.85778   0.94085   0.00000  Uiso   1.00
C701   C     0.50128   0.66500   0.75003   0.00000  Uiso   1.00
C702   C     0.49872   0.83500   0.74997   0.00000  Uiso   1.00
C703   C     0.53071   0.78082   0.55957   0.00000  Uiso   1.00
C704   C     0.46929   0.71918   0.94043   0.00000  Uiso   1.00
C705   C     0.52875   0.78105   0.60959   0.00000  Uiso   1.00
C706   C     0.47126   0.71895   0.89041   0.00000  Uiso   1.00
C707   C     0.47671   0.71544   0.60022   0.00000  Uiso   1.00
C708   C     0.52329   0.78456   0.89978   0.00000  Uiso   1.00
C709   C     0.48525   0.71095   0.55147   0.00000  Uiso   1.00
C710   C     0.51475   0.78904   0.94853   0.00000  Uiso   1.00
C711   C     0.50333   0.74820   0.52785   0.00000  Uiso   1.00
C712   C     0.49668   0.75179   0.97215   0.00000  Uiso   1.00
C713   C     0.40125   0.74992   0.73747   0.00000  Uiso   1.00
C714   C     0.59875   0.75008   0.76253   0.00000  Uiso   1.00
C715   C     0.34578   0.74994   0.73073   0.00000  Uiso   1.00
C716   C     0.65422   0.75006   0.76927   0.00000  Uiso   1.00
C717   C     0.51120   0.54871   0.79576   0.00000  Uiso   1.00
C718   C     0.48880   0.95129   0.70423   0.00000  Uiso   1.00
C719   C     0.50608   0.59437   0.79448   0.00000  Uiso   1.00
C720   C     0.49392   0.90562   0.70551   0.00000  Uiso   1.00
C721   C     0.50572   0.61680   0.75090   0.00000  Uiso   1.00
C722   C     0.49428   0.88319   0.74910   0.00000  Uiso   1.00
C723   C     0.51811   0.59365   0.71080   0.00000  Uiso   1.00
C724   C     0.48188   0.90635   0.78920   0.00000  Uiso   1.00
C725   C     0.52293   0.54786   0.71242   0.00000  Uiso   1.00
C726   C     0.47705   0.95214   0.78757   0.00000  Uiso   1.00
C727   C     0.50786   0.52427   0.75185   0.00000  Uiso   1.00
C728   C     0.49213   0.97573   0.74814   0.00000  Uiso   1.00
Cu729  Cu    0.50000   0.74999   0.79822   0.00000  Uiso   1.00
Cu730  Cu    0.50000   0.75000   0.70179   0.00000  Uiso   1.00
H731   H     0.65872   0.74986   0.69391   0.00000  Uiso   1.00
H732   H     0.34128   0.75014   0.80609   0.00000  Uiso   1.00
H733   H     0.50586   0.61246   0.82814   0.00000  Uiso   1.00
H734   H     0.49415   0.88753   0.67186   0.00000  Uiso   1.00
H735   H     0.52797   0.61133   0.67983   0.00000  Uiso   1.00
H736   H     0.47201   0.88867   0.82016   0.00000  Uiso   1.00
H737   H     0.55574   0.80548   0.54701   0.00000  Uiso   1.00
H738   H     0.44427   0.69451   0.95299   0.00000  Uiso   1.00
H739   H     0.55034   0.80634   0.63258   0.00000  Uiso   1.00
H740   H     0.44967   0.69366   0.86742   0.00000  Uiso   1.00
N741   N     0.50000   0.75001   0.62935   0.00000  Uiso   1.00
N742   N     0.50000   0.74999   0.87066   0.00000  Uiso   1.00
O743   O     0.50000   0.68572   0.79072   0.00000  Uiso   1.00
O744   O     0.50000   0.81427   0.70929   0.00000  Uiso   1.00
O745   O     0.50000   0.68573   0.70928   0.00000  Uiso   1.00
O746   O     0.50000   0.81427   0.79072   0.00000  Uiso   1.00
O747   O     0.42495   0.74999   0.78132   0.00000  Uiso   1.00
O748   O     0.57505   0.75000   0.71868   0.00000  Uiso   1.00
O749   O     0.42495   0.75000   0.69989   0.00000  Uiso   1.00
O750   O     0.57505   0.75000   0.80012   0.00000  Uiso   1.00
Cl751  Cl    0.53867   0.52706   0.85179   0.00000  Uiso   1.00
Cl752  Cl    0.46132   0.97294   0.64820   0.00000  Uiso   1.00
Cl753  Cl    0.56357   0.52508   0.67413   0.00000  Uiso   1.00
Cl754  Cl    0.43642   0.97492   0.82586   0.00000  Uiso   1.00
C755   C     0.44199   0.68052   0.61816   0.00000  Uiso   1.00
H756   H     0.42408   0.69125   0.64903   0.00000  Uiso   1.00
H757   H     0.40894   0.67205   0.58944   0.00000  Uiso   1.00
H758   H     0.46341   0.64997   0.62733   0.00000  Uiso   1.00
C759   C     0.55800   0.81949   0.88183   0.00000  Uiso   1.00
H760   H     0.57593   0.80875   0.85098   0.00000  Uiso   1.00
H761   H     0.53656   0.85003   0.87265   0.00000  Uiso   1.00
H762   H     0.59104   0.82798   0.91056   0.00000  Uiso   1.00
C763   C     0.48673   0.66438   0.53094   0.00000  Uiso   1.00
H764   H     0.44709   0.65088   0.51821   0.00000  Uiso   1.00
H765   H     0.51105   0.66278   0.50176   0.00000  Uiso   1.00
H766   H     0.50560   0.64222   0.55916   0.00000  Uiso   1.00
C767   C     0.51327   0.83562   0.96907   0.00000  Uiso   1.00
H768   H     0.48894   0.83722   0.99824   0.00000  Uiso   1.00
H769   H     0.55291   0.84911   0.98180   0.00000  Uiso   1.00
H770   H     0.49440   0.85778   0.94085   0.00000  Uiso   1.00
C771   C     0.83461   0.66500   0.75003   0.00000  Uiso   1.00
C772   C     0.83205   0.83500   0.74997   0.00000  Uiso   1.00
C773   C     0.86405   0.78082   0.55957   0.00000  Uiso   1.00
C774   C     0.80263   0.71918   0.94043   0.00000  Uiso   1.00
C775   C     0.86208   0.78105   0.60959   0.00000  Uiso   1.00
C776   C     0.80459   0.71895   0.89041   0.00000  Uiso   1.00
C777   C     0.81004   0.71544   0.60022   0.00000  Uiso   1.00
C778   C     0.85662   0.78456   0.89978   0.00000  Uiso   1.00
C779   C     0.81858   0.71095   0.55147   0.00000  Uiso   1.00
C780   C     0.84808   0.78904   0.94853   0.00000  Uiso   1.00
C781   C     0.83666   0.74820   0.52785   0.00000  Uiso   1.00
C782   C     0.83001   0.75179   0.97215   0.00000  Uiso   1.00
C783   C     0.73459   0.74992   0.73747   0.00000  Uiso   1.00
C784   C     0.93208   0.75008   0.76253   0.00000  Uiso   1.00
C785   C     0.67912   0.74994   0.73073   0.00000  Uiso   1.00
C786   C     0.98755   0.75006   0.76927   0.00000  Uiso   1.00
C787   C     0.84453   0.54871   0.79576   0.00000  Uiso   1.00
C788   C     0.82213   0.95129   0.70423   0.00000  Uiso   1.00
C789   C     0.83942   0.59437   0.79448   0.00000  Uiso   1.00
C790   C     0.82725   0.90562   0.70551   0.00000  Uiso   1.00
C791   C     0.83905   0.61680   0.75090   0.00000  Uiso   1.00
C792   C     0.82761   0.88319   0.74910   0.00000  Uiso   1.00
C793   C     0.85144   0.59365   0.71080   0.00000  Uiso   1.00
C794   C     0.81521   0.90635   0.78920   0.00000  Uiso   1.00
C795   C     0.85627   0.54786   0.71242   0.00000  Uiso   1.00
C796   C     0.81039   0.95214   0.78757   0.00000  Uiso   1.00
C797   C     0.84120   0.52427   0.75185   0.00000  Uiso   1.00
C798   C     0.82546   0.97573   0.74814   0.00000  Uiso   1.00
Cu799  Cu    0.83333   0.74999   0.79822   0.00000  Uiso   1.00
Cu800  Cu    0.83333   0.75000   0.70179   0.00000  Uiso   1.00
H801   H     0.99205   0.74986   0.69391   0.00000  Uiso   1.00
H802   H     0.67462   0.75014   0.80609   0.00000  Uiso   1.00
H803   H     0.83919   0.61246   0.82814   0.00000  Uiso   1.00
H804   H     0.82748   0.88753   0.67186   0.00000  Uiso   1.00
H805   H     0.86130   0.61133   0.67983   0.00000  Uiso   1.00
H806   H     0.80534   0.88867   0.82016   0.00000  Uiso   1.00
H807   H     0.88907   0.80548   0.54701   0.00000  Uiso   1.00
H808   H     0.77760   0.69451   0.95299   0.00000  Uiso   1.00
H809   H     0.88367   0.80634   0.63258   0.00000  Uiso   1.00
H810   H     0.78300   0.69366   0.86742   0.00000  Uiso   1.00
N811   N     0.83333   0.75001   0.62935   0.00000  Uiso   1.00
N812   N     0.83333   0.74999   0.87066   0.00000  Uiso   1.00
O813   O     0.83334   0.68572   0.79072   0.00000  Uiso   1.00
O814   O     0.83333   0.81427   0.70929   0.00000  Uiso   1.00
O815   O     0.83334   0.68573   0.70928   0.00000  Uiso   1.00
O816   O     0.83333   0.81427   0.79072   0.00000  Uiso   1.00
O817   O     0.75828   0.74999   0.78132   0.00000  Uiso   1.00
O818   O     0.90839   0.75000   0.71868   0.00000  Uiso   1.00
O819   O     0.75828   0.75000   0.69989   0.00000  Uiso   1.00
O820   O     0.90839   0.75000   0.80012   0.00000  Uiso   1.00
Cl821  Cl    0.87201   0.52706   0.85179   0.00000  Uiso   1.00
Cl822  Cl    0.79465   0.97294   0.64820   0.00000  Uiso   1.00
Cl823  Cl    0.89690   0.52508   0.67413   0.00000  Uiso   1.00
Cl824  Cl    0.76975   0.97492   0.82586   0.00000  Uiso   1.00
C825   C     0.77532   0.68052   0.61816   0.00000  Uiso   1.00
H826   H     0.75741   0.69125   0.64903   0.00000  Uiso   1.00
H827   H     0.74228   0.67205   0.58944   0.00000  Uiso   1.00
H828   H     0.79674   0.64997   0.62733   0.00000  Uiso   1.00
C829   C     0.89133   0.81949   0.88183   0.00000  Uiso   1.00
H830   H     0.90926   0.80875   0.85098   0.00000  Uiso   1.00
H831   H     0.86989   0.85003   0.87265   0.00000  Uiso   1.00
H832   H     0.92437   0.82798   0.91056   0.00000  Uiso   1.00
C833   C     0.82007   0.66438   0.53094   0.00000  Uiso   1.00
H834   H     0.78042   0.65088   0.51821   0.00000  Uiso   1.00
H835   H     0.84439   0.66278   0.50176   0.00000  Uiso   1.00
H836   H     0.83893   0.64222   0.55916   0.00000  Uiso   1.00
C837   C     0.84660   0.83562   0.96907   0.00000  Uiso   1.00
H838   H     0.82228   0.83722   0.99824   0.00000  Uiso   1.00
H839   H     0.88624   0.84911   0.98180   0.00000  Uiso   1.00
H840   H     0.82773   0.85778   0.94085   0.00000  Uiso   1.00
loop_
_geom_bond_atom_site_label_1
_geom_bond_atom_site_label_2
_geom_bond_distance
_geom_bond_site_symmetry_2
_ccdc_geom_bond_type
C1     C21     1.465   .     S
C1     O45     1.304   .     A
C1     O43     1.297   .     A
C2     C22     1.465   .     S
C2     O46     1.304   .     A
C2     O44     1.297   .     A
C3     C5      1.407   .     A
C3     C11     1.421   .     A
C3     H37     1.075   .     S
C4     H38     1.075   .     S
C4     C12     1.421   .     A
C4     C6      1.407   .     A
C5     H39     1.082   .     S
C5     N41     1.359   .     A
C6     N42     1.359   .     A
C6     H40     1.082   .     S
C7     C55     1.512   .     S
C7     C9      1.420   .     A
C7     N41     1.385   .     A
C8     C59     1.512   .     S
C8     N42     1.385   .     A
C8     C10     1.420   .     A
C9     C11     1.417   .     A
C9     C63     1.517   .     S
C10    C67     1.517   .     S
C10    C12     1.417   .     A
C11    C432    1.547   1_554 S
C12    C431    1.547   .     S
C13    O49     1.298   .     A
C13    C15     1.437   .     S
C13    O47     1.289   .     A
C14    O50     1.298   .     A
C14    C16     1.437   .     S
C14    O48     1.289   .     A
C15    C156    1.340   1_455 S
C15    H171    1.087   1_455 S
C16    C85     1.340   .     S
C16    H102    1.087   .     S
C17    Cl51    1.766   .     S
C17    C19     1.391   .     A
C17    C27     1.415   .     A
C18    Cl52    1.766   .     S
C18    C28     1.415   .     A
C18    C20     1.391   .     A
C19    H33     1.083   .     S
C19    C21     1.401   .     A
C20    H34     1.083   .     S
C20    C22     1.401   .     A
C21    C23     1.398   .     A
C22    C24     1.398   .     A
C23    H35     1.083   .     S
C23    C25     1.394   .     A
C24    H36     1.083   .     S
C24    C26     1.394   .     A
C25    C27     1.419   .     A
C25    Cl53    1.766   .     S
C26    C28     1.419   .     A
C26    Cl54    1.766   .     S
C27    C238    1.510   1_545 S
C28    C237    1.510   .     S
Cu29   Cu30    2.697   .     S
Cu29   N42     2.026   .     S
Cu29   O46     1.957   .     S
Cu29   O43     1.951   .     S
Cu29   O47     1.952   .     S
Cu29   O50     1.959   .     S
Cu30   N41     2.026   .     S
Cu30   O45     1.957   .     S
Cu30   O44     1.951   .     S
Cu30   O48     1.952   .     S
Cu30   O49     1.959   .     S
H31    C85     1.087   .     S
H32    C156    1.087   1_455 S
C55    H56     1.092   .     S
C55    H57     1.111   .     S
C55    H58     1.108   .     S
C59    H60     1.092   .     S
C59    H61     1.108   .     S
C59    H62     1.111   .     S
C63    H65     1.109   .     S
C63    H66     1.110   .     S
C63    H64     1.110   .     S
C67    H70     1.110   .     S
C67    H68     1.109   .     S
C67    H69     1.110   .     S
C71    C91     1.465   .     S
C71    O115    1.304   .     A
C71    O113    1.297   .     A
C72    C92     1.465   .     S
C72    O116    1.304   .     A
C72    O114    1.297   .     A
C73    C75     1.407   .     A
C73    C81     1.421   .     A
C73    H107    1.075   .     S
C74    H108    1.075   .     S
C74    C82     1.421   .     A
C74    C76     1.407   .     A
C75    H109    1.082   .     S
C75    N111    1.359   .     A
C76    N112    1.359   .     A
C76    H110    1.082   .     S
C77    C125    1.512   .     S
C77    C79     1.420   .     A
C77    N111    1.385   .     A
C78    C129    1.512   .     S
C78    N112    1.385   .     A
C78    C80     1.420   .     A
C79    C81     1.417   .     A
C79    C133    1.517   .     S
C80    C137    1.517   .     S
C80    C82     1.417   .     A
C81    C502    1.547   1_554 S
C82    C501    1.547   .     S
C83    O119    1.298   .     A
C83    C85     1.437   .     S
C83    O117    1.289   .     A
C84    O120    1.298   .     A
C84    C86     1.437   .     S
C84    O118    1.289   .     A
C86    C155    1.340   .     S
C86    H172    1.087   .     S
C87    Cl121   1.766   .     S
C87    C89     1.391   .     A
C87    C97     1.415   .     A
C88    Cl122   1.766   .     S
C88    C98     1.415   .     A
C88    C90     1.391   .     A
C89    H103    1.083   .     S
C89    C91     1.401   .     A
C90    H104    1.083   .     S
C90    C92     1.401   .     A
C91    C93     1.398   .     A
C92    C94     1.398   .     A
C93    H105    1.083   .     S
C93    C95     1.394   .     A
C94    H106    1.083   .     S
C94    C96     1.394   .     A
C95    C97     1.419   .     A
C95    Cl123   1.766   .     S
C96    C98     1.419   .     A
C96    Cl124   1.766   .     S
C97    C308    1.510   1_545 S
C98    C307    1.510   .     S
Cu99   Cu100   2.697   .     S
Cu99   N112    2.026   .     S
Cu99   O116    1.957   .     S
Cu99   O113    1.951   .     S
Cu99   O117    1.952   .     S
Cu99   O120    1.959   .     S
Cu100  N111    2.026   .     S
Cu100  O115    1.957   .     S
Cu100  O114    1.951   .     S
Cu100  O118    1.952   .     S
Cu100  O119    1.959   .     S
H101   C155    1.087   .     S
C125   H126    1.092   .     S
C125   H127    1.111   .     S
C125   H128    1.108   .     S
C129   H130    1.092   .     S
C129   H131    1.108   .     S
C129   H132    1.111   .     S
C133   H135    1.109   .     S
C133   H136    1.110   .     S
C133   H134    1.110   .     S
C137   H140    1.110   .     S
C137   H138    1.109   .     S
C137   H139    1.110   .     S
C141   C161    1.465   .     S
C141   O185    1.304   .     A
C141   O183    1.297   .     A
C142   C162    1.465   .     S
C142   O186    1.304   .     A
C142   O184    1.297   .     A
C143   C145    1.407   .     A
C143   C151    1.421   .     A
C143   H177    1.075   .     S
C144   H178    1.075   .     S
C144   C152    1.421   .     A
C144   C146    1.407   .     A
C145   H179    1.082   .     S
C145   N181    1.359   .     A
C146   N182    1.359   .     A
C146   H180    1.082   .     S
C147   C195    1.512   .     S
C147   C149    1.420   .     A
C147   N181    1.385   .     A
C148   C199    1.512   .     S
C148   N182    1.385   .     A
C148   C150    1.420   .     A
C149   C151    1.417   .     A
C149   C203    1.517   .     S
C150   C207    1.517   .     S
C150   C152    1.417   .     A
C151   C572    1.547   1_554 S
C152   C571    1.547   .     S
C153   O189    1.298   .     A
C153   C155    1.437   .     S
C153   O187    1.289   .     A
C154   O190    1.298   .     A
C154   C156    1.437   .     S
C154   O188    1.289   .     A
C156   C15     1.340   1_655 S
C156   H32     1.087   1_655 S
C157   Cl191   1.766   .     S
C157   C159    1.391   .     A
C157   C167    1.415   .     A
C158   Cl192   1.766   .     S
C158   C168    1.415   .     A
C158   C160    1.391   .     A
C159   H173    1.083   .     S
C159   C161    1.401   .     A
C160   H174    1.083   .     S
C160   C162    1.401   .     A
C161   C163    1.398   .     A
C162   C164    1.398   .     A
C163   H175    1.083   .     S
C163   C165    1.394   .     A
C164   H176    1.083   .     S
C164   C166    1.394   .     A
C165   C167    1.419   .     A
C165   Cl193   1.766   .     S
C166   C168    1.419   .     A
C166   Cl194   1.766   .     S
C167   C378    1.510   1_545 S
C168   C377    1.510   .     S
Cu169  Cu170   2.697   .     S
Cu169  N182    2.026   .     S
Cu169  O186    1.957   .     S
Cu169  O183    1.951   .     S
Cu169  O187    1.952   .     S
Cu169  O190    1.959   .     S
Cu170  N181    2.026   .     S
Cu170  O185    1.957   .     S
Cu170  O184    1.951   .     S
Cu170  O188    1.952   .     S
Cu170  O189    1.959   .     S
H171   C15     1.087   1_655 S
C195   H196    1.092   .     S
C195   H197    1.111   .     S
C195   H198    1.108   .     S
C199   H200    1.092   .     S
C199   H201    1.108   .     S
C199   H202    1.111   .     S
C203   H205    1.109   .     S
C203   H206    1.110   .     S
C203   H204    1.110   .     S
C207   H210    1.110   .     S
C207   H208    1.109   .     S
C207   H209    1.110   .     S
C211   C231    1.465   .     S
C211   O255    1.304   .     A
C211   O253    1.297   .     A
C212   C232    1.465   .     S
C212   O256    1.304   .     A
C212   O254    1.297   .     A
C213   C215    1.407   .     A
C213   C221    1.421   .     A
C213   H247    1.075   .     S
C214   H248    1.075   .     S
C214   C222    1.421   .     A
C214   C216    1.407   .     A
C215   H249    1.082   .     S
C215   N251    1.359   .     A
C216   N252    1.359   .     A
C216   H250    1.082   .     S
C217   C265    1.512   .     S
C217   C219    1.420   .     A
C217   N251    1.385   .     A
C218   C269    1.512   .     S
C218   N252    1.385   .     A
C218   C220    1.420   .     A
C219   C221    1.417   .     A
C219   C273    1.517   .     S
C220   C277    1.517   .     S
C220   C222    1.417   .     A
C221   C642    1.547   1_554 S
C222   C641    1.547   .     S
C223   O259    1.298   .     A
C223   C225    1.437   .     S
C223   O257    1.289   .     A
C224   O260    1.298   .     A
C224   C226    1.437   .     S
C224   O258    1.289   .     A
C225   C366    1.340   1_455 S
C225   H381    1.087   1_455 S
C226   C295    1.340   .     S
C226   H312    1.087   .     S
C227   Cl261   1.766   .     S
C227   C229    1.391   .     A
C227   C237    1.415   .     A
C228   Cl262   1.766   .     S
C228   C238    1.415   .     A
C228   C230    1.391   .     A
C229   H243    1.083   .     S
C229   C231    1.401   .     A
C230   H244    1.083   .     S
C230   C232    1.401   .     A
C231   C233    1.398   .     A
C232   C234    1.398   .     A
C233   H245    1.083   .     S
C233   C235    1.394   .     A
C234   H246    1.083   .     S
C234   C236    1.394   .     A
C235   C237    1.419   .     A
C235   Cl263   1.766   .     S
C236   C238    1.419   .     A
C236   Cl264   1.766   .     S
C238   C27     1.510   1_565 S
Cu239  Cu240   2.697   .     S
Cu239  N252    2.026   .     S
Cu239  O256    1.957   .     S
Cu239  O253    1.951   .     S
Cu239  O257    1.952   .     S
Cu239  O260    1.959   .     S
Cu240  N251    2.026   .     S
Cu240  O255    1.957   .     S
Cu240  O254    1.951   .     S
Cu240  O258    1.952   .     S
Cu240  O259    1.959   .     S
H241   C295    1.087   .     S
H242   C366    1.087   1_455 S
C265   H266    1.092   .     S
C265   H267    1.111   .     S
C265   H268    1.108   .     S
C269   H270    1.092   .     S
C269   H271    1.108   .     S
C269   H272    1.111   .     S
C273   H275    1.109   .     S
C273   H276    1.110   .     S
C273   H274    1.110   .     S
C277   H280    1.110   .     S
C277   H278    1.109   .     S
C277   H279    1.110   .     S
C281   C301    1.465   .     S
C281   O325    1.304   .     A
C281   O323    1.297   .     A
C282   C302    1.465   .     S
C282   O326    1.304   .     A
C282   O324    1.297   .     A
C283   C285    1.407   .     A
C283   C291    1.421   .     A
C283   H317    1.075   .     S
C284   H318    1.075   .     S
C284   C292    1.421   .     A
C284   C286    1.407   .     A
C285   H319    1.082   .     S
C285   N321    1.359   .     A
C286   N322    1.359   .     A
C286   H320    1.082   .     S
C287   C335    1.512   .     S
C287   C289    1.420   .     A
C287   N321    1.385   .     A
C288   C339    1.512   .     S
C288   N322    1.385   .     A
C288   C290    1.420   .     A
C289   C291    1.417   .     A
C289   C343    1.517   .     S
C290   C347    1.517   .     S
C290   C292    1.417   .     A
C291   C712    1.547   1_554 S
C292   C711    1.547   .     S
C293   O329    1.298   .     A
C293   C295    1.437   .     S
C293   O327    1.289   .     A
C294   O330    1.298   .     A
C294   C296    1.437   .     S
C294   O328    1.289   .     A
C296   C365    1.340   .     S
C296   H382    1.087   .     S
C297   Cl331   1.766   .     S
C297   C299    1.391   .     A
C297   C307    1.415   .     A
C298   Cl332   1.766   .     S
C298   C308    1.415   .     A
C298   C300    1.391   .     A
C299   H313    1.083   .     S
C299   C301    1.401   .     A
C300   H314    1.083   .     S
C300   C302    1.401   .     A
C301   C303    1.398   .     A
C302   C304    1.398   .     A
C303   H315    1.083   .     S
C303   C305    1.394   .     A
C304   H316    1.083   .     S
C304   C306    1.394   .     A
C305   C307    1.419   .     A
C305   Cl333   1.766   .     S
C306   C308    1.419   .     A
C306   Cl334   1.766   .     S
C308   C97     1.510   1_565 S
Cu309  Cu310   2.697   .     S
Cu309  N322    2.026   .     S
Cu309  O326    1.957   .     S
Cu309  O323    1.951   .     S
Cu309  O327    1.952   .     S
Cu309  O330    1.959   .     S
Cu310  N321    2.026   .     S
Cu310  O325    1.957   .     S
Cu310  O324    1.951   .     S
Cu310  O328    1.952   .     S
Cu310  O329    1.959   .     S
H311   C365    1.087   .     S
C335   H336    1.092   .     S
C335   H337    1.111   .     S
C335   H338    1.108   .     S
C339   H340    1.092   .     S
C339   H341    1.108   .     S
C339   H342    1.111   .     S
C343   H345    1.109   .     S
C343   H346    1.110   .     S
C343   H344    1.110   .     S
C347   H350    1.110   .     S
C347   H348    1.109   .     S
C347   H349    1.110   .     S
C351   C371    1.465   .     S
C351   O395    1.304   .     A
C351   O393    1.297   .     A
C352   C372    1.465   .     S
C352   O396    1.304   .     A
C352   O394    1.297   .     A
C353   C355    1.407   .     A
C353   C361    1.421   .     A
C353   H387    1.075   .     S
C354   H388    1.075   .     S
C354   C362    1.421   .     A
C354   C356    1.407   .     A
C355   H389    1.082   .     S
C355   N391    1.359   .     A
C356   N392    1.359   .     A
C356   H390    1.082   .     S
C357   C405    1.512   .     S
C357   C359    1.420   .     A
C357   N391    1.385   .     A
C358   C409    1.512   .     S
C358   N392    1.385   .     A
C358   C360    1.420   .     A
C359   C361    1.417   .     A
C359   C413    1.517   .     S
C360   C417    1.517   .     S
C360   C362    1.417   .     A
C361   C782    1.547   1_554 S
C362   C781    1.547   .     S
C363   O399    1.298   .     A
C363   C365    1.437   .     S
C363   O397    1.289   .     A
C364   O400    1.298   .     A
C364   C366    1.437   .     S
C364   O398    1.289   .     A
C366   C225    1.340   1_655 S
C366   H242    1.087   1_655 S
C367   Cl401   1.766   .     S
C367   C369    1.391   .     A
C367   C377    1.415   .     A
C368   Cl402   1.766   .     S
C368   C378    1.415   .     A
C368   C370    1.391   .     A
C369   H383    1.083   .     S
C369   C371    1.401   .     A
C370   H384    1.083   .     S
C370   C372    1.401   .     A
C371   C373    1.398   .     A
C372   C374    1.398   .     A
C373   H385    1.083   .     S
C373   C375    1.394   .     A
C374   H386    1.083   .     S
C374   C376    1.394   .     A
C375   C377    1.419   .     A
C375   Cl403   1.766   .     S
C376   C378    1.419   .     A
C376   Cl404   1.766   .     S
C378   C167    1.510   1_565 S
Cu379  Cu380   2.697   .     S
Cu379  N392    2.026   .     S
Cu379  O396    1.957   .     S
Cu379  O393    1.951   .     S
Cu379  O397    1.952   .     S
Cu379  O400    1.959   .     S
Cu380  N391    2.026   .     S
Cu380  O395    1.957   .     S
Cu380  O394    1.951   .     S
Cu380  O398    1.952   .     S
Cu380  O399    1.959   .     S
H381   C225    1.087   1_655 S
C405   H406    1.092   .     S
C405   H407    1.111   .     S
C405   H408    1.108   .     S
C409   H410    1.092   .     S
C409   H411    1.108   .     S
C409   H412    1.111   .     S
C413   H415    1.109   .     S
C413   H416    1.110   .     S
C413   H414    1.110   .     S
C417   H420    1.110   .     S
C417   H418    1.109   .     S
C417   H419    1.110   .     S
C421   C441    1.465   .     S
C421   O465    1.304   .     A
C421   O463    1.297   .     A
C422   C442    1.465   .     S
C422   O466    1.304   .     A
C422   O464    1.297   .     A
C423   C425    1.407   .     A
C423   C431    1.421   .     A
C423   H457    1.075   .     S
C424   H458    1.075   .     S
C424   C432    1.421   .     A
C424   C426    1.407   .     A
C425   H459    1.082   .     S
C425   N461    1.359   .     A
C426   N462    1.359   .     A
C426   H460    1.082   .     S
C427   C475    1.512   .     S
C427   C429    1.420   .     A
C427   N461    1.385   .     A
C428   C479    1.512   .     S
C428   N462    1.385   .     A
C428   C430    1.420   .     A
C429   C431    1.417   .     A
C429   C483    1.517   .     S
C430   C487    1.517   .     S
C430   C432    1.417   .     A
C432   C11     1.547   1_556 S
C433   O469    1.298   .     A
C433   C435    1.437   .     S
C433   O467    1.289   .     A
C434   O470    1.298   .     A
C434   C436    1.437   .     S
C434   O468    1.289   .     A
C435   C576    1.340   1_455 S
C435   H591    1.087   1_455 S
C436   C505    1.340   .     S
C436   H522    1.087   .     S
C437   Cl471   1.766   .     S
C437   C439    1.391   .     A
C437   C447    1.415   .     A
C438   Cl472   1.766   .     S
C438   C448    1.415   .     A
C438   C440    1.391   .     A
C439   H453    1.083   .     S
C439   C441    1.401   .     A
C440   H454    1.083   .     S
C440   C442    1.401   .     A
C441   C443    1.398   .     A
C442   C444    1.398   .     A
C443   H455    1.083   .     S
C443   C445    1.394   .     A
C444   H456    1.083   .     S
C444   C446    1.394   .     A
C445   C447    1.419   .     A
C445   Cl473   1.766   .     S
C446   C448    1.419   .     A
C446   Cl474   1.766   .     S
C447   C658    1.510   1_545 S
C448   C657    1.510   .     S
Cu449  Cu450   2.697   .     S
Cu449  N462    2.026   .     S
Cu449  O466    1.957   .     S
Cu449  O463    1.951   .     S
Cu449  O467    1.952   .     S
Cu449  O470    1.959   .     S
Cu450  N461    2.026   .     S
Cu450  O465    1.957   .     S
Cu450  O464    1.951   .     S
Cu450  O468    1.952   .     S
Cu450  O469    1.959   .     S
H451   C505    1.087   .     S
H452   C576    1.087   1_455 S
C475   H476    1.092   .     S
C475   H477    1.111   .     S
C475   H478    1.108   .     S
C479   H480    1.092   .     S
C479   H481    1.108   .     S
C479   H482    1.111   .     S
C483   H485    1.109   .     S
C483   H486    1.110   .     S
C483   H484    1.110   .     S
C487   H490    1.110   .     S
C487   H488    1.109   .     S
C487   H489    1.110   .     S
C491   C511    1.465   .     S
C491   O535    1.304   .     A
C491   O533    1.297   .     A
C492   C512    1.465   .     S
C492   O536    1.304   .     A
C492   O534    1.297   .     A
C493   C495    1.407   .     A
C493   C501    1.421   .     A
C493   H527    1.075   .     S
C494   H528    1.075   .     S
C494   C502    1.421   .     A
C494   C496    1.407   .     A
C495   H529    1.082   .     S
C495   N531    1.359   .     A
C496   N532    1.359   .     A
C496   H530    1.082   .     S
C497   C545    1.512   .     S
C497   C499    1.420   .     A
C497   N531    1.385   .     A
C498   C549    1.512   .     S
C498   N532    1.385   .     A
C498   C500    1.420   .     A
C499   C501    1.417   .     A
C499   C553    1.517   .     S
C500   C557    1.517   .     S
C500   C502    1.417   .     A
C502   C81     1.547   1_556 S
C503   O539    1.298   .     A
C503   C505    1.437   .     S
C503   O537    1.289   .     A
C504   O540    1.298   .     A
C504   C506    1.437   .     S
C504   O538    1.289   .     A
C506   C575    1.340   .     S
C506   H592    1.087   .     S
C507   Cl541   1.766   .     S
C507   C509    1.391   .     A
C507   C517    1.415   .     A
C508   Cl542   1.766   .     S
C508   C518    1.415   .     A
C508   C510    1.391   .     A
C509   H523    1.083   .     S
C509   C511    1.401   .     A
C510   H524    1.083   .     S
C510   C512    1.401   .     A
C511   C513    1.398   .     A
C512   C514    1.398   .     A
C513   H525    1.083   .     S
C513   C515    1.394   .     A
C514   H526    1.083   .     S
C514   C516    1.394   .     A
C515   C517    1.419   .     A
C515   Cl543   1.766   .     S
C516   C518    1.419   .     A
C516   Cl544   1.766   .     S
C517   C728    1.510   1_545 S
C518   C727    1.510   .     S
Cu519  Cu520   2.697   .     S
Cu519  N532    2.026   .     S
Cu519  O536    1.957   .     S
Cu519  O533    1.951   .     S
Cu519  O537    1.952   .     S
Cu519  O540    1.959   .     S
Cu520  N531    2.026   .     S
Cu520  O535    1.957   .     S
Cu520  O534    1.951   .     S
Cu520  O538    1.952   .     S
Cu520  O539    1.959   .     S
H521   C575    1.087   .     S
C545   H546    1.092   .     S
C545   H547    1.111   .     S
C545   H548    1.108   .     S
C549   H550    1.092   .     S
C549   H551    1.108   .     S
C549   H552    1.111   .     S
C553   H555    1.109   .     S
C553   H556    1.110   .     S
C553   H554    1.110   .     S
C557   H560    1.110   .     S
C557   H558    1.109   .     S
C557   H559    1.110   .     S
C561   C581    1.465   .     S
C561   O605    1.304   .     A
C561   O603    1.297   .     A
C562   C582    1.465   .     S
C562   O606    1.304   .     A
C562   O604    1.297   .     A
C563   C565    1.407   .     A
C563   C571    1.421   .     A
C563   H597    1.075   .     S
C564   H598    1.075   .     S
C564   C572    1.421   .     A
C564   C566    1.407   .     A
C565   H599    1.082   .     S
C565   N601    1.359   .     A
C566   N602    1.359   .     A
C566   H600    1.082   .     S
C567   C615    1.512   .     S
C567   C569    1.420   .     A
C567   N601    1.385   .     A
C568   C619    1.512   .     S
C568   N602    1.385   .     A
C568   C570    1.420   .     A
C569   C571    1.417   .     A
C569   C623    1.517   .     S
C570   C627    1.517   .     S
C570   C572    1.417   .     A
C572   C151    1.547   1_556 S
C573   O609    1.298   .     A
C573   C575    1.437   .     S
C573   O607    1.289   .     A
C574   O610    1.298   .     A
C574   C576    1.437   .     S
C574   O608    1.289   .     A
C576   C435    1.340   1_655 S
C576   H452    1.087   1_655 S
C577   Cl611   1.766   .     S
C577   C579    1.391   .     A
C577   C587    1.415   .     A
C578   Cl612   1.766   .     S
C578   C588    1.415   .     A
C578   C580    1.391   .     A
C579   H593    1.083   .     S
C579   C581    1.401   .     A
C580   H594    1.083   .     S
C580   C582    1.401   .     A
C581   C583    1.398   .     A
C582   C584    1.398   .     A
C583   H595    1.083   .     S
C583   C585    1.394   .     A
C584   H596    1.083   .     S
C584   C586    1.394   .     A
C585   C587    1.419   .     A
C585   Cl613   1.766   .     S
C586   C588    1.419   .     A
C586   Cl614   1.766   .     S
C587   C798    1.510   1_545 S
C588   C797    1.510   .     S
Cu589  Cu590   2.697   .     S
Cu589  N602    2.026   .     S
Cu589  O606    1.957   .     S
Cu589  O603    1.951   .     S
Cu589  O607    1.952   .     S
Cu589  O610    1.959   .     S
Cu590  N601    2.026   .     S
Cu590  O605    1.957   .     S
Cu590  O604    1.951   .     S
Cu590  O608    1.952   .     S
Cu590  O609    1.959   .     S
H591   C435    1.087   1_655 S
C615   H616    1.092   .     S
C615   H617    1.111   .     S
C615   H618    1.108   .     S
C619   H620    1.092   .     S
C619   H621    1.108   .     S
C619   H622    1.111   .     S
C623   H625    1.109   .     S
C623   H626    1.110   .     S
C623   H624    1.110   .     S
C627   H630    1.110   .     S
C627   H628    1.109   .     S
C627   H629    1.110   .     S
C631   C651    1.465   .     S
C631   O675    1.304   .     A
C631   O673    1.297   .     A
C632   C652    1.465   .     S
C632   O676    1.304   .     A
C632   O674    1.297   .     A
C633   C635    1.407   .     A
C633   C641    1.421   .     A
C633   H667    1.075   .     S
C634   H668    1.075   .     S
C634   C642    1.421   .     A
C634   C636    1.407   .     A
C635   H669    1.082   .     S
C635   N671    1.359   .     A
C636   N672    1.359   .     A
C636   H670    1.082   .     S
C637   C685    1.512   .     S
C637   C639    1.420   .     A
C637   N671    1.385   .     A
C638   C689    1.512   .     S
C638   N672    1.385   .     A
C638   C640    1.420   .     A
C639   C641    1.417   .     A
C639   C693    1.517   .     S
C640   C697    1.517   .     S
C640   C642    1.417   .     A
C642   C221    1.547   1_556 S
C643   O679    1.298   .     A
C643   C645    1.437   .     S
C643   O677    1.289   .     A
C644   O680    1.298   .     A
C644   C646    1.437   .     S
C644   O678    1.289   .     A
C645   C786    1.340   1_455 S
C645   H801    1.087   1_455 S
C646   C715    1.340   .     S
C646   H732    1.087   .     S
C647   Cl681   1.766   .     S
C647   C649    1.391   .     A
C647   C657    1.415   .     A
C648   Cl682   1.766   .     S
C648   C658    1.415   .     A
C648   C650    1.391   .     A
C649   H663    1.083   .     S
C649   C651    1.401   .     A
C650   H664    1.083   .     S
C650   C652    1.401   .     A
C651   C653    1.398   .     A
C652   C654    1.398   .     A
C653   H665    1.083   .     S
C653   C655    1.394   .     A
C654   H666    1.083   .     S
C654   C656    1.394   .     A
C655   C657    1.419   .     A
C655   Cl683   1.766   .     S
C656   C658    1.419   .     A
C656   Cl684   1.766   .     S
C658   C447    1.510   1_565 S
Cu659  Cu660   2.697   .     S
Cu659  N672    2.026   .     S
Cu659  O676    1.957   .     S
Cu659  O673    1.951   .     S
Cu659  O677    1.952   .     S
Cu659  O680    1.959   .     S
Cu660  N671    2.026   .     S
Cu660  O675    1.957   .     S
Cu660  O674    1.951   .     S
Cu660  O678    1.952   .     S
Cu660  O679    1.959   .     S
H661   C715    1.087   .     S
H662   C786    1.087   1_455 S
C685   H686    1.092   .     S
C685   H687    1.111   .     S
C685   H688    1.108   .     S
C689   H690    1.092   .     S
C689   H691    1.108   .     S
C689   H692    1.111   .     S
C693   H695    1.109   .     S
C693   H696    1.110   .     S
C693   H694    1.110   .     S
C697   H700    1.110   .     S
C697   H698    1.109   .     S
C697   H699    1.110   .     S
C701   C721    1.465   .     S
C701   O745    1.304   .     A
C701   O743    1.297   .     A
C702   C722    1.465   .     S
C702   O746    1.304   .     A
C702   O744    1.297   .     A
C703   C705    1.407   .     A
C703   C711    1.421   .     A
C703   H737    1.075   .     S
C704   H738    1.075   .     S
C704   C712    1.421   .     A
C704   C706    1.407   .     A
C705   H739    1.082   .     S
C705   N741    1.359   .     A
C706   N742    1.359   .     A
C706   H740    1.082   .     S
C707   C755    1.512   .     S
C707   C709    1.420   .     A
C707   N741    1.385   .     A
C708   C759    1.512   .     S
C708   N742    1.385   .     A
C708   C710    1.420   .     A
C709   C711    1.417   .     A
C709   C763    1.517   .     S
C710   C767    1.517   .     S
C710   C712    1.417   .     A
C712   C291    1.547   1_556 S
C713   O749    1.298   .     A
C713   C715    1.437   .     S
C713   O747    1.289   .     A
C714   O750    1.298   .     A
C714   C716    1.437   .     S
C714   O748    1.289   .     A
C716   C785    1.340   .     S
C716   H802    1.087   .     S
C717   Cl751   1.766   .     S
C717   C719    1.391   .     A
C717   C727    1.415   .     A
C718   Cl752   1.766   .     S
C718   C728    1.415   .     A
C718   C720    1.391   .     A
C719   H733    1.083   .     S
C719   C721    1.401   .     A
C720   H734    1.083   .     S
C720   C722    1.401   .     A
C721   C723    1.398   .     A
C722   C724    1.398   .     A
C723   H735    1.083   .     S
C723   C725    1.394   .     A
C724   H736    1.083   .     S
C724   C726    1.394   .     A
C725   C727    1.419   .     A
C725   Cl753   1.766   .     S
C726   C728    1.419   .     A
C726   Cl754   1.766   .     S
C728   C517    1.510   1_565 S
Cu729  Cu730   2.697   .     S
Cu729  N742    2.026   .     S
Cu729  O746    1.957   .     S
Cu729  O743    1.951   .     S
Cu729  O747    1.952   .     S
Cu729  O750    1.959   .     S
Cu730  N741    2.026   .     S
Cu730  O745    1.957   .     S
Cu730  O744    1.951   .     S
Cu730  O748    1.952   .     S
Cu730  O749    1.959   .     S
H731   C785    1.087   .     S
C755   H756    1.092   .     S
C755   H757    1.111   .     S
C755   H758    1.108   .     S
C759   H760    1.092   .     S
C759   H761    1.108   .     S
C759   H762    1.111   .     S
C763   H765    1.109   .     S
C763   H766    1.110   .     S
C763   H764    1.110   .     S
C767   H770    1.110   .     S
C767   H768    1.109   .     S
C767   H769    1.110   .     S
C771   C791    1.465   .     S
C771   O815    1.304   .     A
C771   O813    1.297   .     A
C772   C792    1.465   .     S
C772   O816    1.304   .     A
C772   O814    1.297   .     A
C773   C775    1.407   .     A
C773   C781    1.421   .     A
C773   H807    1.075   .     S
C774   H808    1.075   .     S
C774   C782    1.421   .     A
C774   C776    1.407   .     A
C775   H809    1.082   .     S
C775   N811    1.359   .     A
C776   N812    1.359   .     A
C776   H810    1.082   .     S
C777   C825    1.512   .     S
C777   C779    1.420   .     A
C777   N811    1.385   .     A
C778   C829    1.512   .     S
C778   N812    1.385   .     A
C778   C780    1.420   .     A
C779   C781    1.417   .     A
C779   C833    1.517   .     S
C780   C837    1.517   .     S
C780   C782    1.417   .     A
C782   C361    1.547   1_556 S
C783   O819    1.298   .     A
C783   C785    1.437   .     S
C783   O817    1.289   .     A
C784   O820    1.298   .     A
C784   C786    1.437   .     S
C784   O818    1.289   .     A
C786   C645    1.340   1_655 S
C786   H662    1.087   1_655 S
C787   Cl821   1.766   .     S
C787   C789    1.391   .     A
C787   C797    1.415   .     A
C788   Cl822   1.766   .     S
C788   C798    1.415   .     A
C788   C790    1.391   .     A
C789   H803    1.083   .     S
C789   C791    1.401   .     A
C790   H804    1.083   .     S
C790   C792    1.401   .     A
C791   C793    1.398   .     A
C792   C794    1.398   .     A
C793   H805    1.083   .     S
C793   C795    1.394   .     A
C794   H806    1.083   .     S
C794   C796    1.394   .     A
C795   C797    1.419   .     A
C795   Cl823   1.766   .     S
C796   C798    1.419   .     A
C796   Cl824   1.766   .     S
C798   C587    1.510   1_565 S
Cu799  Cu800   2.697   .     S
Cu799  N812    2.026   .     S
Cu799  O816    1.957   .     S
Cu799  O813    1.951   .     S
Cu799  O817    1.952   .     S
Cu799  O820    1.959   .     S
Cu800  N811    2.026   .     S
Cu800  O815    1.957   .     S
Cu800  O814    1.951   .     S
Cu800  O818    1.952   .     S
Cu800  O819    1.959   .     S
H801   C645    1.087   1_655 S
C825   H826    1.092   .     S
C825   H827    1.111   .     S
C825   H828    1.108   .     S
C829   H830    1.092   .     S
C829   H831    1.108   .     S
C829   H832    1.111   .     S
C833   H835    1.109   .     S
C833   H836    1.110   .     S
C833   H834    1.110   .     S
C837   H840    1.110   .     S
C837   H838    1.109   .     S
C837   H839    1.110   .     S
