data_str_m3_o10_o17_pcu_sym.109
_audit_creation_date              2020-01-03
_audit_creation_method            'Materials Studio'
_symmetry_space_group_name_H-M    'P1'
_symmetry_Int_Tables_number       1
_symmetry_cell_setting            triclinic
loop_
_symmetry_equiv_pos_as_xyz
  x,y,z
_cell_length_a                    23.5181
_cell_length_b                    25.9208
_cell_length_c                    29.8785
_cell_angle_alpha                 92.3598
_cell_angle_beta                  85.9537
_cell_angle_gamma                 93.3002
loop_
_atom_site_label
_atom_site_type_symbol
_atom_site_fract_x
_atom_site_fract_y
_atom_site_fract_z
_atom_site_U_iso_or_equiv
_atom_site_adp_type
_atom_site_occupancy
Br1    Br    0.13837   0.06158   0.12510   0.00000  Uiso   1.00
Br2    Br    0.07462   0.32377   0.21851   0.00000  Uiso   1.00
Br3    Br    0.01304   0.10838   0.19202   0.00000  Uiso   1.00
Br4    Br    0.32030   0.22496   0.30798   0.00000  Uiso   1.00
Br5    Br    0.19496   0.27175   0.37490   0.00000  Uiso   1.00
Br6    Br    0.22892   0.26557   0.13027   0.00000  Uiso   1.00
Br7    Br    0.10441   0.06776   0.36973   0.00000  Uiso   1.00
Br8    Br    0.22624   0.32537   0.04209   0.00000  Uiso   1.00
Br9    Br    0.10709   0.00797   0.45791   0.00000  Uiso   1.00
Br10   Br    0.28973   0.28559   0.44660   0.00000  Uiso   1.00
Br11   Br    0.04360   0.04775   0.05340   0.00000  Uiso   1.00
Br12   Br    0.25871   0.00957   0.28149   0.00000  Uiso   1.00
C13    C     0.18150   0.26468   0.24894   0.00000  Uiso   1.00
C14    C     0.19053   0.20719   0.40607   0.00000  Uiso   1.00
C15    C     0.16497   0.16995   0.11628   0.00000  Uiso   1.00
C16    C     0.16836   0.16339   0.38372   0.00000  Uiso   1.00
C17    C     0.18852   0.21344   0.09395   0.00000  Uiso   1.00
C18    C     0.14481   0.11989   0.40605   0.00000  Uiso   1.00
C19    C     0.18898   0.21327   0.04661   0.00000  Uiso   1.00
C20    C     0.14435   0.12006   0.45339   0.00000  Uiso   1.00
C21    C     0.16529   0.16833   0.02363   0.00000  Uiso   1.00
C22    C     0.16804   0.16500   0.47637   0.00000  Uiso   1.00
C23    C     0.13769   0.12705   0.04785   0.00000  Uiso   1.00
C24    C     0.15183   0.06865   0.25106   0.00000  Uiso   1.00
C25    C     0.19565   0.20628   0.45215   0.00000  Uiso   1.00
C26    C     0.21467   0.25436   0.02093   0.00000  Uiso   1.00
C27    C     0.11866   0.07898   0.47907   0.00000  Uiso   1.00
C28    C     0.22483   0.24699   0.47488   0.00000  Uiso   1.00
C29    C     0.10850   0.08634   0.02512   0.00000  Uiso   1.00
C30    C     0.18865   0.31880   0.25413   0.00000  Uiso   1.00
C31    C     0.14469   0.01454   0.24587   0.00000  Uiso   1.00
C32    C     0.16702   0.16490   0.33613   0.00000  Uiso   1.00
C33    C     0.16632   0.16843   0.16387   0.00000  Uiso   1.00
C34    C     0.14280   0.12615   0.09393   0.00000  Uiso   1.00
N35    N     0.31678   0.15265   0.23783   0.00000  Uiso   1.00
N36    N     0.01656   0.18068   0.26217   0.00000  Uiso   1.00
O37    O     0.12975   0.24619   0.25298   0.00000  Uiso   1.00
O38    O     0.20358   0.08714   0.24701   0.00000  Uiso   1.00
O39    O     0.22613   0.23721   0.24518   0.00000  Uiso   1.00
O40    O     0.10720   0.09613   0.25481   0.00000  Uiso   1.00
O41    O     0.11847   0.17117   0.31997   0.00000  Uiso   1.00
O42    O     0.21486   0.16216   0.18002   0.00000  Uiso   1.00
O43    O     0.21485   0.16219   0.31217   0.00000  Uiso   1.00
O44    O     0.11848   0.17115   0.18782   0.00000  Uiso   1.00
Zn45   Zn    0.10231   0.17266   0.25521   0.00000  Uiso   1.00
Zn46   Zn    0.23102   0.16067   0.24479   0.00000  Uiso   1.00
Br47   Br    0.47171   0.06158   0.12510   0.00000  Uiso   1.00
Br48   Br    0.40795   0.32377   0.21851   0.00000  Uiso   1.00
Br49   Br    0.34637   0.10838   0.19202   0.00000  Uiso   1.00
Br50   Br    0.65363   0.22496   0.30798   0.00000  Uiso   1.00
Br51   Br    0.52829   0.27175   0.37490   0.00000  Uiso   1.00
Br52   Br    0.56226   0.26557   0.13027   0.00000  Uiso   1.00
Br53   Br    0.43775   0.06776   0.36973   0.00000  Uiso   1.00
Br54   Br    0.55958   0.32537   0.04209   0.00000  Uiso   1.00
Br55   Br    0.44042   0.00797   0.45791   0.00000  Uiso   1.00
Br56   Br    0.62306   0.28559   0.44660   0.00000  Uiso   1.00
Br57   Br    0.37694   0.04775   0.05340   0.00000  Uiso   1.00
Br58   Br    0.59205   0.00957   0.28149   0.00000  Uiso   1.00
C59    C     0.51483   0.26468   0.24894   0.00000  Uiso   1.00
C60    C     0.52387   0.20719   0.40607   0.00000  Uiso   1.00
C61    C     0.49830   0.16995   0.11628   0.00000  Uiso   1.00
C62    C     0.50170   0.16339   0.38372   0.00000  Uiso   1.00
C63    C     0.52186   0.21344   0.09395   0.00000  Uiso   1.00
C64    C     0.47814   0.11989   0.40605   0.00000  Uiso   1.00
C65    C     0.52232   0.21327   0.04661   0.00000  Uiso   1.00
C66    C     0.47768   0.12006   0.45339   0.00000  Uiso   1.00
C67    C     0.49863   0.16833   0.02363   0.00000  Uiso   1.00
C68    C     0.50137   0.16500   0.47637   0.00000  Uiso   1.00
C69    C     0.47102   0.12705   0.04785   0.00000  Uiso   1.00
C70    C     0.48517   0.06865   0.25106   0.00000  Uiso   1.00
C71    C     0.52898   0.20628   0.45215   0.00000  Uiso   1.00
C72    C     0.54801   0.25436   0.02093   0.00000  Uiso   1.00
C73    C     0.45199   0.07898   0.47907   0.00000  Uiso   1.00
C74    C     0.55816   0.24699   0.47488   0.00000  Uiso   1.00
C75    C     0.44184   0.08634   0.02512   0.00000  Uiso   1.00
C76    C     0.52198   0.31880   0.25413   0.00000  Uiso   1.00
C77    C     0.47802   0.01454   0.24587   0.00000  Uiso   1.00
C78    C     0.50035   0.16490   0.33613   0.00000  Uiso   1.00
C79    C     0.49965   0.16843   0.16387   0.00000  Uiso   1.00
C80    C     0.47613   0.12615   0.09393   0.00000  Uiso   1.00
N81    N     0.65011   0.15265   0.23783   0.00000  Uiso   1.00
N82    N     0.34989   0.18068   0.26217   0.00000  Uiso   1.00
O83    O     0.46308   0.24619   0.25298   0.00000  Uiso   1.00
O84    O     0.53692   0.08714   0.24701   0.00000  Uiso   1.00
O85    O     0.55946   0.23721   0.24518   0.00000  Uiso   1.00
O86    O     0.44054   0.09613   0.25481   0.00000  Uiso   1.00
O87    O     0.45181   0.17117   0.31997   0.00000  Uiso   1.00
O88    O     0.54819   0.16216   0.18002   0.00000  Uiso   1.00
O89    O     0.54819   0.16219   0.31217   0.00000  Uiso   1.00
O90    O     0.45181   0.17115   0.18782   0.00000  Uiso   1.00
Zn91   Zn    0.43565   0.17266   0.25521   0.00000  Uiso   1.00
Zn92   Zn    0.56435   0.16067   0.24479   0.00000  Uiso   1.00
Br93   Br    0.80504   0.06158   0.12510   0.00000  Uiso   1.00
Br94   Br    0.74129   0.32377   0.21851   0.00000  Uiso   1.00
Br95   Br    0.67970   0.10838   0.19202   0.00000  Uiso   1.00
Br96   Br    0.98696   0.22496   0.30798   0.00000  Uiso   1.00
Br97   Br    0.86163   0.27175   0.37490   0.00000  Uiso   1.00
Br98   Br    0.89559   0.26557   0.13027   0.00000  Uiso   1.00
Br99   Br    0.77108   0.06776   0.36973   0.00000  Uiso   1.00
Br100  Br    0.89291   0.32537   0.04209   0.00000  Uiso   1.00
Br101  Br    0.77376   0.00797   0.45791   0.00000  Uiso   1.00
Br102  Br    0.95640   0.28559   0.44660   0.00000  Uiso   1.00
Br103  Br    0.71027   0.04775   0.05340   0.00000  Uiso   1.00
Br104  Br    0.92538   0.00957   0.28149   0.00000  Uiso   1.00
C105   C     0.84816   0.26468   0.24894   0.00000  Uiso   1.00
C106   C     0.85720   0.20719   0.40607   0.00000  Uiso   1.00
C107   C     0.83164   0.16995   0.11628   0.00000  Uiso   1.00
C108   C     0.83503   0.16339   0.38372   0.00000  Uiso   1.00
C109   C     0.85519   0.21344   0.09395   0.00000  Uiso   1.00
C110   C     0.81148   0.11989   0.40605   0.00000  Uiso   1.00
C111   C     0.85565   0.21327   0.04661   0.00000  Uiso   1.00
C112   C     0.81102   0.12006   0.45339   0.00000  Uiso   1.00
C113   C     0.83196   0.16833   0.02363   0.00000  Uiso   1.00
C114   C     0.83471   0.16500   0.47637   0.00000  Uiso   1.00
C115   C     0.80435   0.12705   0.04785   0.00000  Uiso   1.00
C116   C     0.81850   0.06865   0.25106   0.00000  Uiso   1.00
C117   C     0.86231   0.20628   0.45215   0.00000  Uiso   1.00
C118   C     0.88134   0.25436   0.02093   0.00000  Uiso   1.00
C119   C     0.78533   0.07898   0.47907   0.00000  Uiso   1.00
C120   C     0.89149   0.24699   0.47488   0.00000  Uiso   1.00
C121   C     0.77517   0.08634   0.02512   0.00000  Uiso   1.00
C122   C     0.85531   0.31880   0.25413   0.00000  Uiso   1.00
C123   C     0.81135   0.01454   0.24587   0.00000  Uiso   1.00
C124   C     0.83368   0.16490   0.33613   0.00000  Uiso   1.00
C125   C     0.83298   0.16843   0.16387   0.00000  Uiso   1.00
C126   C     0.80946   0.12615   0.09393   0.00000  Uiso   1.00
N127   N     0.98344   0.15265   0.23783   0.00000  Uiso   1.00
N128   N     0.68322   0.18068   0.26217   0.00000  Uiso   1.00
O129   O     0.79642   0.24619   0.25298   0.00000  Uiso   1.00
O130   O     0.87025   0.08714   0.24701   0.00000  Uiso   1.00
O131   O     0.89280   0.23721   0.24518   0.00000  Uiso   1.00
O132   O     0.77387   0.09613   0.25481   0.00000  Uiso   1.00
O133   O     0.78514   0.17117   0.31997   0.00000  Uiso   1.00
O134   O     0.88153   0.16216   0.18002   0.00000  Uiso   1.00
O135   O     0.88152   0.16219   0.31217   0.00000  Uiso   1.00
O136   O     0.78515   0.17115   0.18782   0.00000  Uiso   1.00
Zn137  Zn    0.76898   0.17266   0.25521   0.00000  Uiso   1.00
Zn138  Zn    0.89769   0.16067   0.24479   0.00000  Uiso   1.00
Br139  Br    0.13837   0.39492   0.12510   0.00000  Uiso   1.00
Br140  Br    0.07462   0.65710   0.21851   0.00000  Uiso   1.00
Br141  Br    0.01304   0.44171   0.19202   0.00000  Uiso   1.00
Br142  Br    0.32030   0.55829   0.30798   0.00000  Uiso   1.00
Br143  Br    0.19496   0.60508   0.37490   0.00000  Uiso   1.00
Br144  Br    0.22892   0.59890   0.13027   0.00000  Uiso   1.00
Br145  Br    0.10441   0.40110   0.36973   0.00000  Uiso   1.00
Br146  Br    0.22624   0.65870   0.04209   0.00000  Uiso   1.00
Br147  Br    0.10709   0.34130   0.45791   0.00000  Uiso   1.00
Br148  Br    0.28973   0.61892   0.44660   0.00000  Uiso   1.00
Br149  Br    0.04360   0.38108   0.05340   0.00000  Uiso   1.00
Br150  Br    0.25871   0.34290   0.28149   0.00000  Uiso   1.00
C151   C     0.18150   0.59802   0.24894   0.00000  Uiso   1.00
C152   C     0.19053   0.54052   0.40607   0.00000  Uiso   1.00
C153   C     0.16497   0.50328   0.11628   0.00000  Uiso   1.00
C154   C     0.16836   0.49672   0.38372   0.00000  Uiso   1.00
C155   C     0.18852   0.54678   0.09395   0.00000  Uiso   1.00
C156   C     0.14481   0.45322   0.40605   0.00000  Uiso   1.00
C157   C     0.18898   0.54660   0.04661   0.00000  Uiso   1.00
C158   C     0.14435   0.45340   0.45339   0.00000  Uiso   1.00
C159   C     0.16529   0.50167   0.02363   0.00000  Uiso   1.00
C160   C     0.16804   0.49833   0.47637   0.00000  Uiso   1.00
C161   C     0.13769   0.46038   0.04785   0.00000  Uiso   1.00
C162   C     0.15183   0.40198   0.25106   0.00000  Uiso   1.00
C163   C     0.19565   0.53962   0.45215   0.00000  Uiso   1.00
C164   C     0.21467   0.58769   0.02093   0.00000  Uiso   1.00
C165   C     0.11866   0.41231   0.47907   0.00000  Uiso   1.00
C166   C     0.22483   0.58033   0.47488   0.00000  Uiso   1.00
C167   C     0.10850   0.41967   0.02512   0.00000  Uiso   1.00
C168   C     0.18865   0.65213   0.25413   0.00000  Uiso   1.00
C169   C     0.14469   0.34787   0.24587   0.00000  Uiso   1.00
C170   C     0.16702   0.49824   0.33613   0.00000  Uiso   1.00
C171   C     0.16632   0.50177   0.16387   0.00000  Uiso   1.00
C172   C     0.14280   0.45948   0.09393   0.00000  Uiso   1.00
N173   N     0.31678   0.48598   0.23783   0.00000  Uiso   1.00
N174   N     0.01656   0.51402   0.26217   0.00000  Uiso   1.00
O175   O     0.12975   0.57952   0.25298   0.00000  Uiso   1.00
O176   O     0.20358   0.42048   0.24701   0.00000  Uiso   1.00
O177   O     0.22613   0.57054   0.24518   0.00000  Uiso   1.00
O178   O     0.10720   0.42946   0.25481   0.00000  Uiso   1.00
O179   O     0.11847   0.50450   0.31997   0.00000  Uiso   1.00
O180   O     0.21486   0.49550   0.18002   0.00000  Uiso   1.00
O181   O     0.21485   0.49552   0.31217   0.00000  Uiso   1.00
O182   O     0.11848   0.50448   0.18782   0.00000  Uiso   1.00
Zn183  Zn    0.10231   0.50600   0.25521   0.00000  Uiso   1.00
Zn184  Zn    0.23102   0.49400   0.24479   0.00000  Uiso   1.00
Br185  Br    0.47171   0.39492   0.12510   0.00000  Uiso   1.00
Br186  Br    0.40795   0.65710   0.21851   0.00000  Uiso   1.00
Br187  Br    0.34637   0.44171   0.19202   0.00000  Uiso   1.00
Br188  Br    0.65363   0.55829   0.30798   0.00000  Uiso   1.00
Br189  Br    0.52829   0.60508   0.37490   0.00000  Uiso   1.00
Br190  Br    0.56226   0.59890   0.13027   0.00000  Uiso   1.00
Br191  Br    0.43775   0.40110   0.36973   0.00000  Uiso   1.00
Br192  Br    0.55958   0.65870   0.04209   0.00000  Uiso   1.00
Br193  Br    0.44042   0.34130   0.45791   0.00000  Uiso   1.00
Br194  Br    0.62306   0.61892   0.44660   0.00000  Uiso   1.00
Br195  Br    0.37694   0.38108   0.05340   0.00000  Uiso   1.00
Br196  Br    0.59205   0.34290   0.28149   0.00000  Uiso   1.00
C197   C     0.51483   0.59802   0.24894   0.00000  Uiso   1.00
C198   C     0.52387   0.54052   0.40607   0.00000  Uiso   1.00
C199   C     0.49830   0.50328   0.11628   0.00000  Uiso   1.00
C200   C     0.50170   0.49672   0.38372   0.00000  Uiso   1.00
C201   C     0.52186   0.54678   0.09395   0.00000  Uiso   1.00
C202   C     0.47814   0.45322   0.40605   0.00000  Uiso   1.00
C203   C     0.52232   0.54660   0.04661   0.00000  Uiso   1.00
C204   C     0.47768   0.45340   0.45339   0.00000  Uiso   1.00
C205   C     0.49863   0.50167   0.02363   0.00000  Uiso   1.00
C206   C     0.50137   0.49833   0.47637   0.00000  Uiso   1.00
C207   C     0.47102   0.46038   0.04785   0.00000  Uiso   1.00
C208   C     0.48517   0.40198   0.25106   0.00000  Uiso   1.00
C209   C     0.52898   0.53962   0.45215   0.00000  Uiso   1.00
C210   C     0.54801   0.58769   0.02093   0.00000  Uiso   1.00
C211   C     0.45199   0.41231   0.47907   0.00000  Uiso   1.00
C212   C     0.55816   0.58033   0.47488   0.00000  Uiso   1.00
C213   C     0.44184   0.41967   0.02512   0.00000  Uiso   1.00
C214   C     0.52198   0.65213   0.25413   0.00000  Uiso   1.00
C215   C     0.47802   0.34787   0.24587   0.00000  Uiso   1.00
C216   C     0.50035   0.49824   0.33613   0.00000  Uiso   1.00
C217   C     0.49965   0.50177   0.16387   0.00000  Uiso   1.00
C218   C     0.47613   0.45948   0.09393   0.00000  Uiso   1.00
N219   N     0.65011   0.48598   0.23783   0.00000  Uiso   1.00
N220   N     0.34989   0.51402   0.26217   0.00000  Uiso   1.00
O221   O     0.46308   0.57952   0.25298   0.00000  Uiso   1.00
O222   O     0.53692   0.42048   0.24701   0.00000  Uiso   1.00
O223   O     0.55946   0.57054   0.24518   0.00000  Uiso   1.00
O224   O     0.44054   0.42946   0.25481   0.00000  Uiso   1.00
O225   O     0.45181   0.50450   0.31997   0.00000  Uiso   1.00
O226   O     0.54819   0.49550   0.18002   0.00000  Uiso   1.00
O227   O     0.54819   0.49552   0.31217   0.00000  Uiso   1.00
O228   O     0.45181   0.50448   0.18782   0.00000  Uiso   1.00
Zn229  Zn    0.43565   0.50600   0.25521   0.00000  Uiso   1.00
Zn230  Zn    0.56435   0.49400   0.24479   0.00000  Uiso   1.00
Br231  Br    0.80504   0.39492   0.12510   0.00000  Uiso   1.00
Br232  Br    0.74129   0.65710   0.21851   0.00000  Uiso   1.00
Br233  Br    0.67970   0.44171   0.19202   0.00000  Uiso   1.00
Br234  Br    0.98696   0.55829   0.30798   0.00000  Uiso   1.00
Br235  Br    0.86163   0.60508   0.37490   0.00000  Uiso   1.00
Br236  Br    0.89559   0.59890   0.13027   0.00000  Uiso   1.00
Br237  Br    0.77108   0.40110   0.36973   0.00000  Uiso   1.00
Br238  Br    0.89291   0.65870   0.04209   0.00000  Uiso   1.00
Br239  Br    0.77376   0.34130   0.45791   0.00000  Uiso   1.00
Br240  Br    0.95640   0.61892   0.44660   0.00000  Uiso   1.00
Br241  Br    0.71027   0.38108   0.05340   0.00000  Uiso   1.00
Br242  Br    0.92538   0.34290   0.28149   0.00000  Uiso   1.00
C243   C     0.84816   0.59802   0.24894   0.00000  Uiso   1.00
C244   C     0.85720   0.54052   0.40607   0.00000  Uiso   1.00
C245   C     0.83164   0.50328   0.11628   0.00000  Uiso   1.00
C246   C     0.83503   0.49672   0.38372   0.00000  Uiso   1.00
C247   C     0.85519   0.54678   0.09395   0.00000  Uiso   1.00
C248   C     0.81148   0.45322   0.40605   0.00000  Uiso   1.00
C249   C     0.85565   0.54660   0.04661   0.00000  Uiso   1.00
C250   C     0.81102   0.45340   0.45339   0.00000  Uiso   1.00
C251   C     0.83196   0.50167   0.02363   0.00000  Uiso   1.00
C252   C     0.83471   0.49833   0.47637   0.00000  Uiso   1.00
C253   C     0.80435   0.46038   0.04785   0.00000  Uiso   1.00
C254   C     0.81850   0.40198   0.25106   0.00000  Uiso   1.00
C255   C     0.86231   0.53962   0.45215   0.00000  Uiso   1.00
C256   C     0.88134   0.58769   0.02093   0.00000  Uiso   1.00
C257   C     0.78533   0.41231   0.47907   0.00000  Uiso   1.00
C258   C     0.89149   0.58033   0.47488   0.00000  Uiso   1.00
C259   C     0.77517   0.41967   0.02512   0.00000  Uiso   1.00
C260   C     0.85531   0.65213   0.25413   0.00000  Uiso   1.00
C261   C     0.81135   0.34787   0.24587   0.00000  Uiso   1.00
C262   C     0.83368   0.49824   0.33613   0.00000  Uiso   1.00
C263   C     0.83298   0.50177   0.16387   0.00000  Uiso   1.00
C264   C     0.80946   0.45948   0.09393   0.00000  Uiso   1.00
N265   N     0.98344   0.48598   0.23783   0.00000  Uiso   1.00
N266   N     0.68322   0.51402   0.26217   0.00000  Uiso   1.00
O267   O     0.79642   0.57952   0.25298   0.00000  Uiso   1.00
O268   O     0.87025   0.42048   0.24701   0.00000  Uiso   1.00
O269   O     0.89280   0.57054   0.24518   0.00000  Uiso   1.00
O270   O     0.77387   0.42946   0.25481   0.00000  Uiso   1.00
O271   O     0.78514   0.50450   0.31997   0.00000  Uiso   1.00
O272   O     0.88153   0.49550   0.18002   0.00000  Uiso   1.00
O273   O     0.88152   0.49552   0.31217   0.00000  Uiso   1.00
O274   O     0.78515   0.50448   0.18782   0.00000  Uiso   1.00
Zn275  Zn    0.76898   0.50600   0.25521   0.00000  Uiso   1.00
Zn276  Zn    0.89769   0.49400   0.24479   0.00000  Uiso   1.00
Br277  Br    0.13837   0.72825   0.12510   0.00000  Uiso   1.00
Br278  Br    0.07462   0.99043   0.21851   0.00000  Uiso   1.00
Br279  Br    0.01304   0.77505   0.19202   0.00000  Uiso   1.00
Br280  Br    0.32030   0.89162   0.30798   0.00000  Uiso   1.00
Br281  Br    0.19496   0.93842   0.37490   0.00000  Uiso   1.00
Br282  Br    0.22892   0.93224   0.13027   0.00000  Uiso   1.00
Br283  Br    0.10441   0.73443   0.36973   0.00000  Uiso   1.00
Br284  Br    0.22624   0.99203   0.04209   0.00000  Uiso   1.00
Br285  Br    0.10709   0.67463   0.45791   0.00000  Uiso   1.00
Br286  Br    0.28973   0.95225   0.44660   0.00000  Uiso   1.00
Br287  Br    0.04360   0.71442   0.05340   0.00000  Uiso   1.00
Br288  Br    0.25871   0.67623   0.28149   0.00000  Uiso   1.00
C289   C     0.18150   0.93135   0.24894   0.00000  Uiso   1.00
C290   C     0.19053   0.87385   0.40607   0.00000  Uiso   1.00
C291   C     0.16497   0.83662   0.11628   0.00000  Uiso   1.00
C292   C     0.16836   0.83005   0.38372   0.00000  Uiso   1.00
C293   C     0.18852   0.88011   0.09395   0.00000  Uiso   1.00
C294   C     0.14481   0.78656   0.40605   0.00000  Uiso   1.00
C295   C     0.18898   0.87994   0.04661   0.00000  Uiso   1.00
C296   C     0.14435   0.78673   0.45339   0.00000  Uiso   1.00
C297   C     0.16529   0.83500   0.02363   0.00000  Uiso   1.00
C298   C     0.16804   0.83167   0.47637   0.00000  Uiso   1.00
C299   C     0.13769   0.79372   0.04785   0.00000  Uiso   1.00
C300   C     0.15183   0.73532   0.25106   0.00000  Uiso   1.00
C301   C     0.19565   0.87295   0.45215   0.00000  Uiso   1.00
C302   C     0.21467   0.92102   0.02093   0.00000  Uiso   1.00
C303   C     0.11866   0.74564   0.47907   0.00000  Uiso   1.00
C304   C     0.22483   0.91366   0.47488   0.00000  Uiso   1.00
C305   C     0.10850   0.75301   0.02512   0.00000  Uiso   1.00
C306   C     0.18865   0.98546   0.25413   0.00000  Uiso   1.00
C307   C     0.14469   0.68120   0.24587   0.00000  Uiso   1.00
C308   C     0.16702   0.83157   0.33613   0.00000  Uiso   1.00
C309   C     0.16632   0.83510   0.16387   0.00000  Uiso   1.00
C310   C     0.14280   0.79282   0.09393   0.00000  Uiso   1.00
N311   N     0.31678   0.81932   0.23783   0.00000  Uiso   1.00
N312   N     0.01656   0.84735   0.26217   0.00000  Uiso   1.00
O313   O     0.12975   0.91286   0.25298   0.00000  Uiso   1.00
O314   O     0.20358   0.75381   0.24701   0.00000  Uiso   1.00
O315   O     0.22613   0.90387   0.24518   0.00000  Uiso   1.00
O316   O     0.10720   0.76279   0.25481   0.00000  Uiso   1.00
O317   O     0.11847   0.83784   0.31997   0.00000  Uiso   1.00
O318   O     0.21486   0.82883   0.18002   0.00000  Uiso   1.00
O319   O     0.21485   0.82885   0.31217   0.00000  Uiso   1.00
O320   O     0.11848   0.83781   0.18782   0.00000  Uiso   1.00
Zn321  Zn    0.10231   0.83933   0.25521   0.00000  Uiso   1.00
Zn322  Zn    0.23102   0.82734   0.24479   0.00000  Uiso   1.00
Br323  Br    0.47171   0.72825   0.12510   0.00000  Uiso   1.00
Br324  Br    0.40795   0.99043   0.21851   0.00000  Uiso   1.00
Br325  Br    0.34637   0.77505   0.19202   0.00000  Uiso   1.00
Br326  Br    0.65363   0.89162   0.30798   0.00000  Uiso   1.00
Br327  Br    0.52829   0.93842   0.37490   0.00000  Uiso   1.00
Br328  Br    0.56226   0.93224   0.13027   0.00000  Uiso   1.00
Br329  Br    0.43775   0.73443   0.36973   0.00000  Uiso   1.00
Br330  Br    0.55958   0.99203   0.04209   0.00000  Uiso   1.00
Br331  Br    0.44042   0.67463   0.45791   0.00000  Uiso   1.00
Br332  Br    0.62306   0.95225   0.44660   0.00000  Uiso   1.00
Br333  Br    0.37694   0.71442   0.05340   0.00000  Uiso   1.00
Br334  Br    0.59205   0.67623   0.28149   0.00000  Uiso   1.00
C335   C     0.51483   0.93135   0.24894   0.00000  Uiso   1.00
C336   C     0.52387   0.87385   0.40607   0.00000  Uiso   1.00
C337   C     0.49830   0.83662   0.11628   0.00000  Uiso   1.00
C338   C     0.50170   0.83005   0.38372   0.00000  Uiso   1.00
C339   C     0.52186   0.88011   0.09395   0.00000  Uiso   1.00
C340   C     0.47814   0.78656   0.40605   0.00000  Uiso   1.00
C341   C     0.52232   0.87994   0.04661   0.00000  Uiso   1.00
C342   C     0.47768   0.78673   0.45339   0.00000  Uiso   1.00
C343   C     0.49863   0.83500   0.02363   0.00000  Uiso   1.00
C344   C     0.50137   0.83167   0.47637   0.00000  Uiso   1.00
C345   C     0.47102   0.79372   0.04785   0.00000  Uiso   1.00
C346   C     0.48517   0.73532   0.25106   0.00000  Uiso   1.00
C347   C     0.52898   0.87295   0.45215   0.00000  Uiso   1.00
C348   C     0.54801   0.92102   0.02093   0.00000  Uiso   1.00
C349   C     0.45199   0.74564   0.47907   0.00000  Uiso   1.00
C350   C     0.55816   0.91366   0.47488   0.00000  Uiso   1.00
C351   C     0.44184   0.75301   0.02512   0.00000  Uiso   1.00
C352   C     0.52198   0.98546   0.25413   0.00000  Uiso   1.00
C353   C     0.47802   0.68120   0.24587   0.00000  Uiso   1.00
C354   C     0.50035   0.83157   0.33613   0.00000  Uiso   1.00
C355   C     0.49965   0.83510   0.16387   0.00000  Uiso   1.00
C356   C     0.47613   0.79282   0.09393   0.00000  Uiso   1.00
N357   N     0.65011   0.81932   0.23783   0.00000  Uiso   1.00
N358   N     0.34989   0.84735   0.26217   0.00000  Uiso   1.00
O359   O     0.46308   0.91286   0.25298   0.00000  Uiso   1.00
O360   O     0.53692   0.75381   0.24701   0.00000  Uiso   1.00
O361   O     0.55946   0.90387   0.24518   0.00000  Uiso   1.00
O362   O     0.44054   0.76279   0.25481   0.00000  Uiso   1.00
O363   O     0.45181   0.83784   0.31997   0.00000  Uiso   1.00
O364   O     0.54819   0.82883   0.18002   0.00000  Uiso   1.00
O365   O     0.54819   0.82885   0.31217   0.00000  Uiso   1.00
O366   O     0.45181   0.83781   0.18782   0.00000  Uiso   1.00
Zn367  Zn    0.43565   0.83933   0.25521   0.00000  Uiso   1.00
Zn368  Zn    0.56435   0.82734   0.24479   0.00000  Uiso   1.00
Br369  Br    0.80504   0.72825   0.12510   0.00000  Uiso   1.00
Br370  Br    0.74129   0.99043   0.21851   0.00000  Uiso   1.00
Br371  Br    0.67970   0.77505   0.19202   0.00000  Uiso   1.00
Br372  Br    0.98696   0.89162   0.30798   0.00000  Uiso   1.00
Br373  Br    0.86163   0.93842   0.37490   0.00000  Uiso   1.00
Br374  Br    0.89559   0.93224   0.13027   0.00000  Uiso   1.00
Br375  Br    0.77108   0.73443   0.36973   0.00000  Uiso   1.00
Br376  Br    0.89291   0.99203   0.04209   0.00000  Uiso   1.00
Br377  Br    0.77376   0.67463   0.45791   0.00000  Uiso   1.00
Br378  Br    0.95640   0.95225   0.44660   0.00000  Uiso   1.00
Br379  Br    0.71027   0.71442   0.05340   0.00000  Uiso   1.00
Br380  Br    0.92538   0.67623   0.28149   0.00000  Uiso   1.00
C381   C     0.84816   0.93135   0.24894   0.00000  Uiso   1.00
C382   C     0.85720   0.87385   0.40607   0.00000  Uiso   1.00
C383   C     0.83164   0.83662   0.11628   0.00000  Uiso   1.00
C384   C     0.83503   0.83005   0.38372   0.00000  Uiso   1.00
C385   C     0.85519   0.88011   0.09395   0.00000  Uiso   1.00
C386   C     0.81148   0.78656   0.40605   0.00000  Uiso   1.00
C387   C     0.85565   0.87994   0.04661   0.00000  Uiso   1.00
C388   C     0.81102   0.78673   0.45339   0.00000  Uiso   1.00
C389   C     0.83196   0.83500   0.02363   0.00000  Uiso   1.00
C390   C     0.83471   0.83167   0.47637   0.00000  Uiso   1.00
C391   C     0.80435   0.79372   0.04785   0.00000  Uiso   1.00
C392   C     0.81850   0.73532   0.25106   0.00000  Uiso   1.00
C393   C     0.86231   0.87295   0.45215   0.00000  Uiso   1.00
C394   C     0.88134   0.92102   0.02093   0.00000  Uiso   1.00
C395   C     0.78533   0.74564   0.47907   0.00000  Uiso   1.00
C396   C     0.89149   0.91366   0.47488   0.00000  Uiso   1.00
C397   C     0.77517   0.75301   0.02512   0.00000  Uiso   1.00
C398   C     0.85531   0.98546   0.25413   0.00000  Uiso   1.00
C399   C     0.81135   0.68120   0.24587   0.00000  Uiso   1.00
C400   C     0.83368   0.83157   0.33613   0.00000  Uiso   1.00
C401   C     0.83298   0.83510   0.16387   0.00000  Uiso   1.00
C402   C     0.80946   0.79282   0.09393   0.00000  Uiso   1.00
N403   N     0.98344   0.81932   0.23783   0.00000  Uiso   1.00
N404   N     0.68322   0.84735   0.26217   0.00000  Uiso   1.00
O405   O     0.79642   0.91286   0.25298   0.00000  Uiso   1.00
O406   O     0.87025   0.75381   0.24701   0.00000  Uiso   1.00
O407   O     0.89280   0.90387   0.24518   0.00000  Uiso   1.00
O408   O     0.77387   0.76279   0.25481   0.00000  Uiso   1.00
O409   O     0.78514   0.83784   0.31997   0.00000  Uiso   1.00
O410   O     0.88153   0.82883   0.18002   0.00000  Uiso   1.00
O411   O     0.88152   0.82885   0.31217   0.00000  Uiso   1.00
O412   O     0.78515   0.83781   0.18782   0.00000  Uiso   1.00
Zn413  Zn    0.76898   0.83933   0.25521   0.00000  Uiso   1.00
Zn414  Zn    0.89769   0.82734   0.24479   0.00000  Uiso   1.00
Br415  Br    0.13837   0.06158   0.62510   0.00000  Uiso   1.00
Br416  Br    0.07462   0.32377   0.71851   0.00000  Uiso   1.00
Br417  Br    0.01304   0.10838   0.69202   0.00000  Uiso   1.00
Br418  Br    0.32030   0.22496   0.80798   0.00000  Uiso   1.00
Br419  Br    0.19496   0.27175   0.87490   0.00000  Uiso   1.00
Br420  Br    0.22892   0.26557   0.63027   0.00000  Uiso   1.00
Br421  Br    0.10441   0.06776   0.86973   0.00000  Uiso   1.00
Br422  Br    0.22624   0.32537   0.54209   0.00000  Uiso   1.00
Br423  Br    0.10709   0.00797   0.95791   0.00000  Uiso   1.00
Br424  Br    0.28973   0.28559   0.94660   0.00000  Uiso   1.00
Br425  Br    0.04360   0.04775   0.55340   0.00000  Uiso   1.00
Br426  Br    0.25871   0.00957   0.78149   0.00000  Uiso   1.00
C427   C     0.18150   0.26468   0.74894   0.00000  Uiso   1.00
C428   C     0.19053   0.20719   0.90607   0.00000  Uiso   1.00
C429   C     0.16497   0.16995   0.61628   0.00000  Uiso   1.00
C430   C     0.16836   0.16339   0.88372   0.00000  Uiso   1.00
C431   C     0.18852   0.21344   0.59395   0.00000  Uiso   1.00
C432   C     0.14481   0.11989   0.90605   0.00000  Uiso   1.00
C433   C     0.18898   0.21327   0.54661   0.00000  Uiso   1.00
C434   C     0.14435   0.12006   0.95339   0.00000  Uiso   1.00
C435   C     0.16529   0.16833   0.52363   0.00000  Uiso   1.00
C436   C     0.16804   0.16500   0.97637   0.00000  Uiso   1.00
C437   C     0.13769   0.12705   0.54785   0.00000  Uiso   1.00
C438   C     0.15183   0.06865   0.75106   0.00000  Uiso   1.00
C439   C     0.19565   0.20628   0.95215   0.00000  Uiso   1.00
C440   C     0.21467   0.25436   0.52093   0.00000  Uiso   1.00
C441   C     0.11866   0.07898   0.97907   0.00000  Uiso   1.00
C442   C     0.22483   0.24699   0.97488   0.00000  Uiso   1.00
C443   C     0.10850   0.08634   0.52512   0.00000  Uiso   1.00
C444   C     0.18865   0.31880   0.75413   0.00000  Uiso   1.00
C445   C     0.14469   0.01454   0.74587   0.00000  Uiso   1.00
C446   C     0.16702   0.16490   0.83613   0.00000  Uiso   1.00
C447   C     0.16632   0.16843   0.66387   0.00000  Uiso   1.00
C448   C     0.14280   0.12615   0.59393   0.00000  Uiso   1.00
N449   N     0.31678   0.15265   0.73783   0.00000  Uiso   1.00
N450   N     0.01656   0.18068   0.76217   0.00000  Uiso   1.00
O451   O     0.12975   0.24619   0.75298   0.00000  Uiso   1.00
O452   O     0.20358   0.08714   0.74701   0.00000  Uiso   1.00
O453   O     0.22613   0.23721   0.74518   0.00000  Uiso   1.00
O454   O     0.10720   0.09613   0.75481   0.00000  Uiso   1.00
O455   O     0.11847   0.17117   0.81997   0.00000  Uiso   1.00
O456   O     0.21486   0.16216   0.68002   0.00000  Uiso   1.00
O457   O     0.21485   0.16219   0.81217   0.00000  Uiso   1.00
O458   O     0.11848   0.17115   0.68782   0.00000  Uiso   1.00
Zn459  Zn    0.10231   0.17266   0.75521   0.00000  Uiso   1.00
Zn460  Zn    0.23102   0.16067   0.74479   0.00000  Uiso   1.00
Br461  Br    0.47171   0.06158   0.62510   0.00000  Uiso   1.00
Br462  Br    0.40795   0.32377   0.71851   0.00000  Uiso   1.00
Br463  Br    0.34637   0.10838   0.69202   0.00000  Uiso   1.00
Br464  Br    0.65363   0.22496   0.80798   0.00000  Uiso   1.00
Br465  Br    0.52829   0.27175   0.87490   0.00000  Uiso   1.00
Br466  Br    0.56226   0.26557   0.63027   0.00000  Uiso   1.00
Br467  Br    0.43775   0.06776   0.86973   0.00000  Uiso   1.00
Br468  Br    0.55958   0.32537   0.54209   0.00000  Uiso   1.00
Br469  Br    0.44042   0.00797   0.95791   0.00000  Uiso   1.00
Br470  Br    0.62306   0.28559   0.94660   0.00000  Uiso   1.00
Br471  Br    0.37694   0.04775   0.55340   0.00000  Uiso   1.00
Br472  Br    0.59205   0.00957   0.78149   0.00000  Uiso   1.00
C473   C     0.51483   0.26468   0.74894   0.00000  Uiso   1.00
C474   C     0.52387   0.20719   0.90607   0.00000  Uiso   1.00
C475   C     0.49830   0.16995   0.61628   0.00000  Uiso   1.00
C476   C     0.50170   0.16339   0.88372   0.00000  Uiso   1.00
C477   C     0.52186   0.21344   0.59395   0.00000  Uiso   1.00
C478   C     0.47814   0.11989   0.90605   0.00000  Uiso   1.00
C479   C     0.52232   0.21327   0.54661   0.00000  Uiso   1.00
C480   C     0.47768   0.12006   0.95339   0.00000  Uiso   1.00
C481   C     0.49863   0.16833   0.52363   0.00000  Uiso   1.00
C482   C     0.50137   0.16500   0.97637   0.00000  Uiso   1.00
C483   C     0.47102   0.12705   0.54785   0.00000  Uiso   1.00
C484   C     0.48517   0.06865   0.75106   0.00000  Uiso   1.00
C485   C     0.52898   0.20628   0.95215   0.00000  Uiso   1.00
C486   C     0.54801   0.25436   0.52093   0.00000  Uiso   1.00
C487   C     0.45199   0.07898   0.97907   0.00000  Uiso   1.00
C488   C     0.55816   0.24699   0.97488   0.00000  Uiso   1.00
C489   C     0.44184   0.08634   0.52512   0.00000  Uiso   1.00
C490   C     0.52198   0.31880   0.75413   0.00000  Uiso   1.00
C491   C     0.47802   0.01454   0.74587   0.00000  Uiso   1.00
C492   C     0.50035   0.16490   0.83613   0.00000  Uiso   1.00
C493   C     0.49965   0.16843   0.66387   0.00000  Uiso   1.00
C494   C     0.47613   0.12615   0.59393   0.00000  Uiso   1.00
N495   N     0.65011   0.15265   0.73783   0.00000  Uiso   1.00
N496   N     0.34989   0.18068   0.76217   0.00000  Uiso   1.00
O497   O     0.46308   0.24619   0.75298   0.00000  Uiso   1.00
O498   O     0.53692   0.08714   0.74701   0.00000  Uiso   1.00
O499   O     0.55946   0.23721   0.74518   0.00000  Uiso   1.00
O500   O     0.44054   0.09613   0.75481   0.00000  Uiso   1.00
O501   O     0.45181   0.17117   0.81997   0.00000  Uiso   1.00
O502   O     0.54819   0.16216   0.68002   0.00000  Uiso   1.00
O503   O     0.54819   0.16219   0.81217   0.00000  Uiso   1.00
O504   O     0.45181   0.17115   0.68782   0.00000  Uiso   1.00
Zn505  Zn    0.43565   0.17266   0.75521   0.00000  Uiso   1.00
Zn506  Zn    0.56435   0.16067   0.74479   0.00000  Uiso   1.00
Br507  Br    0.80504   0.06158   0.62510   0.00000  Uiso   1.00
Br508  Br    0.74129   0.32377   0.71851   0.00000  Uiso   1.00
Br509  Br    0.67970   0.10838   0.69202   0.00000  Uiso   1.00
Br510  Br    0.98696   0.22496   0.80798   0.00000  Uiso   1.00
Br511  Br    0.86163   0.27175   0.87490   0.00000  Uiso   1.00
Br512  Br    0.89559   0.26557   0.63027   0.00000  Uiso   1.00
Br513  Br    0.77108   0.06776   0.86973   0.00000  Uiso   1.00
Br514  Br    0.89291   0.32537   0.54209   0.00000  Uiso   1.00
Br515  Br    0.77376   0.00797   0.95791   0.00000  Uiso   1.00
Br516  Br    0.95640   0.28559   0.94660   0.00000  Uiso   1.00
Br517  Br    0.71027   0.04775   0.55340   0.00000  Uiso   1.00
Br518  Br    0.92538   0.00957   0.78149   0.00000  Uiso   1.00
C519   C     0.84816   0.26468   0.74894   0.00000  Uiso   1.00
C520   C     0.85720   0.20719   0.90607   0.00000  Uiso   1.00
C521   C     0.83164   0.16995   0.61628   0.00000  Uiso   1.00
C522   C     0.83503   0.16339   0.88372   0.00000  Uiso   1.00
C523   C     0.85519   0.21344   0.59395   0.00000  Uiso   1.00
C524   C     0.81148   0.11989   0.90605   0.00000  Uiso   1.00
C525   C     0.85565   0.21327   0.54661   0.00000  Uiso   1.00
C526   C     0.81102   0.12006   0.95339   0.00000  Uiso   1.00
C527   C     0.83196   0.16833   0.52363   0.00000  Uiso   1.00
C528   C     0.83471   0.16500   0.97637   0.00000  Uiso   1.00
C529   C     0.80435   0.12705   0.54785   0.00000  Uiso   1.00
C530   C     0.81850   0.06865   0.75106   0.00000  Uiso   1.00
C531   C     0.86231   0.20628   0.95215   0.00000  Uiso   1.00
C532   C     0.88134   0.25436   0.52093   0.00000  Uiso   1.00
C533   C     0.78533   0.07898   0.97907   0.00000  Uiso   1.00
C534   C     0.89149   0.24699   0.97488   0.00000  Uiso   1.00
C535   C     0.77517   0.08634   0.52512   0.00000  Uiso   1.00
C536   C     0.85531   0.31880   0.75413   0.00000  Uiso   1.00
C537   C     0.81135   0.01454   0.74587   0.00000  Uiso   1.00
C538   C     0.83368   0.16490   0.83613   0.00000  Uiso   1.00
C539   C     0.83298   0.16843   0.66387   0.00000  Uiso   1.00
C540   C     0.80946   0.12615   0.59393   0.00000  Uiso   1.00
N541   N     0.98344   0.15265   0.73783   0.00000  Uiso   1.00
N542   N     0.68322   0.18068   0.76217   0.00000  Uiso   1.00
O543   O     0.79642   0.24619   0.75298   0.00000  Uiso   1.00
O544   O     0.87025   0.08714   0.74701   0.00000  Uiso   1.00
O545   O     0.89280   0.23721   0.74518   0.00000  Uiso   1.00
O546   O     0.77387   0.09613   0.75481   0.00000  Uiso   1.00
O547   O     0.78514   0.17117   0.81997   0.00000  Uiso   1.00
O548   O     0.88153   0.16216   0.68002   0.00000  Uiso   1.00
O549   O     0.88152   0.16219   0.81217   0.00000  Uiso   1.00
O550   O     0.78515   0.17115   0.68782   0.00000  Uiso   1.00
Zn551  Zn    0.76898   0.17266   0.75521   0.00000  Uiso   1.00
Zn552  Zn    0.89769   0.16067   0.74479   0.00000  Uiso   1.00
Br553  Br    0.13837   0.39492   0.62510   0.00000  Uiso   1.00
Br554  Br    0.07462   0.65710   0.71851   0.00000  Uiso   1.00
Br555  Br    0.01304   0.44171   0.69202   0.00000  Uiso   1.00
Br556  Br    0.32030   0.55829   0.80798   0.00000  Uiso   1.00
Br557  Br    0.19496   0.60508   0.87490   0.00000  Uiso   1.00
Br558  Br    0.22892   0.59890   0.63027   0.00000  Uiso   1.00
Br559  Br    0.10441   0.40110   0.86973   0.00000  Uiso   1.00
Br560  Br    0.22624   0.65870   0.54209   0.00000  Uiso   1.00
Br561  Br    0.10709   0.34130   0.95791   0.00000  Uiso   1.00
Br562  Br    0.28973   0.61892   0.94660   0.00000  Uiso   1.00
Br563  Br    0.04360   0.38108   0.55340   0.00000  Uiso   1.00
Br564  Br    0.25871   0.34290   0.78149   0.00000  Uiso   1.00
C565   C     0.18150   0.59802   0.74894   0.00000  Uiso   1.00
C566   C     0.19053   0.54052   0.90607   0.00000  Uiso   1.00
C567   C     0.16497   0.50328   0.61628   0.00000  Uiso   1.00
C568   C     0.16836   0.49672   0.88372   0.00000  Uiso   1.00
C569   C     0.18852   0.54678   0.59395   0.00000  Uiso   1.00
C570   C     0.14481   0.45322   0.90605   0.00000  Uiso   1.00
C571   C     0.18898   0.54660   0.54661   0.00000  Uiso   1.00
C572   C     0.14435   0.45340   0.95339   0.00000  Uiso   1.00
C573   C     0.16529   0.50167   0.52363   0.00000  Uiso   1.00
C574   C     0.16804   0.49833   0.97637   0.00000  Uiso   1.00
C575   C     0.13769   0.46038   0.54785   0.00000  Uiso   1.00
C576   C     0.15183   0.40198   0.75106   0.00000  Uiso   1.00
C577   C     0.19565   0.53962   0.95215   0.00000  Uiso   1.00
C578   C     0.21467   0.58769   0.52093   0.00000  Uiso   1.00
C579   C     0.11866   0.41231   0.97907   0.00000  Uiso   1.00
C580   C     0.22483   0.58033   0.97488   0.00000  Uiso   1.00
C581   C     0.10850   0.41967   0.52512   0.00000  Uiso   1.00
C582   C     0.18865   0.65213   0.75413   0.00000  Uiso   1.00
C583   C     0.14469   0.34787   0.74587   0.00000  Uiso   1.00
C584   C     0.16702   0.49824   0.83613   0.00000  Uiso   1.00
C585   C     0.16632   0.50177   0.66387   0.00000  Uiso   1.00
C586   C     0.14280   0.45948   0.59393   0.00000  Uiso   1.00
N587   N     0.31678   0.48598   0.73783   0.00000  Uiso   1.00
N588   N     0.01656   0.51402   0.76217   0.00000  Uiso   1.00
O589   O     0.12975   0.57952   0.75298   0.00000  Uiso   1.00
O590   O     0.20358   0.42048   0.74701   0.00000  Uiso   1.00
O591   O     0.22613   0.57054   0.74518   0.00000  Uiso   1.00
O592   O     0.10720   0.42946   0.75481   0.00000  Uiso   1.00
O593   O     0.11847   0.50450   0.81997   0.00000  Uiso   1.00
O594   O     0.21486   0.49550   0.68002   0.00000  Uiso   1.00
O595   O     0.21485   0.49552   0.81217   0.00000  Uiso   1.00
O596   O     0.11848   0.50448   0.68782   0.00000  Uiso   1.00
Zn597  Zn    0.10231   0.50600   0.75521   0.00000  Uiso   1.00
Zn598  Zn    0.23102   0.49400   0.74479   0.00000  Uiso   1.00
Br599  Br    0.47171   0.39492   0.62510   0.00000  Uiso   1.00
Br600  Br    0.40795   0.65710   0.71851   0.00000  Uiso   1.00
Br601  Br    0.34637   0.44171   0.69202   0.00000  Uiso   1.00
Br602  Br    0.65363   0.55829   0.80798   0.00000  Uiso   1.00
Br603  Br    0.52829   0.60508   0.87490   0.00000  Uiso   1.00
Br604  Br    0.56226   0.59890   0.63027   0.00000  Uiso   1.00
Br605  Br    0.43775   0.40110   0.86973   0.00000  Uiso   1.00
Br606  Br    0.55958   0.65870   0.54209   0.00000  Uiso   1.00
Br607  Br    0.44042   0.34130   0.95791   0.00000  Uiso   1.00
Br608  Br    0.62306   0.61892   0.94660   0.00000  Uiso   1.00
Br609  Br    0.37694   0.38108   0.55340   0.00000  Uiso   1.00
Br610  Br    0.59205   0.34290   0.78149   0.00000  Uiso   1.00
C611   C     0.51483   0.59802   0.74894   0.00000  Uiso   1.00
C612   C     0.52387   0.54052   0.90607   0.00000  Uiso   1.00
C613   C     0.49830   0.50328   0.61628   0.00000  Uiso   1.00
C614   C     0.50170   0.49672   0.88372   0.00000  Uiso   1.00
C615   C     0.52186   0.54678   0.59395   0.00000  Uiso   1.00
C616   C     0.47814   0.45322   0.90605   0.00000  Uiso   1.00
C617   C     0.52232   0.54660   0.54661   0.00000  Uiso   1.00
C618   C     0.47768   0.45340   0.95339   0.00000  Uiso   1.00
C619   C     0.49863   0.50167   0.52363   0.00000  Uiso   1.00
C620   C     0.50137   0.49833   0.97637   0.00000  Uiso   1.00
C621   C     0.47102   0.46038   0.54785   0.00000  Uiso   1.00
C622   C     0.48517   0.40198   0.75106   0.00000  Uiso   1.00
C623   C     0.52898   0.53962   0.95215   0.00000  Uiso   1.00
C624   C     0.54801   0.58769   0.52093   0.00000  Uiso   1.00
C625   C     0.45199   0.41231   0.97907   0.00000  Uiso   1.00
C626   C     0.55816   0.58033   0.97488   0.00000  Uiso   1.00
C627   C     0.44184   0.41967   0.52512   0.00000  Uiso   1.00
C628   C     0.52198   0.65213   0.75413   0.00000  Uiso   1.00
C629   C     0.47802   0.34787   0.74587   0.00000  Uiso   1.00
C630   C     0.50035   0.49824   0.83613   0.00000  Uiso   1.00
C631   C     0.49965   0.50177   0.66387   0.00000  Uiso   1.00
C632   C     0.47613   0.45948   0.59393   0.00000  Uiso   1.00
N633   N     0.65011   0.48598   0.73783   0.00000  Uiso   1.00
N634   N     0.34989   0.51402   0.76217   0.00000  Uiso   1.00
O635   O     0.46308   0.57952   0.75298   0.00000  Uiso   1.00
O636   O     0.53692   0.42048   0.74701   0.00000  Uiso   1.00
O637   O     0.55946   0.57054   0.74518   0.00000  Uiso   1.00
O638   O     0.44054   0.42946   0.75481   0.00000  Uiso   1.00
O639   O     0.45181   0.50450   0.81997   0.00000  Uiso   1.00
O640   O     0.54819   0.49550   0.68002   0.00000  Uiso   1.00
O641   O     0.54819   0.49552   0.81217   0.00000  Uiso   1.00
O642   O     0.45181   0.50448   0.68782   0.00000  Uiso   1.00
Zn643  Zn    0.43565   0.50600   0.75521   0.00000  Uiso   1.00
Zn644  Zn    0.56435   0.49400   0.74479   0.00000  Uiso   1.00
Br645  Br    0.80504   0.39492   0.62510   0.00000  Uiso   1.00
Br646  Br    0.74129   0.65710   0.71851   0.00000  Uiso   1.00
Br647  Br    0.67970   0.44171   0.69202   0.00000  Uiso   1.00
Br648  Br    0.98696   0.55829   0.80798   0.00000  Uiso   1.00
Br649  Br    0.86163   0.60508   0.87490   0.00000  Uiso   1.00
Br650  Br    0.89559   0.59890   0.63027   0.00000  Uiso   1.00
Br651  Br    0.77108   0.40110   0.86973   0.00000  Uiso   1.00
Br652  Br    0.89291   0.65870   0.54209   0.00000  Uiso   1.00
Br653  Br    0.77376   0.34130   0.95791   0.00000  Uiso   1.00
Br654  Br    0.95640   0.61892   0.94660   0.00000  Uiso   1.00
Br655  Br    0.71027   0.38108   0.55340   0.00000  Uiso   1.00
Br656  Br    0.92538   0.34290   0.78149   0.00000  Uiso   1.00
C657   C     0.84816   0.59802   0.74894   0.00000  Uiso   1.00
C658   C     0.85720   0.54052   0.90607   0.00000  Uiso   1.00
C659   C     0.83164   0.50328   0.61628   0.00000  Uiso   1.00
C660   C     0.83503   0.49672   0.88372   0.00000  Uiso   1.00
C661   C     0.85519   0.54678   0.59395   0.00000  Uiso   1.00
C662   C     0.81148   0.45322   0.90605   0.00000  Uiso   1.00
C663   C     0.85565   0.54660   0.54661   0.00000  Uiso   1.00
C664   C     0.81102   0.45340   0.95339   0.00000  Uiso   1.00
C665   C     0.83196   0.50167   0.52363   0.00000  Uiso   1.00
C666   C     0.83471   0.49833   0.97637   0.00000  Uiso   1.00
C667   C     0.80435   0.46038   0.54785   0.00000  Uiso   1.00
C668   C     0.81850   0.40198   0.75106   0.00000  Uiso   1.00
C669   C     0.86231   0.53962   0.95215   0.00000  Uiso   1.00
C670   C     0.88134   0.58769   0.52093   0.00000  Uiso   1.00
C671   C     0.78533   0.41231   0.97907   0.00000  Uiso   1.00
C672   C     0.89149   0.58033   0.97488   0.00000  Uiso   1.00
C673   C     0.77517   0.41967   0.52512   0.00000  Uiso   1.00
C674   C     0.85531   0.65213   0.75413   0.00000  Uiso   1.00
C675   C     0.81135   0.34787   0.74587   0.00000  Uiso   1.00
C676   C     0.83368   0.49824   0.83613   0.00000  Uiso   1.00
C677   C     0.83298   0.50177   0.66387   0.00000  Uiso   1.00
C678   C     0.80946   0.45948   0.59393   0.00000  Uiso   1.00
N679   N     0.98344   0.48598   0.73783   0.00000  Uiso   1.00
N680   N     0.68322   0.51402   0.76217   0.00000  Uiso   1.00
O681   O     0.79642   0.57952   0.75298   0.00000  Uiso   1.00
O682   O     0.87025   0.42048   0.74701   0.00000  Uiso   1.00
O683   O     0.89280   0.57054   0.74518   0.00000  Uiso   1.00
O684   O     0.77387   0.42946   0.75481   0.00000  Uiso   1.00
O685   O     0.78514   0.50450   0.81997   0.00000  Uiso   1.00
O686   O     0.88153   0.49550   0.68002   0.00000  Uiso   1.00
O687   O     0.88152   0.49552   0.81217   0.00000  Uiso   1.00
O688   O     0.78515   0.50448   0.68782   0.00000  Uiso   1.00
Zn689  Zn    0.76898   0.50600   0.75521   0.00000  Uiso   1.00
Zn690  Zn    0.89769   0.49400   0.74479   0.00000  Uiso   1.00
Br691  Br    0.13837   0.72825   0.62510   0.00000  Uiso   1.00
Br692  Br    0.07462   0.99043   0.71851   0.00000  Uiso   1.00
Br693  Br    0.01304   0.77505   0.69202   0.00000  Uiso   1.00
Br694  Br    0.32030   0.89162   0.80798   0.00000  Uiso   1.00
Br695  Br    0.19496   0.93842   0.87490   0.00000  Uiso   1.00
Br696  Br    0.22892   0.93224   0.63027   0.00000  Uiso   1.00
Br697  Br    0.10441   0.73443   0.86973   0.00000  Uiso   1.00
Br698  Br    0.22624   0.99203   0.54209   0.00000  Uiso   1.00
Br699  Br    0.10709   0.67463   0.95791   0.00000  Uiso   1.00
Br700  Br    0.28973   0.95225   0.94660   0.00000  Uiso   1.00
Br701  Br    0.04360   0.71442   0.55340   0.00000  Uiso   1.00
Br702  Br    0.25871   0.67623   0.78149   0.00000  Uiso   1.00
C703   C     0.18150   0.93135   0.74894   0.00000  Uiso   1.00
C704   C     0.19053   0.87385   0.90607   0.00000  Uiso   1.00
C705   C     0.16497   0.83662   0.61628   0.00000  Uiso   1.00
C706   C     0.16836   0.83005   0.88372   0.00000  Uiso   1.00
C707   C     0.18852   0.88011   0.59395   0.00000  Uiso   1.00
C708   C     0.14481   0.78656   0.90605   0.00000  Uiso   1.00
C709   C     0.18898   0.87994   0.54661   0.00000  Uiso   1.00
C710   C     0.14435   0.78673   0.95339   0.00000  Uiso   1.00
C711   C     0.16529   0.83500   0.52363   0.00000  Uiso   1.00
C712   C     0.16804   0.83167   0.97637   0.00000  Uiso   1.00
C713   C     0.13769   0.79372   0.54785   0.00000  Uiso   1.00
C714   C     0.15183   0.73532   0.75106   0.00000  Uiso   1.00
C715   C     0.19565   0.87295   0.95215   0.00000  Uiso   1.00
C716   C     0.21467   0.92102   0.52093   0.00000  Uiso   1.00
C717   C     0.11866   0.74564   0.97907   0.00000  Uiso   1.00
C718   C     0.22483   0.91366   0.97488   0.00000  Uiso   1.00
C719   C     0.10850   0.75301   0.52512   0.00000  Uiso   1.00
C720   C     0.18865   0.98546   0.75413   0.00000  Uiso   1.00
C721   C     0.14469   0.68120   0.74587   0.00000  Uiso   1.00
C722   C     0.16702   0.83157   0.83613   0.00000  Uiso   1.00
C723   C     0.16632   0.83510   0.66387   0.00000  Uiso   1.00
C724   C     0.14280   0.79282   0.59393   0.00000  Uiso   1.00
N725   N     0.31678   0.81932   0.73783   0.00000  Uiso   1.00
N726   N     0.01656   0.84735   0.76217   0.00000  Uiso   1.00
O727   O     0.12975   0.91286   0.75298   0.00000  Uiso   1.00
O728   O     0.20358   0.75381   0.74701   0.00000  Uiso   1.00
O729   O     0.22613   0.90387   0.74518   0.00000  Uiso   1.00
O730   O     0.10720   0.76279   0.75481   0.00000  Uiso   1.00
O731   O     0.11847   0.83784   0.81997   0.00000  Uiso   1.00
O732   O     0.21486   0.82883   0.68002   0.00000  Uiso   1.00
O733   O     0.21485   0.82885   0.81217   0.00000  Uiso   1.00
O734   O     0.11848   0.83781   0.68782   0.00000  Uiso   1.00
Zn735  Zn    0.10231   0.83933   0.75521   0.00000  Uiso   1.00
Zn736  Zn    0.23102   0.82734   0.74479   0.00000  Uiso   1.00
Br737  Br    0.47171   0.72825   0.62510   0.00000  Uiso   1.00
Br738  Br    0.40795   0.99043   0.71851   0.00000  Uiso   1.00
Br739  Br    0.34637   0.77505   0.69202   0.00000  Uiso   1.00
Br740  Br    0.65363   0.89162   0.80798   0.00000  Uiso   1.00
Br741  Br    0.52829   0.93842   0.87490   0.00000  Uiso   1.00
Br742  Br    0.56226   0.93224   0.63027   0.00000  Uiso   1.00
Br743  Br    0.43775   0.73443   0.86973   0.00000  Uiso   1.00
Br744  Br    0.55958   0.99203   0.54209   0.00000  Uiso   1.00
Br745  Br    0.44042   0.67463   0.95791   0.00000  Uiso   1.00
Br746  Br    0.62306   0.95225   0.94660   0.00000  Uiso   1.00
Br747  Br    0.37694   0.71442   0.55340   0.00000  Uiso   1.00
Br748  Br    0.59205   0.67623   0.78149   0.00000  Uiso   1.00
C749   C     0.51483   0.93135   0.74894   0.00000  Uiso   1.00
C750   C     0.52387   0.87385   0.90607   0.00000  Uiso   1.00
C751   C     0.49830   0.83662   0.61628   0.00000  Uiso   1.00
C752   C     0.50170   0.83005   0.88372   0.00000  Uiso   1.00
C753   C     0.52186   0.88011   0.59395   0.00000  Uiso   1.00
C754   C     0.47814   0.78656   0.90605   0.00000  Uiso   1.00
C755   C     0.52232   0.87994   0.54661   0.00000  Uiso   1.00
C756   C     0.47768   0.78673   0.95339   0.00000  Uiso   1.00
C757   C     0.49863   0.83500   0.52363   0.00000  Uiso   1.00
C758   C     0.50137   0.83167   0.97637   0.00000  Uiso   1.00
C759   C     0.47102   0.79372   0.54785   0.00000  Uiso   1.00
C760   C     0.48517   0.73532   0.75106   0.00000  Uiso   1.00
C761   C     0.52898   0.87295   0.95215   0.00000  Uiso   1.00
C762   C     0.54801   0.92102   0.52093   0.00000  Uiso   1.00
C763   C     0.45199   0.74564   0.97907   0.00000  Uiso   1.00
C764   C     0.55816   0.91366   0.97488   0.00000  Uiso   1.00
C765   C     0.44184   0.75301   0.52512   0.00000  Uiso   1.00
C766   C     0.52198   0.98546   0.75413   0.00000  Uiso   1.00
C767   C     0.47802   0.68120   0.74587   0.00000  Uiso   1.00
C768   C     0.50035   0.83157   0.83613   0.00000  Uiso   1.00
C769   C     0.49965   0.83510   0.66387   0.00000  Uiso   1.00
C770   C     0.47613   0.79282   0.59393   0.00000  Uiso   1.00
N771   N     0.65011   0.81932   0.73783   0.00000  Uiso   1.00
N772   N     0.34989   0.84735   0.76217   0.00000  Uiso   1.00
O773   O     0.46308   0.91286   0.75298   0.00000  Uiso   1.00
O774   O     0.53692   0.75381   0.74701   0.00000  Uiso   1.00
O775   O     0.55946   0.90387   0.74518   0.00000  Uiso   1.00
O776   O     0.44054   0.76279   0.75481   0.00000  Uiso   1.00
O777   O     0.45181   0.83784   0.81997   0.00000  Uiso   1.00
O778   O     0.54819   0.82883   0.68002   0.00000  Uiso   1.00
O779   O     0.54819   0.82885   0.81217   0.00000  Uiso   1.00
O780   O     0.45181   0.83781   0.68782   0.00000  Uiso   1.00
Zn781  Zn    0.43565   0.83933   0.75521   0.00000  Uiso   1.00
Zn782  Zn    0.56435   0.82734   0.74479   0.00000  Uiso   1.00
Br783  Br    0.80504   0.72825   0.62510   0.00000  Uiso   1.00
Br784  Br    0.74129   0.99043   0.71851   0.00000  Uiso   1.00
Br785  Br    0.67970   0.77505   0.69202   0.00000  Uiso   1.00
Br786  Br    0.98696   0.89162   0.80798   0.00000  Uiso   1.00
Br787  Br    0.86163   0.93842   0.87490   0.00000  Uiso   1.00
Br788  Br    0.89559   0.93224   0.63027   0.00000  Uiso   1.00
Br789  Br    0.77108   0.73443   0.86973   0.00000  Uiso   1.00
Br790  Br    0.89291   0.99203   0.54209   0.00000  Uiso   1.00
Br791  Br    0.77376   0.67463   0.95791   0.00000  Uiso   1.00
Br792  Br    0.95640   0.95225   0.94660   0.00000  Uiso   1.00
Br793  Br    0.71027   0.71442   0.55340   0.00000  Uiso   1.00
Br794  Br    0.92538   0.67623   0.78149   0.00000  Uiso   1.00
C795   C     0.84816   0.93135   0.74894   0.00000  Uiso   1.00
C796   C     0.85720   0.87385   0.90607   0.00000  Uiso   1.00
C797   C     0.83164   0.83662   0.61628   0.00000  Uiso   1.00
C798   C     0.83503   0.83005   0.88372   0.00000  Uiso   1.00
C799   C     0.85519   0.88011   0.59395   0.00000  Uiso   1.00
C800   C     0.81148   0.78656   0.90605   0.00000  Uiso   1.00
C801   C     0.85565   0.87994   0.54661   0.00000  Uiso   1.00
C802   C     0.81102   0.78673   0.95339   0.00000  Uiso   1.00
C803   C     0.83196   0.83500   0.52363   0.00000  Uiso   1.00
C804   C     0.83471   0.83167   0.97637   0.00000  Uiso   1.00
C805   C     0.80435   0.79372   0.54785   0.00000  Uiso   1.00
C806   C     0.81850   0.73532   0.75106   0.00000  Uiso   1.00
C807   C     0.86231   0.87295   0.95215   0.00000  Uiso   1.00
C808   C     0.88134   0.92102   0.52093   0.00000  Uiso   1.00
C809   C     0.78533   0.74564   0.97907   0.00000  Uiso   1.00
C810   C     0.89149   0.91366   0.97488   0.00000  Uiso   1.00
C811   C     0.77517   0.75301   0.52512   0.00000  Uiso   1.00
C812   C     0.85531   0.98546   0.75413   0.00000  Uiso   1.00
C813   C     0.81135   0.68120   0.74587   0.00000  Uiso   1.00
C814   C     0.83368   0.83157   0.83613   0.00000  Uiso   1.00
C815   C     0.83298   0.83510   0.66387   0.00000  Uiso   1.00
C816   C     0.80946   0.79282   0.59393   0.00000  Uiso   1.00
N817   N     0.98344   0.81932   0.73783   0.00000  Uiso   1.00
N818   N     0.68322   0.84735   0.76217   0.00000  Uiso   1.00
O819   O     0.79642   0.91286   0.75298   0.00000  Uiso   1.00
O820   O     0.87025   0.75381   0.74701   0.00000  Uiso   1.00
O821   O     0.89280   0.90387   0.74518   0.00000  Uiso   1.00
O822   O     0.77387   0.76279   0.75481   0.00000  Uiso   1.00
O823   O     0.78514   0.83784   0.81997   0.00000  Uiso   1.00
O824   O     0.88153   0.82883   0.68002   0.00000  Uiso   1.00
O825   O     0.88152   0.82885   0.81217   0.00000  Uiso   1.00
O826   O     0.78515   0.83781   0.68782   0.00000  Uiso   1.00
Zn827  Zn    0.76898   0.83933   0.75521   0.00000  Uiso   1.00
Zn828  Zn    0.89769   0.82734   0.74479   0.00000  Uiso   1.00
loop_
_geom_bond_atom_site_label_1
_geom_bond_atom_site_label_2
_geom_bond_distance
_geom_bond_site_symmetry_2
_ccdc_geom_bond_type
Br1    C34     1.943   .     S
Br2    C169    1.950   .     S
Br3    N127    1.872   1_455 S
Br4    N82     1.872   .     S
Br5    C14     1.943   .     S
Br6    C17     1.945   .     S
Br7    C18     1.945   .     S
Br8    C26     1.932   .     S
Br9    C27     1.932   .     S
Br10   C28     1.938   .     S
Br11   C29     1.938   .     S
Br12   C306    1.950   1_545 S
C13    O39     1.298   .     A
C13    C30     1.406   .     S
C13    O37     1.282   .     A
C14    C25     1.392   .     A
C14    C16     1.387   .     A
C15    C34     1.387   .     A
C15    C17     1.400   .     A
C15    C33     1.427   .     S
C16    C18     1.400   .     A
C16    C32     1.427   .     S
C17    C19     1.413   .     A
C18    C20     1.413   .     A
C19    C21     1.432   .     A
C19    C26     1.420   .     A
C20    C27     1.420   .     A
C20    C22     1.432   .     A
C21    C23     1.417   .     A
C21    C436    1.408   1_554 S
C22    C25     1.417   .     A
C22    C435    1.408   .     S
C23    C34     1.392   .     A
C23    C29     1.403   .     A
C24    O38     1.282   .     A
C24    C31     1.407   .     S
C24    O40     1.298   .     A
C25    C28     1.403   .     A
C26    C442    1.387   1_554 S
C27    C443    1.387   .     S
C28    C440    1.387   .     S
C29    C441    1.387   1_554 S
C30    Br150   1.950   .     S
C30    C169    1.356   .     S
C31    C306    1.356   1_545 S
C31    Br278   1.950   1_545 S
C32    O41     1.292   .     A
C32    O43     1.294   .     A
C33    O42     1.292   .     A
C33    O44     1.294   .     A
N35    Zn46    2.035   .     S
N35    Br49    1.872   .     S
N35    N82     1.279   .     S
N36    Zn45    2.035   .     S
N36    N127    1.279   1_455 S
N36    Br96    1.872   1_455 S
O37    Zn45    1.979   .     S
O38    Zn46    1.979   .     S
O39    Zn46    1.993   .     S
O40    Zn45    1.993   .     S
O41    Zn45    2.001   .     S
O42    Zn46    2.001   .     S
O43    Zn46    2.022   .     S
O44    Zn45    2.022   .     S
Br47   C80     1.943   .     S
Br48   C215    1.950   .     S
Br50   N128    1.872   .     S
Br51   C60     1.943   .     S
Br52   C63     1.945   .     S
Br53   C64     1.945   .     S
Br54   C72     1.932   .     S
Br55   C73     1.932   .     S
Br56   C74     1.938   .     S
Br57   C75     1.938   .     S
Br58   C352    1.950   1_545 S
C59    O85     1.298   .     A
C59    C76     1.406   .     S
C59    O83     1.282   .     A
C60    C71     1.392   .     A
C60    C62     1.387   .     A
C61    C80     1.387   .     A
C61    C63     1.400   .     A
C61    C79     1.427   .     S
C62    C64     1.400   .     A
C62    C78     1.427   .     S
C63    C65     1.413   .     A
C64    C66     1.413   .     A
C65    C67     1.432   .     A
C65    C72     1.420   .     A
C66    C73     1.420   .     A
C66    C68     1.432   .     A
C67    C69     1.417   .     A
C67    C482    1.408   1_554 S
C68    C71     1.417   .     A
C68    C481    1.408   .     S
C69    C80     1.392   .     A
C69    C75     1.403   .     A
C70    O84     1.282   .     A
C70    C77     1.407   .     S
C70    O86     1.298   .     A
C71    C74     1.403   .     A
C72    C488    1.387   1_554 S
C73    C489    1.387   .     S
C74    C486    1.387   .     S
C75    C487    1.387   1_554 S
C76    Br196   1.950   .     S
C76    C215    1.356   .     S
C77    C352    1.356   1_545 S
C77    Br324   1.950   1_545 S
C78    O87     1.292   .     A
C78    O89     1.294   .     A
C79    O88     1.292   .     A
C79    O90     1.294   .     A
N81    Zn92    2.035   .     S
N81    Br95    1.872   .     S
N81    N128    1.279   .     S
N82    Zn91    2.035   .     S
O83    Zn91    1.979   .     S
O84    Zn92    1.979   .     S
O85    Zn92    1.993   .     S
O86    Zn91    1.993   .     S
O87    Zn91    2.001   .     S
O88    Zn92    2.001   .     S
O89    Zn92    2.022   .     S
O90    Zn91    2.022   .     S
Br93   C126    1.943   .     S
Br94   C261    1.950   .     S
Br96   N36     1.872   1_655 S
Br97   C106    1.943   .     S
Br98   C109    1.945   .     S
Br99   C110    1.945   .     S
Br100  C118    1.932   .     S
Br101  C119    1.932   .     S
Br102  C120    1.938   .     S
Br103  C121    1.938   .     S
Br104  C398    1.950   1_545 S
C105   O131    1.298   .     A
C105   C122    1.406   .     S
C105   O129    1.282   .     A
C106   C117    1.392   .     A
C106   C108    1.387   .     A
C107   C126    1.387   .     A
C107   C109    1.400   .     A
C107   C125    1.427   .     S
C108   C110    1.400   .     A
C108   C124    1.427   .     S
C109   C111    1.413   .     A
C110   C112    1.413   .     A
C111   C113    1.432   .     A
C111   C118    1.420   .     A
C112   C119    1.420   .     A
C112   C114    1.432   .     A
C113   C115    1.417   .     A
C113   C528    1.408   1_554 S
C114   C117    1.417   .     A
C114   C527    1.408   .     S
C115   C126    1.392   .     A
C115   C121    1.403   .     A
C116   O130    1.282   .     A
C116   C123    1.407   .     S
C116   O132    1.298   .     A
C117   C120    1.403   .     A
C118   C534    1.387   1_554 S
C119   C535    1.387   .     S
C120   C532    1.387   .     S
C121   C533    1.387   1_554 S
C122   Br242   1.950   .     S
C122   C261    1.356   .     S
C123   C398    1.356   1_545 S
C123   Br370   1.950   1_545 S
C124   O133    1.292   .     A
C124   O135    1.294   .     A
C125   O134    1.292   .     A
C125   O136    1.294   .     A
N127   Zn138   2.035   .     S
N127   Br3     1.872   1_655 S
N127   N36     1.279   1_655 S
N128   Zn137   2.035   .     S
O129   Zn137   1.979   .     S
O130   Zn138   1.979   .     S
O131   Zn138   1.993   .     S
O132   Zn137   1.993   .     S
O133   Zn137   2.001   .     S
O134   Zn138   2.001   .     S
O135   Zn138   2.022   .     S
O136   Zn137   2.022   .     S
Br139  C172    1.943   .     S
Br140  C307    1.950   .     S
Br141  N265    1.872   1_455 S
Br142  N220    1.872   .     S
Br143  C152    1.943   .     S
Br144  C155    1.945   .     S
Br145  C156    1.945   .     S
Br146  C164    1.932   .     S
Br147  C165    1.932   .     S
Br148  C166    1.938   .     S
Br149  C167    1.938   .     S
C151   O177    1.298   .     A
C151   C168    1.406   .     S
C151   O175    1.282   .     A
C152   C163    1.392   .     A
C152   C154    1.387   .     A
C153   C172    1.387   .     A
C153   C155    1.400   .     A
C153   C171    1.427   .     S
C154   C156    1.400   .     A
C154   C170    1.427   .     S
C155   C157    1.413   .     A
C156   C158    1.413   .     A
C157   C159    1.432   .     A
C157   C164    1.420   .     A
C158   C165    1.420   .     A
C158   C160    1.432   .     A
C159   C161    1.417   .     A
C159   C574    1.408   1_554 S
C160   C163    1.417   .     A
C160   C573    1.408   .     S
C161   C172    1.392   .     A
C161   C167    1.403   .     A
C162   O176    1.282   .     A
C162   C169    1.407   .     S
C162   O178    1.298   .     A
C163   C166    1.403   .     A
C164   C580    1.387   1_554 S
C165   C581    1.387   .     S
C166   C578    1.387   .     S
C167   C579    1.387   1_554 S
C168   Br288   1.950   .     S
C168   C307    1.356   .     S
C170   O179    1.292   .     A
C170   O181    1.294   .     A
C171   O180    1.292   .     A
C171   O182    1.294   .     A
N173   Zn184   2.035   .     S
N173   Br187   1.872   .     S
N173   N220    1.279   .     S
N174   Zn183   2.035   .     S
N174   N265    1.279   1_455 S
N174   Br234   1.872   1_455 S
O175   Zn183   1.979   .     S
O176   Zn184   1.979   .     S
O177   Zn184   1.993   .     S
O178   Zn183   1.993   .     S
O179   Zn183   2.001   .     S
O180   Zn184   2.001   .     S
O181   Zn184   2.022   .     S
O182   Zn183   2.022   .     S
Br185  C218    1.943   .     S
Br186  C353    1.950   .     S
Br188  N266    1.872   .     S
Br189  C198    1.943   .     S
Br190  C201    1.945   .     S
Br191  C202    1.945   .     S
Br192  C210    1.932   .     S
Br193  C211    1.932   .     S
Br194  C212    1.938   .     S
Br195  C213    1.938   .     S
C197   O223    1.298   .     A
C197   C214    1.406   .     S
C197   O221    1.282   .     A
C198   C209    1.392   .     A
C198   C200    1.387   .     A
C199   C218    1.387   .     A
C199   C201    1.400   .     A
C199   C217    1.427   .     S
C200   C202    1.400   .     A
C200   C216    1.427   .     S
C201   C203    1.413   .     A
C202   C204    1.413   .     A
C203   C205    1.432   .     A
C203   C210    1.420   .     A
C204   C211    1.420   .     A
C204   C206    1.432   .     A
C205   C207    1.417   .     A
C205   C620    1.408   1_554 S
C206   C209    1.417   .     A
C206   C619    1.408   .     S
C207   C218    1.392   .     A
C207   C213    1.403   .     A
C208   O222    1.282   .     A
C208   C215    1.407   .     S
C208   O224    1.298   .     A
C209   C212    1.403   .     A
C210   C626    1.387   1_554 S
C211   C627    1.387   .     S
C212   C624    1.387   .     S
C213   C625    1.387   1_554 S
C214   Br334   1.950   .     S
C214   C353    1.356   .     S
C216   O225    1.292   .     A
C216   O227    1.294   .     A
C217   O226    1.292   .     A
C217   O228    1.294   .     A
N219   Zn230   2.035   .     S
N219   Br233   1.872   .     S
N219   N266    1.279   .     S
N220   Zn229   2.035   .     S
O221   Zn229   1.979   .     S
O222   Zn230   1.979   .     S
O223   Zn230   1.993   .     S
O224   Zn229   1.993   .     S
O225   Zn229   2.001   .     S
O226   Zn230   2.001   .     S
O227   Zn230   2.022   .     S
O228   Zn229   2.022   .     S
Br231  C264    1.943   .     S
Br232  C399    1.950   .     S
Br234  N174    1.872   1_655 S
Br235  C244    1.943   .     S
Br236  C247    1.945   .     S
Br237  C248    1.945   .     S
Br238  C256    1.932   .     S
Br239  C257    1.932   .     S
Br240  C258    1.938   .     S
Br241  C259    1.938   .     S
C243   O269    1.298   .     A
C243   C260    1.406   .     S
C243   O267    1.282   .     A
C244   C255    1.392   .     A
C244   C246    1.387   .     A
C245   C264    1.387   .     A
C245   C247    1.400   .     A
C245   C263    1.427   .     S
C246   C248    1.400   .     A
C246   C262    1.427   .     S
C247   C249    1.413   .     A
C248   C250    1.413   .     A
C249   C251    1.432   .     A
C249   C256    1.420   .     A
C250   C257    1.420   .     A
C250   C252    1.432   .     A
C251   C253    1.417   .     A
C251   C666    1.408   1_554 S
C252   C255    1.417   .     A
C252   C665    1.408   .     S
C253   C264    1.392   .     A
C253   C259    1.403   .     A
C254   O268    1.282   .     A
C254   C261    1.407   .     S
C254   O270    1.298   .     A
C255   C258    1.403   .     A
C256   C672    1.387   1_554 S
C257   C673    1.387   .     S
C258   C670    1.387   .     S
C259   C671    1.387   1_554 S
C260   Br380   1.950   .     S
C260   C399    1.356   .     S
C262   O271    1.292   .     A
C262   O273    1.294   .     A
C263   O272    1.292   .     A
C263   O274    1.294   .     A
N265   Zn276   2.035   .     S
N265   Br141   1.872   1_655 S
N265   N174    1.279   1_655 S
N266   Zn275   2.035   .     S
O267   Zn275   1.979   .     S
O268   Zn276   1.979   .     S
O269   Zn276   1.993   .     S
O270   Zn275   1.993   .     S
O271   Zn275   2.001   .     S
O272   Zn276   2.001   .     S
O273   Zn276   2.022   .     S
O274   Zn275   2.022   .     S
Br277  C310    1.943   .     S
Br278  C31     1.950   1_565 S
Br279  N403    1.872   1_455 S
Br280  N358    1.872   .     S
Br281  C290    1.943   .     S
Br282  C293    1.945   .     S
Br283  C294    1.945   .     S
Br284  C302    1.932   .     S
Br285  C303    1.932   .     S
Br286  C304    1.938   .     S
Br287  C305    1.938   .     S
C289   O315    1.298   .     A
C289   C306    1.406   .     S
C289   O313    1.282   .     A
C290   C301    1.392   .     A
C290   C292    1.387   .     A
C291   C310    1.387   .     A
C291   C293    1.400   .     A
C291   C309    1.427   .     S
C292   C294    1.400   .     A
C292   C308    1.427   .     S
C293   C295    1.413   .     A
C294   C296    1.413   .     A
C295   C297    1.432   .     A
C295   C302    1.420   .     A
C296   C303    1.420   .     A
C296   C298    1.432   .     A
C297   C299    1.417   .     A
C297   C712    1.408   1_554 S
C298   C301    1.417   .     A
C298   C711    1.408   .     S
C299   C310    1.392   .     A
C299   C305    1.403   .     A
C300   O314    1.282   .     A
C300   C307    1.407   .     S
C300   O316    1.298   .     A
C301   C304    1.403   .     A
C302   C718    1.387   1_554 S
C303   C719    1.387   .     S
C304   C716    1.387   .     S
C305   C717    1.387   1_554 S
C306   Br12    1.950   1_565 S
C306   C31     1.356   1_565 S
C308   O317    1.292   .     A
C308   O319    1.294   .     A
C309   O318    1.292   .     A
C309   O320    1.294   .     A
N311   Zn322   2.035   .     S
N311   Br325   1.872   .     S
N311   N358    1.279   .     S
N312   Zn321   2.035   .     S
N312   N403    1.279   1_455 S
N312   Br372   1.872   1_455 S
O313   Zn321   1.979   .     S
O314   Zn322   1.979   .     S
O315   Zn322   1.993   .     S
O316   Zn321   1.993   .     S
O317   Zn321   2.001   .     S
O318   Zn322   2.001   .     S
O319   Zn322   2.022   .     S
O320   Zn321   2.022   .     S
Br323  C356    1.943   .     S
Br324  C77     1.950   1_565 S
Br326  N404    1.872   .     S
Br327  C336    1.943   .     S
Br328  C339    1.945   .     S
Br329  C340    1.945   .     S
Br330  C348    1.932   .     S
Br331  C349    1.932   .     S
Br332  C350    1.938   .     S
Br333  C351    1.938   .     S
C335   O361    1.298   .     A
C335   C352    1.406   .     S
C335   O359    1.282   .     A
C336   C347    1.392   .     A
C336   C338    1.387   .     A
C337   C356    1.387   .     A
C337   C339    1.400   .     A
C337   C355    1.427   .     S
C338   C340    1.400   .     A
C338   C354    1.427   .     S
C339   C341    1.413   .     A
C340   C342    1.413   .     A
C341   C343    1.432   .     A
C341   C348    1.420   .     A
C342   C349    1.420   .     A
C342   C344    1.432   .     A
C343   C345    1.417   .     A
C343   C758    1.408   1_554 S
C344   C347    1.417   .     A
C344   C757    1.408   .     S
C345   C356    1.392   .     A
C345   C351    1.403   .     A
C346   O360    1.282   .     A
C346   C353    1.407   .     S
C346   O362    1.298   .     A
C347   C350    1.403   .     A
C348   C764    1.387   1_554 S
C349   C765    1.387   .     S
C350   C762    1.387   .     S
C351   C763    1.387   1_554 S
C352   Br58    1.950   1_565 S
C352   C77     1.356   1_565 S
C354   O363    1.292   .     A
C354   O365    1.294   .     A
C355   O364    1.292   .     A
C355   O366    1.294   .     A
N357   Zn368   2.035   .     S
N357   Br371   1.872   .     S
N357   N404    1.279   .     S
N358   Zn367   2.035   .     S
O359   Zn367   1.979   .     S
O360   Zn368   1.979   .     S
O361   Zn368   1.993   .     S
O362   Zn367   1.993   .     S
O363   Zn367   2.001   .     S
O364   Zn368   2.001   .     S
O365   Zn368   2.022   .     S
O366   Zn367   2.022   .     S
Br369  C402    1.943   .     S
Br370  C123    1.950   1_565 S
Br372  N312    1.872   1_655 S
Br373  C382    1.943   .     S
Br374  C385    1.945   .     S
Br375  C386    1.945   .     S
Br376  C394    1.932   .     S
Br377  C395    1.932   .     S
Br378  C396    1.938   .     S
Br379  C397    1.938   .     S
C381   O407    1.298   .     A
C381   C398    1.406   .     S
C381   O405    1.282   .     A
C382   C393    1.392   .     A
C382   C384    1.387   .     A
C383   C402    1.387   .     A
C383   C385    1.400   .     A
C383   C401    1.427   .     S
C384   C386    1.400   .     A
C384   C400    1.427   .     S
C385   C387    1.413   .     A
C386   C388    1.413   .     A
C387   C389    1.432   .     A
C387   C394    1.420   .     A
C388   C395    1.420   .     A
C388   C390    1.432   .     A
C389   C391    1.417   .     A
C389   C804    1.408   1_554 S
C390   C393    1.417   .     A
C390   C803    1.408   .     S
C391   C402    1.392   .     A
C391   C397    1.403   .     A
C392   O406    1.282   .     A
C392   C399    1.407   .     S
C392   O408    1.298   .     A
C393   C396    1.403   .     A
C394   C810    1.387   1_554 S
C395   C811    1.387   .     S
C396   C808    1.387   .     S
C397   C809    1.387   1_554 S
C398   Br104   1.950   1_565 S
C398   C123    1.356   1_565 S
C400   O409    1.292   .     A
C400   O411    1.294   .     A
C401   O410    1.292   .     A
C401   O412    1.294   .     A
N403   Zn414   2.035   .     S
N403   Br279   1.872   1_655 S
N403   N312    1.279   1_655 S
N404   Zn413   2.035   .     S
O405   Zn413   1.979   .     S
O406   Zn414   1.979   .     S
O407   Zn414   1.993   .     S
O408   Zn413   1.993   .     S
O409   Zn413   2.001   .     S
O410   Zn414   2.001   .     S
O411   Zn414   2.022   .     S
O412   Zn413   2.022   .     S
Br415  C448    1.943   .     S
Br416  C583    1.950   .     S
Br417  N541    1.872   1_455 S
Br418  N496    1.872   .     S
Br419  C428    1.943   .     S
Br420  C431    1.945   .     S
Br421  C432    1.945   .     S
Br422  C440    1.932   .     S
Br423  C441    1.932   .     S
Br424  C442    1.938   .     S
Br425  C443    1.938   .     S
Br426  C720    1.950   1_545 S
C427   O453    1.298   .     A
C427   C444    1.406   .     S
C427   O451    1.282   .     A
C428   C439    1.392   .     A
C428   C430    1.387   .     A
C429   C448    1.387   .     A
C429   C431    1.400   .     A
C429   C447    1.427   .     S
C430   C432    1.400   .     A
C430   C446    1.427   .     S
C431   C433    1.413   .     A
C432   C434    1.413   .     A
C433   C435    1.432   .     A
C433   C440    1.420   .     A
C434   C441    1.420   .     A
C434   C436    1.432   .     A
C435   C437    1.417   .     A
C436   C439    1.417   .     A
C436   C21     1.408   1_556 S
C437   C448    1.392   .     A
C437   C443    1.403   .     A
C438   O452    1.282   .     A
C438   C445    1.407   .     S
C438   O454    1.298   .     A
C439   C442    1.403   .     A
C441   C29     1.387   1_556 S
C442   C26     1.387   1_556 S
C444   Br564   1.950   .     S
C444   C583    1.356   .     S
C445   C720    1.356   1_545 S
C445   Br692   1.950   1_545 S
C446   O455    1.292   .     A
C446   O457    1.294   .     A
C447   O456    1.292   .     A
C447   O458    1.294   .     A
N449   Zn460   2.035   .     S
N449   Br463   1.872   .     S
N449   N496    1.279   .     S
N450   Zn459   2.035   .     S
N450   N541    1.279   1_455 S
N450   Br510   1.872   1_455 S
O451   Zn459   1.979   .     S
O452   Zn460   1.979   .     S
O453   Zn460   1.993   .     S
O454   Zn459   1.993   .     S
O455   Zn459   2.001   .     S
O456   Zn460   2.001   .     S
O457   Zn460   2.022   .     S
O458   Zn459   2.022   .     S
Br461  C494    1.943   .     S
Br462  C629    1.950   .     S
Br464  N542    1.872   .     S
Br465  C474    1.943   .     S
Br466  C477    1.945   .     S
Br467  C478    1.945   .     S
Br468  C486    1.932   .     S
Br469  C487    1.932   .     S
Br470  C488    1.938   .     S
Br471  C489    1.938   .     S
Br472  C766    1.950   1_545 S
C473   O499    1.298   .     A
C473   C490    1.406   .     S
C473   O497    1.282   .     A
C474   C485    1.392   .     A
C474   C476    1.387   .     A
C475   C494    1.387   .     A
C475   C477    1.400   .     A
C475   C493    1.427   .     S
C476   C478    1.400   .     A
C476   C492    1.427   .     S
C477   C479    1.413   .     A
C478   C480    1.413   .     A
C479   C481    1.432   .     A
C479   C486    1.420   .     A
C480   C487    1.420   .     A
C480   C482    1.432   .     A
C481   C483    1.417   .     A
C482   C485    1.417   .     A
C482   C67     1.408   1_556 S
C483   C494    1.392   .     A
C483   C489    1.403   .     A
C484   O498    1.282   .     A
C484   C491    1.407   .     S
C484   O500    1.298   .     A
C485   C488    1.403   .     A
C487   C75     1.387   1_556 S
C488   C72     1.387   1_556 S
C490   Br610   1.950   .     S
C490   C629    1.356   .     S
C491   C766    1.356   1_545 S
C491   Br738   1.950   1_545 S
C492   O501    1.292   .     A
C492   O503    1.294   .     A
C493   O502    1.292   .     A
C493   O504    1.294   .     A
N495   Zn506   2.035   .     S
N495   Br509   1.872   .     S
N495   N542    1.279   .     S
N496   Zn505   2.035   .     S
O497   Zn505   1.979   .     S
O498   Zn506   1.979   .     S
O499   Zn506   1.993   .     S
O500   Zn505   1.993   .     S
O501   Zn505   2.001   .     S
O502   Zn506   2.001   .     S
O503   Zn506   2.022   .     S
O504   Zn505   2.022   .     S
Br507  C540    1.943   .     S
Br508  C675    1.950   .     S
Br510  N450    1.872   1_655 S
Br511  C520    1.943   .     S
Br512  C523    1.945   .     S
Br513  C524    1.945   .     S
Br514  C532    1.932   .     S
Br515  C533    1.932   .     S
Br516  C534    1.938   .     S
Br517  C535    1.938   .     S
Br518  C812    1.950   1_545 S
C519   O545    1.298   .     A
C519   C536    1.406   .     S
C519   O543    1.282   .     A
C520   C531    1.392   .     A
C520   C522    1.387   .     A
C521   C540    1.387   .     A
C521   C523    1.400   .     A
C521   C539    1.427   .     S
C522   C524    1.400   .     A
C522   C538    1.427   .     S
C523   C525    1.413   .     A
C524   C526    1.413   .     A
C525   C527    1.432   .     A
C525   C532    1.420   .     A
C526   C533    1.420   .     A
C526   C528    1.432   .     A
C527   C529    1.417   .     A
C528   C531    1.417   .     A
C528   C113    1.408   1_556 S
C529   C540    1.392   .     A
C529   C535    1.403   .     A
C530   O544    1.282   .     A
C530   C537    1.407   .     S
C530   O546    1.298   .     A
C531   C534    1.403   .     A
C533   C121    1.387   1_556 S
C534   C118    1.387   1_556 S
C536   Br656   1.950   .     S
C536   C675    1.356   .     S
C537   C812    1.356   1_545 S
C537   Br784   1.950   1_545 S
C538   O547    1.292   .     A
C538   O549    1.294   .     A
C539   O548    1.292   .     A
C539   O550    1.294   .     A
N541   Zn552   2.035   .     S
N541   Br417   1.872   1_655 S
N541   N450    1.279   1_655 S
N542   Zn551   2.035   .     S
O543   Zn551   1.979   .     S
O544   Zn552   1.979   .     S
O545   Zn552   1.993   .     S
O546   Zn551   1.993   .     S
O547   Zn551   2.001   .     S
O548   Zn552   2.001   .     S
O549   Zn552   2.022   .     S
O550   Zn551   2.022   .     S
Br553  C586    1.943   .     S
Br554  C721    1.950   .     S
Br555  N679    1.872   1_455 S
Br556  N634    1.872   .     S
Br557  C566    1.943   .     S
Br558  C569    1.945   .     S
Br559  C570    1.945   .     S
Br560  C578    1.932   .     S
Br561  C579    1.932   .     S
Br562  C580    1.938   .     S
Br563  C581    1.938   .     S
C565   O591    1.298   .     A
C565   C582    1.406   .     S
C565   O589    1.282   .     A
C566   C577    1.392   .     A
C566   C568    1.387   .     A
C567   C586    1.387   .     A
C567   C569    1.400   .     A
C567   C585    1.427   .     S
C568   C570    1.400   .     A
C568   C584    1.427   .     S
C569   C571    1.413   .     A
C570   C572    1.413   .     A
C571   C573    1.432   .     A
C571   C578    1.420   .     A
C572   C579    1.420   .     A
C572   C574    1.432   .     A
C573   C575    1.417   .     A
C574   C577    1.417   .     A
C574   C159    1.408   1_556 S
C575   C586    1.392   .     A
C575   C581    1.403   .     A
C576   O590    1.282   .     A
C576   C583    1.407   .     S
C576   O592    1.298   .     A
C577   C580    1.403   .     A
C579   C167    1.387   1_556 S
C580   C164    1.387   1_556 S
C582   Br702   1.950   .     S
C582   C721    1.356   .     S
C584   O593    1.292   .     A
C584   O595    1.294   .     A
C585   O594    1.292   .     A
C585   O596    1.294   .     A
N587   Zn598   2.035   .     S
N587   Br601   1.872   .     S
N587   N634    1.279   .     S
N588   Zn597   2.035   .     S
N588   N679    1.279   1_455 S
N588   Br648   1.872   1_455 S
O589   Zn597   1.979   .     S
O590   Zn598   1.979   .     S
O591   Zn598   1.993   .     S
O592   Zn597   1.993   .     S
O593   Zn597   2.001   .     S
O594   Zn598   2.001   .     S
O595   Zn598   2.022   .     S
O596   Zn597   2.022   .     S
Br599  C632    1.943   .     S
Br600  C767    1.950   .     S
Br602  N680    1.872   .     S
Br603  C612    1.943   .     S
Br604  C615    1.945   .     S
Br605  C616    1.945   .     S
Br606  C624    1.932   .     S
Br607  C625    1.932   .     S
Br608  C626    1.938   .     S
Br609  C627    1.938   .     S
C611   O637    1.298   .     A
C611   C628    1.406   .     S
C611   O635    1.282   .     A
C612   C623    1.392   .     A
C612   C614    1.387   .     A
C613   C632    1.387   .     A
C613   C615    1.400   .     A
C613   C631    1.427   .     S
C614   C616    1.400   .     A
C614   C630    1.427   .     S
C615   C617    1.413   .     A
C616   C618    1.413   .     A
C617   C619    1.432   .     A
C617   C624    1.420   .     A
C618   C625    1.420   .     A
C618   C620    1.432   .     A
C619   C621    1.417   .     A
C620   C623    1.417   .     A
C620   C205    1.408   1_556 S
C621   C632    1.392   .     A
C621   C627    1.403   .     A
C622   O636    1.282   .     A
C622   C629    1.407   .     S
C622   O638    1.298   .     A
C623   C626    1.403   .     A
C625   C213    1.387   1_556 S
C626   C210    1.387   1_556 S
C628   Br748   1.950   .     S
C628   C767    1.356   .     S
C630   O639    1.292   .     A
C630   O641    1.294   .     A
C631   O640    1.292   .     A
C631   O642    1.294   .     A
N633   Zn644   2.035   .     S
N633   Br647   1.872   .     S
N633   N680    1.279   .     S
N634   Zn643   2.035   .     S
O635   Zn643   1.979   .     S
O636   Zn644   1.979   .     S
O637   Zn644   1.993   .     S
O638   Zn643   1.993   .     S
O639   Zn643   2.001   .     S
O640   Zn644   2.001   .     S
O641   Zn644   2.022   .     S
O642   Zn643   2.022   .     S
Br645  C678    1.943   .     S
Br646  C813    1.950   .     S
Br648  N588    1.872   1_655 S
Br649  C658    1.943   .     S
Br650  C661    1.945   .     S
Br651  C662    1.945   .     S
Br652  C670    1.932   .     S
Br653  C671    1.932   .     S
Br654  C672    1.938   .     S
Br655  C673    1.938   .     S
C657   O683    1.298   .     A
C657   C674    1.406   .     S
C657   O681    1.282   .     A
C658   C669    1.392   .     A
C658   C660    1.387   .     A
C659   C678    1.387   .     A
C659   C661    1.400   .     A
C659   C677    1.427   .     S
C660   C662    1.400   .     A
C660   C676    1.427   .     S
C661   C663    1.413   .     A
C662   C664    1.413   .     A
C663   C665    1.432   .     A
C663   C670    1.420   .     A
C664   C671    1.420   .     A
C664   C666    1.432   .     A
C665   C667    1.417   .     A
C666   C669    1.417   .     A
C666   C251    1.408   1_556 S
C667   C678    1.392   .     A
C667   C673    1.403   .     A
C668   O682    1.282   .     A
C668   C675    1.407   .     S
C668   O684    1.298   .     A
C669   C672    1.403   .     A
C671   C259    1.387   1_556 S
C672   C256    1.387   1_556 S
C674   Br794   1.950   .     S
C674   C813    1.356   .     S
C676   O685    1.292   .     A
C676   O687    1.294   .     A
C677   O686    1.292   .     A
C677   O688    1.294   .     A
N679   Zn690   2.035   .     S
N679   Br555   1.872   1_655 S
N679   N588    1.279   1_655 S
N680   Zn689   2.035   .     S
O681   Zn689   1.979   .     S
O682   Zn690   1.979   .     S
O683   Zn690   1.993   .     S
O684   Zn689   1.993   .     S
O685   Zn689   2.001   .     S
O686   Zn690   2.001   .     S
O687   Zn690   2.022   .     S
O688   Zn689   2.022   .     S
Br691  C724    1.943   .     S
Br692  C445    1.950   1_565 S
Br693  N817    1.872   1_455 S
Br694  N772    1.872   .     S
Br695  C704    1.943   .     S
Br696  C707    1.945   .     S
Br697  C708    1.945   .     S
Br698  C716    1.932   .     S
Br699  C717    1.932   .     S
Br700  C718    1.938   .     S
Br701  C719    1.938   .     S
C703   O729    1.298   .     A
C703   C720    1.406   .     S
C703   O727    1.282   .     A
C704   C715    1.392   .     A
C704   C706    1.387   .     A
C705   C724    1.387   .     A
C705   C707    1.400   .     A
C705   C723    1.427   .     S
C706   C708    1.400   .     A
C706   C722    1.427   .     S
C707   C709    1.413   .     A
C708   C710    1.413   .     A
C709   C711    1.432   .     A
C709   C716    1.420   .     A
C710   C717    1.420   .     A
C710   C712    1.432   .     A
C711   C713    1.417   .     A
C712   C715    1.417   .     A
C712   C297    1.408   1_556 S
C713   C724    1.392   .     A
C713   C719    1.403   .     A
C714   O728    1.282   .     A
C714   C721    1.407   .     S
C714   O730    1.298   .     A
C715   C718    1.403   .     A
C717   C305    1.387   1_556 S
C718   C302    1.387   1_556 S
C720   Br426   1.950   1_565 S
C720   C445    1.356   1_565 S
C722   O731    1.292   .     A
C722   O733    1.294   .     A
C723   O732    1.292   .     A
C723   O734    1.294   .     A
N725   Zn736   2.035   .     S
N725   Br739   1.872   .     S
N725   N772    1.279   .     S
N726   Zn735   2.035   .     S
N726   N817    1.279   1_455 S
N726   Br786   1.872   1_455 S
O727   Zn735   1.979   .     S
O728   Zn736   1.979   .     S
O729   Zn736   1.993   .     S
O730   Zn735   1.993   .     S
O731   Zn735   2.001   .     S
O732   Zn736   2.001   .     S
O733   Zn736   2.022   .     S
O734   Zn735   2.022   .     S
Br737  C770    1.943   .     S
Br738  C491    1.950   1_565 S
Br740  N818    1.872   .     S
Br741  C750    1.943   .     S
Br742  C753    1.945   .     S
Br743  C754    1.945   .     S
Br744  C762    1.932   .     S
Br745  C763    1.932   .     S
Br746  C764    1.938   .     S
Br747  C765    1.938   .     S
C749   O775    1.298   .     A
C749   C766    1.406   .     S
C749   O773    1.282   .     A
C750   C761    1.392   .     A
C750   C752    1.387   .     A
C751   C770    1.387   .     A
C751   C753    1.400   .     A
C751   C769    1.427   .     S
C752   C754    1.400   .     A
C752   C768    1.427   .     S
C753   C755    1.413   .     A
C754   C756    1.413   .     A
C755   C757    1.432   .     A
C755   C762    1.420   .     A
C756   C763    1.420   .     A
C756   C758    1.432   .     A
C757   C759    1.417   .     A
C758   C761    1.417   .     A
C758   C343    1.408   1_556 S
C759   C770    1.392   .     A
C759   C765    1.403   .     A
C760   O774    1.282   .     A
C760   C767    1.407   .     S
C760   O776    1.298   .     A
C761   C764    1.403   .     A
C763   C351    1.387   1_556 S
C764   C348    1.387   1_556 S
C766   Br472   1.950   1_565 S
C766   C491    1.356   1_565 S
C768   O777    1.292   .     A
C768   O779    1.294   .     A
C769   O778    1.292   .     A
C769   O780    1.294   .     A
N771   Zn782   2.035   .     S
N771   Br785   1.872   .     S
N771   N818    1.279   .     S
N772   Zn781   2.035   .     S
O773   Zn781   1.979   .     S
O774   Zn782   1.979   .     S
O775   Zn782   1.993   .     S
O776   Zn781   1.993   .     S
O777   Zn781   2.001   .     S
O778   Zn782   2.001   .     S
O779   Zn782   2.022   .     S
O780   Zn781   2.022   .     S
Br783  C816    1.943   .     S
Br784  C537    1.950   1_565 S
Br786  N726    1.872   1_655 S
Br787  C796    1.943   .     S
Br788  C799    1.945   .     S
Br789  C800    1.945   .     S
Br790  C808    1.932   .     S
Br791  C809    1.932   .     S
Br792  C810    1.938   .     S
Br793  C811    1.938   .     S
C795   O821    1.298   .     A
C795   C812    1.406   .     S
C795   O819    1.282   .     A
C796   C807    1.392   .     A
C796   C798    1.387   .     A
C797   C816    1.387   .     A
C797   C799    1.400   .     A
C797   C815    1.427   .     S
C798   C800    1.400   .     A
C798   C814    1.427   .     S
C799   C801    1.413   .     A
C800   C802    1.413   .     A
C801   C803    1.432   .     A
C801   C808    1.420   .     A
C802   C809    1.420   .     A
C802   C804    1.432   .     A
C803   C805    1.417   .     A
C804   C807    1.417   .     A
C804   C389    1.408   1_556 S
C805   C816    1.392   .     A
C805   C811    1.403   .     A
C806   O820    1.282   .     A
C806   C813    1.407   .     S
C806   O822    1.298   .     A
C807   C810    1.403   .     A
C809   C397    1.387   1_556 S
C810   C394    1.387   1_556 S
C812   Br518   1.950   1_565 S
C812   C537    1.356   1_565 S
C814   O823    1.292   .     A
C814   O825    1.294   .     A
C815   O824    1.292   .     A
C815   O826    1.294   .     A
N817   Zn828   2.035   .     S
N817   Br693   1.872   1_655 S
N817   N726    1.279   1_655 S
N818   Zn827   2.035   .     S
O819   Zn827   1.979   .     S
O820   Zn828   1.979   .     S
O821   Zn828   1.993   .     S
O822   Zn827   1.993   .     S
O823   Zn827   2.001   .     S
O824   Zn828   2.001   .     S
O825   Zn828   2.022   .     S
O826   Zn827   2.022   .     S
