data_str_m3_o1_o2_pcu_sym.59
_audit_creation_date              2020-01-03
_audit_creation_method            'Materials Studio'
_symmetry_space_group_name_H-M    'P1'
_symmetry_Int_Tables_number       1
_symmetry_cell_setting            triclinic
loop_
_symmetry_equiv_pos_as_xyz
  x,y,z
_cell_length_a                    32.0781
_cell_length_b                    29.9475
_cell_length_c                    29.9287
_cell_angle_alpha                 89.6944
_cell_angle_beta                  92.5784
_cell_angle_gamma                 89.6990
loop_
_atom_site_label
_atom_site_type_symbol
_atom_site_fract_x
_atom_site_fract_y
_atom_site_fract_z
_atom_site_U_iso_or_equiv
_atom_site_adp_type
_atom_site_occupancy
C1     C     0.08690   0.16675   0.24991   0.00000  Uiso   1.00
C2     C     0.31039   0.19583   0.22075   0.00000  Uiso   1.00
C3     C     0.31317   0.13855   0.28006   0.00000  Uiso   1.00
C4     C     0.02046   0.19450   0.21954   0.00000  Uiso   1.00
C5     C     0.20086   0.17246   0.04785   0.00000  Uiso   1.00
C6     C     0.13406   0.19170   0.45085   0.00000  Uiso   1.00
C7     C     0.19104   0.13790   0.45546   0.00000  Uiso   1.00
C8     C     0.12578   0.16130   0.04676   0.00000  Uiso   1.00
C9     C     0.20294   0.17196   0.09403   0.00000  Uiso   1.00
C10    C     0.13553   0.19252   0.40436   0.00000  Uiso   1.00
C11    C     0.19414   0.13930   0.40965   0.00000  Uiso   1.00
C12    C     0.24651   0.16660   0.25005   0.00000  Uiso   1.00
C13    C     0.12693   0.16155   0.09337   0.00000  Uiso   1.00
C14    C     0.16556   0.16679   0.11661   0.00000  Uiso   1.00
C15    C     0.16584   0.16643   0.38393   0.00000  Uiso   1.00
C16    C     0.16269   0.16644   0.02434   0.00000  Uiso   1.00
C17    C     0.16198   0.16478   0.47607   0.00000  Uiso   1.00
C18    C     0.29082   0.16650   0.24977   0.00000  Uiso   1.00
C19    C     0.04273   0.16694   0.25017   0.00000  Uiso   1.00
C20    C     0.16619   0.16675   0.16433   0.00000  Uiso   1.00
C21    C     0.16661   0.16659   0.33588   0.00000  Uiso   1.00
C22    C     0.19544   0.02331   0.27574   0.00000  Uiso   1.00
C23    C     0.13788   0.30999   0.22423   0.00000  Uiso   1.00
C24    C     0.13783   0.02393   0.22427   0.00000  Uiso   1.00
C25    C     0.19549   0.30940   0.27573   0.00000  Uiso   1.00
C26    C     0.02329   0.13815   0.27969   0.00000  Uiso   1.00
H27    H     0.22932   0.17694   0.03018   0.00000  Uiso   1.00
H28    H     0.08848   0.23384   0.39798   0.00000  Uiso   1.00
H29    H     0.23308   0.12902   0.36317   0.00000  Uiso   1.00
H30    H     0.06684   0.15347   0.09547   0.00000  Uiso   1.00
H31    H     0.03190   0.08256   0.31274   0.00000  Uiso   1.00
H32    H     0.30307   0.25216   0.18861   0.00000  Uiso   1.00
H33    H     0.30961   0.11024   0.33845   0.00000  Uiso   1.00
H34    H     0.02344   0.22187   0.16062   0.00000  Uiso   1.00
H35    H     0.11177   0.21249   0.46740   0.00000  Uiso   1.00
H36    H     0.21253   0.11693   0.47528   0.00000  Uiso   1.00
H37    H     0.09646   0.15646   0.02802   0.00000  Uiso   1.00
H38    H     0.21771   0.07517   0.30529   0.00000  Uiso   1.00
H39    H     0.11571   0.25812   0.19421   0.00000  Uiso   1.00
H40    H     0.11512   0.07633   0.19428   0.00000  Uiso   1.00
H41    H     0.21820   0.25699   0.30571   0.00000  Uiso   1.00
H42    H     0.24018   0.16902   0.14745   0.00000  Uiso   1.00
N43    N     0.16667   0.28573   0.25000   0.00000  Uiso   1.00
N44    N     0.16667   0.04760   0.25000   0.00000  Uiso   1.00
O45    O     0.10559   0.20487   0.25000   0.00000  Uiso   1.00
O46    O     0.10820   0.28970   0.19683   0.00000  Uiso   1.00
O47    O     0.10787   0.04477   0.19708   0.00000  Uiso   1.00
O48    O     0.22545   0.28856   0.30292   0.00000  Uiso   1.00
O49    O     0.24186   0.17607   0.11529   0.00000  Uiso   1.00
O50    O     0.10765   0.21795   0.37830   0.00000  Uiso   1.00
O51    O     0.22586   0.11493   0.39171   0.00000  Uiso   1.00
O52    O     0.09112   0.15654   0.11692   0.00000  Uiso   1.00
O53    O     0.04750   0.11043   0.30754   0.00000  Uiso   1.00
O54    O     0.28646   0.22510   0.19435   0.00000  Uiso   1.00
O55    O     0.29182   0.11404   0.31077   0.00000  Uiso   1.00
O56    O     0.22774   0.12846   0.25001   0.00000  Uiso   1.00
O57    O     0.04184   0.21773   0.18781   0.00000  Uiso   1.00
O58    O     0.22774   0.20487   0.25001   0.00000  Uiso   1.00
O59    O     0.10559   0.12846   0.25000   0.00000  Uiso   1.00
O60    O     0.16666   0.20489   0.18453   0.00000  Uiso   1.00
O61    O     0.16667   0.12845   0.31547   0.00000  Uiso   1.00
O62    O     0.16667   0.20489   0.31547   0.00000  Uiso   1.00
O63    O     0.16666   0.12845   0.18453   0.00000  Uiso   1.00
O64    O     0.22511   0.04357   0.30312   0.00000  Uiso   1.00
Zn65   Zn    0.16667   0.21771   0.25000   0.00000  Uiso   1.00
Zn66   Zn    0.16667   0.11563   0.25000   0.00000  Uiso   1.00
C67    C     0.42024   0.16675   0.24991   0.00000  Uiso   1.00
C68    C     0.64373   0.19583   0.22075   0.00000  Uiso   1.00
C69    C     0.64651   0.13855   0.28006   0.00000  Uiso   1.00
C70    C     0.35379   0.19450   0.21954   0.00000  Uiso   1.00
C71    C     0.53419   0.17246   0.04785   0.00000  Uiso   1.00
C72    C     0.46739   0.19170   0.45085   0.00000  Uiso   1.00
C73    C     0.52438   0.13790   0.45546   0.00000  Uiso   1.00
C74    C     0.45911   0.16130   0.04676   0.00000  Uiso   1.00
C75    C     0.53628   0.17196   0.09403   0.00000  Uiso   1.00
C76    C     0.46886   0.19252   0.40436   0.00000  Uiso   1.00
C77    C     0.52747   0.13930   0.40965   0.00000  Uiso   1.00
C78    C     0.57984   0.16660   0.25005   0.00000  Uiso   1.00
C79    C     0.46026   0.16155   0.09337   0.00000  Uiso   1.00
C80    C     0.49889   0.16679   0.11661   0.00000  Uiso   1.00
C81    C     0.49918   0.16643   0.38393   0.00000  Uiso   1.00
C82    C     0.49602   0.16644   0.02434   0.00000  Uiso   1.00
C83    C     0.49531   0.16478   0.47607   0.00000  Uiso   1.00
C84    C     0.62415   0.16650   0.24977   0.00000  Uiso   1.00
C85    C     0.37606   0.16694   0.25017   0.00000  Uiso   1.00
C86    C     0.49952   0.16675   0.16433   0.00000  Uiso   1.00
C87    C     0.49994   0.16659   0.33588   0.00000  Uiso   1.00
C88    C     0.52878   0.02331   0.27574   0.00000  Uiso   1.00
C89    C     0.47122   0.30999   0.22423   0.00000  Uiso   1.00
C90    C     0.47116   0.02393   0.22427   0.00000  Uiso   1.00
C91    C     0.52882   0.30940   0.27573   0.00000  Uiso   1.00
C92    C     0.35663   0.13815   0.27969   0.00000  Uiso   1.00
H93    H     0.56266   0.17694   0.03018   0.00000  Uiso   1.00
H94    H     0.42181   0.23384   0.39798   0.00000  Uiso   1.00
H95    H     0.56641   0.12902   0.36317   0.00000  Uiso   1.00
H96    H     0.40017   0.15347   0.09547   0.00000  Uiso   1.00
H97    H     0.36524   0.08256   0.31274   0.00000  Uiso   1.00
H98    H     0.63640   0.25216   0.18861   0.00000  Uiso   1.00
H99    H     0.64294   0.11024   0.33845   0.00000  Uiso   1.00
H100   H     0.35678   0.22187   0.16062   0.00000  Uiso   1.00
H101   H     0.44510   0.21249   0.46740   0.00000  Uiso   1.00
H102   H     0.54586   0.11693   0.47528   0.00000  Uiso   1.00
H103   H     0.42979   0.15646   0.02802   0.00000  Uiso   1.00
H104   H     0.55104   0.07517   0.30529   0.00000  Uiso   1.00
H105   H     0.44904   0.25812   0.19421   0.00000  Uiso   1.00
H106   H     0.44846   0.07633   0.19428   0.00000  Uiso   1.00
H107   H     0.55153   0.25699   0.30571   0.00000  Uiso   1.00
H108   H     0.57352   0.16902   0.14745   0.00000  Uiso   1.00
N109   N     0.50000   0.28573   0.25000   0.00000  Uiso   1.00
N110   N     0.50000   0.04760   0.25000   0.00000  Uiso   1.00
O111   O     0.43892   0.20487   0.25000   0.00000  Uiso   1.00
O112   O     0.44153   0.28970   0.19683   0.00000  Uiso   1.00
O113   O     0.44120   0.04477   0.19708   0.00000  Uiso   1.00
O114   O     0.55878   0.28856   0.30292   0.00000  Uiso   1.00
O115   O     0.57520   0.17607   0.11529   0.00000  Uiso   1.00
O116   O     0.44098   0.21795   0.37830   0.00000  Uiso   1.00
O117   O     0.55919   0.11493   0.39171   0.00000  Uiso   1.00
O118   O     0.42445   0.15654   0.11692   0.00000  Uiso   1.00
O119   O     0.38083   0.11043   0.30754   0.00000  Uiso   1.00
O120   O     0.61980   0.22510   0.19435   0.00000  Uiso   1.00
O121   O     0.62515   0.11404   0.31077   0.00000  Uiso   1.00
O122   O     0.56108   0.12846   0.25001   0.00000  Uiso   1.00
O123   O     0.37517   0.21773   0.18781   0.00000  Uiso   1.00
O124   O     0.56108   0.20487   0.25001   0.00000  Uiso   1.00
O125   O     0.43892   0.12846   0.25000   0.00000  Uiso   1.00
O126   O     0.50000   0.20489   0.18453   0.00000  Uiso   1.00
O127   O     0.50000   0.12845   0.31547   0.00000  Uiso   1.00
O128   O     0.50000   0.20489   0.31547   0.00000  Uiso   1.00
O129   O     0.50000   0.12845   0.18453   0.00000  Uiso   1.00
O130   O     0.55844   0.04357   0.30312   0.00000  Uiso   1.00
Zn131  Zn    0.50000   0.21771   0.25000   0.00000  Uiso   1.00
Zn132  Zn    0.50000   0.11563   0.25000   0.00000  Uiso   1.00
C133   C     0.75357   0.16675   0.24991   0.00000  Uiso   1.00
C134   C     0.97706   0.19583   0.22075   0.00000  Uiso   1.00
C135   C     0.97984   0.13855   0.28006   0.00000  Uiso   1.00
C136   C     0.68713   0.19450   0.21954   0.00000  Uiso   1.00
C137   C     0.86752   0.17246   0.04785   0.00000  Uiso   1.00
C138   C     0.80072   0.19170   0.45085   0.00000  Uiso   1.00
C139   C     0.85771   0.13790   0.45546   0.00000  Uiso   1.00
C140   C     0.79244   0.16130   0.04676   0.00000  Uiso   1.00
C141   C     0.86961   0.17196   0.09403   0.00000  Uiso   1.00
C142   C     0.80220   0.19252   0.40436   0.00000  Uiso   1.00
C143   C     0.86080   0.13930   0.40965   0.00000  Uiso   1.00
C144   C     0.91317   0.16660   0.25005   0.00000  Uiso   1.00
C145   C     0.79359   0.16155   0.09337   0.00000  Uiso   1.00
C146   C     0.83222   0.16679   0.11661   0.00000  Uiso   1.00
C147   C     0.83251   0.16643   0.38393   0.00000  Uiso   1.00
C148   C     0.82936   0.16644   0.02434   0.00000  Uiso   1.00
C149   C     0.82864   0.16478   0.47607   0.00000  Uiso   1.00
C150   C     0.95749   0.16650   0.24977   0.00000  Uiso   1.00
C151   C     0.70939   0.16694   0.25017   0.00000  Uiso   1.00
C152   C     0.83286   0.16675   0.16433   0.00000  Uiso   1.00
C153   C     0.83327   0.16659   0.33588   0.00000  Uiso   1.00
C154   C     0.86211   0.02331   0.27574   0.00000  Uiso   1.00
C155   C     0.80455   0.30999   0.22423   0.00000  Uiso   1.00
C156   C     0.80449   0.02393   0.22427   0.00000  Uiso   1.00
C157   C     0.86216   0.30940   0.27573   0.00000  Uiso   1.00
C158   C     0.68996   0.13815   0.27969   0.00000  Uiso   1.00
H159   H     0.89599   0.17694   0.03018   0.00000  Uiso   1.00
H160   H     0.75515   0.23384   0.39798   0.00000  Uiso   1.00
H161   H     0.89975   0.12902   0.36317   0.00000  Uiso   1.00
H162   H     0.73351   0.15347   0.09547   0.00000  Uiso   1.00
H163   H     0.69857   0.08256   0.31274   0.00000  Uiso   1.00
H164   H     0.96973   0.25216   0.18861   0.00000  Uiso   1.00
H165   H     0.97628   0.11024   0.33845   0.00000  Uiso   1.00
H166   H     0.69011   0.22187   0.16062   0.00000  Uiso   1.00
H167   H     0.77843   0.21249   0.46740   0.00000  Uiso   1.00
H168   H     0.87920   0.11693   0.47528   0.00000  Uiso   1.00
H169   H     0.76313   0.15646   0.02802   0.00000  Uiso   1.00
H170   H     0.88438   0.07517   0.30529   0.00000  Uiso   1.00
H171   H     0.78237   0.25812   0.19421   0.00000  Uiso   1.00
H172   H     0.78179   0.07633   0.19428   0.00000  Uiso   1.00
H173   H     0.88486   0.25699   0.30571   0.00000  Uiso   1.00
H174   H     0.90685   0.16902   0.14745   0.00000  Uiso   1.00
N175   N     0.83333   0.28573   0.25000   0.00000  Uiso   1.00
N176   N     0.83333   0.04760   0.25000   0.00000  Uiso   1.00
O177   O     0.77226   0.20487   0.25000   0.00000  Uiso   1.00
O178   O     0.77487   0.28970   0.19683   0.00000  Uiso   1.00
O179   O     0.77453   0.04477   0.19708   0.00000  Uiso   1.00
O180   O     0.89212   0.28856   0.30292   0.00000  Uiso   1.00
O181   O     0.90853   0.17607   0.11529   0.00000  Uiso   1.00
O182   O     0.77431   0.21795   0.37830   0.00000  Uiso   1.00
O183   O     0.89253   0.11493   0.39171   0.00000  Uiso   1.00
O184   O     0.75779   0.15654   0.11692   0.00000  Uiso   1.00
O185   O     0.71416   0.11043   0.30754   0.00000  Uiso   1.00
O186   O     0.95313   0.22510   0.19435   0.00000  Uiso   1.00
O187   O     0.95848   0.11404   0.31077   0.00000  Uiso   1.00
O188   O     0.89441   0.12846   0.25001   0.00000  Uiso   1.00
O189   O     0.70850   0.21773   0.18781   0.00000  Uiso   1.00
O190   O     0.89441   0.20487   0.25001   0.00000  Uiso   1.00
O191   O     0.77226   0.12846   0.25000   0.00000  Uiso   1.00
O192   O     0.83333   0.20489   0.18453   0.00000  Uiso   1.00
O193   O     0.83334   0.12845   0.31547   0.00000  Uiso   1.00
O194   O     0.83334   0.20489   0.31547   0.00000  Uiso   1.00
O195   O     0.83333   0.12845   0.18453   0.00000  Uiso   1.00
O196   O     0.89178   0.04357   0.30312   0.00000  Uiso   1.00
Zn197  Zn    0.83333   0.21771   0.25000   0.00000  Uiso   1.00
Zn198  Zn    0.83333   0.11563   0.25000   0.00000  Uiso   1.00
C199   C     0.08690   0.50008   0.24991   0.00000  Uiso   1.00
C200   C     0.31039   0.52917   0.22075   0.00000  Uiso   1.00
C201   C     0.31317   0.47188   0.28006   0.00000  Uiso   1.00
C202   C     0.02046   0.52783   0.21954   0.00000  Uiso   1.00
C203   C     0.20086   0.50579   0.04785   0.00000  Uiso   1.00
C204   C     0.13406   0.52504   0.45085   0.00000  Uiso   1.00
C205   C     0.19104   0.47123   0.45546   0.00000  Uiso   1.00
C206   C     0.12578   0.49463   0.04676   0.00000  Uiso   1.00
C207   C     0.20294   0.50529   0.09403   0.00000  Uiso   1.00
C208   C     0.13553   0.52585   0.40436   0.00000  Uiso   1.00
C209   C     0.19414   0.47264   0.40965   0.00000  Uiso   1.00
C210   C     0.24651   0.49994   0.25005   0.00000  Uiso   1.00
C211   C     0.12693   0.49488   0.09337   0.00000  Uiso   1.00
C212   C     0.16556   0.50013   0.11661   0.00000  Uiso   1.00
C213   C     0.16584   0.49976   0.38393   0.00000  Uiso   1.00
C214   C     0.16269   0.49977   0.02434   0.00000  Uiso   1.00
C215   C     0.16198   0.49811   0.47607   0.00000  Uiso   1.00
C216   C     0.29082   0.49983   0.24977   0.00000  Uiso   1.00
C217   C     0.04273   0.50027   0.25017   0.00000  Uiso   1.00
C218   C     0.16619   0.50008   0.16433   0.00000  Uiso   1.00
C219   C     0.16661   0.49992   0.33588   0.00000  Uiso   1.00
C220   C     0.19544   0.35664   0.27574   0.00000  Uiso   1.00
C221   C     0.13788   0.64333   0.22423   0.00000  Uiso   1.00
C222   C     0.13783   0.35726   0.22427   0.00000  Uiso   1.00
C223   C     0.19549   0.64273   0.27573   0.00000  Uiso   1.00
C224   C     0.02329   0.47148   0.27969   0.00000  Uiso   1.00
H225   H     0.22932   0.51027   0.03018   0.00000  Uiso   1.00
H226   H     0.08848   0.56717   0.39798   0.00000  Uiso   1.00
H227   H     0.23308   0.46235   0.36317   0.00000  Uiso   1.00
H228   H     0.06684   0.48680   0.09547   0.00000  Uiso   1.00
H229   H     0.03190   0.41589   0.31274   0.00000  Uiso   1.00
H230   H     0.30307   0.58550   0.18861   0.00000  Uiso   1.00
H231   H     0.30961   0.44357   0.33845   0.00000  Uiso   1.00
H232   H     0.02344   0.55520   0.16062   0.00000  Uiso   1.00
H233   H     0.11177   0.54583   0.46740   0.00000  Uiso   1.00
H234   H     0.21253   0.45027   0.47528   0.00000  Uiso   1.00
H235   H     0.09646   0.48979   0.02802   0.00000  Uiso   1.00
H236   H     0.21771   0.40851   0.30529   0.00000  Uiso   1.00
H237   H     0.11571   0.59146   0.19421   0.00000  Uiso   1.00
H238   H     0.11512   0.40967   0.19428   0.00000  Uiso   1.00
H239   H     0.21820   0.59033   0.30571   0.00000  Uiso   1.00
H240   H     0.24018   0.50235   0.14745   0.00000  Uiso   1.00
N241   N     0.16667   0.61907   0.25000   0.00000  Uiso   1.00
N242   N     0.16667   0.38093   0.25000   0.00000  Uiso   1.00
O243   O     0.10559   0.53821   0.25000   0.00000  Uiso   1.00
O244   O     0.10820   0.62303   0.19683   0.00000  Uiso   1.00
O245   O     0.10787   0.37810   0.19708   0.00000  Uiso   1.00
O246   O     0.22545   0.62189   0.30292   0.00000  Uiso   1.00
O247   O     0.24186   0.50940   0.11529   0.00000  Uiso   1.00
O248   O     0.10765   0.55129   0.37830   0.00000  Uiso   1.00
O249   O     0.22586   0.44827   0.39171   0.00000  Uiso   1.00
O250   O     0.09112   0.48988   0.11692   0.00000  Uiso   1.00
O251   O     0.04750   0.44377   0.30754   0.00000  Uiso   1.00
O252   O     0.28646   0.55843   0.19435   0.00000  Uiso   1.00
O253   O     0.29182   0.44738   0.31077   0.00000  Uiso   1.00
O254   O     0.22774   0.46179   0.25001   0.00000  Uiso   1.00
O255   O     0.04184   0.55106   0.18781   0.00000  Uiso   1.00
O256   O     0.22774   0.53821   0.25001   0.00000  Uiso   1.00
O257   O     0.10559   0.46179   0.25000   0.00000  Uiso   1.00
O258   O     0.16666   0.53822   0.18453   0.00000  Uiso   1.00
O259   O     0.16667   0.46178   0.31547   0.00000  Uiso   1.00
O260   O     0.16667   0.53822   0.31547   0.00000  Uiso   1.00
O261   O     0.16666   0.46178   0.18453   0.00000  Uiso   1.00
O262   O     0.22511   0.37690   0.30312   0.00000  Uiso   1.00
Zn263  Zn    0.16667   0.55104   0.25000   0.00000  Uiso   1.00
Zn264  Zn    0.16667   0.44896   0.25000   0.00000  Uiso   1.00
C265   C     0.42024   0.50008   0.24991   0.00000  Uiso   1.00
C266   C     0.64373   0.52917   0.22075   0.00000  Uiso   1.00
C267   C     0.64651   0.47188   0.28006   0.00000  Uiso   1.00
C268   C     0.35379   0.52783   0.21954   0.00000  Uiso   1.00
C269   C     0.53419   0.50579   0.04785   0.00000  Uiso   1.00
C270   C     0.46739   0.52504   0.45085   0.00000  Uiso   1.00
C271   C     0.52438   0.47123   0.45546   0.00000  Uiso   1.00
C272   C     0.45911   0.49463   0.04676   0.00000  Uiso   1.00
C273   C     0.53628   0.50529   0.09403   0.00000  Uiso   1.00
C274   C     0.46886   0.52585   0.40436   0.00000  Uiso   1.00
C275   C     0.52747   0.47264   0.40965   0.00000  Uiso   1.00
C276   C     0.57984   0.49994   0.25005   0.00000  Uiso   1.00
C277   C     0.46026   0.49488   0.09337   0.00000  Uiso   1.00
C278   C     0.49889   0.50013   0.11661   0.00000  Uiso   1.00
C279   C     0.49918   0.49976   0.38393   0.00000  Uiso   1.00
C280   C     0.49602   0.49977   0.02434   0.00000  Uiso   1.00
C281   C     0.49531   0.49811   0.47607   0.00000  Uiso   1.00
C282   C     0.62415   0.49983   0.24977   0.00000  Uiso   1.00
C283   C     0.37606   0.50027   0.25017   0.00000  Uiso   1.00
C284   C     0.49952   0.50008   0.16433   0.00000  Uiso   1.00
C285   C     0.49994   0.49992   0.33588   0.00000  Uiso   1.00
C286   C     0.52878   0.35664   0.27574   0.00000  Uiso   1.00
C287   C     0.47122   0.64333   0.22423   0.00000  Uiso   1.00
C288   C     0.47116   0.35726   0.22427   0.00000  Uiso   1.00
C289   C     0.52882   0.64273   0.27573   0.00000  Uiso   1.00
C290   C     0.35663   0.47148   0.27969   0.00000  Uiso   1.00
H291   H     0.56266   0.51027   0.03018   0.00000  Uiso   1.00
H292   H     0.42181   0.56717   0.39798   0.00000  Uiso   1.00
H293   H     0.56641   0.46235   0.36317   0.00000  Uiso   1.00
H294   H     0.40017   0.48680   0.09547   0.00000  Uiso   1.00
H295   H     0.36524   0.41589   0.31274   0.00000  Uiso   1.00
H296   H     0.63640   0.58550   0.18861   0.00000  Uiso   1.00
H297   H     0.64294   0.44357   0.33845   0.00000  Uiso   1.00
H298   H     0.35678   0.55520   0.16062   0.00000  Uiso   1.00
H299   H     0.44510   0.54583   0.46740   0.00000  Uiso   1.00
H300   H     0.54586   0.45027   0.47528   0.00000  Uiso   1.00
H301   H     0.42979   0.48979   0.02802   0.00000  Uiso   1.00
H302   H     0.55104   0.40851   0.30529   0.00000  Uiso   1.00
H303   H     0.44904   0.59146   0.19421   0.00000  Uiso   1.00
H304   H     0.44846   0.40967   0.19428   0.00000  Uiso   1.00
H305   H     0.55153   0.59033   0.30571   0.00000  Uiso   1.00
H306   H     0.57352   0.50235   0.14745   0.00000  Uiso   1.00
N307   N     0.50000   0.61907   0.25000   0.00000  Uiso   1.00
N308   N     0.50000   0.38093   0.25000   0.00000  Uiso   1.00
O309   O     0.43892   0.53821   0.25000   0.00000  Uiso   1.00
O310   O     0.44153   0.62303   0.19683   0.00000  Uiso   1.00
O311   O     0.44120   0.37810   0.19708   0.00000  Uiso   1.00
O312   O     0.55878   0.62189   0.30292   0.00000  Uiso   1.00
O313   O     0.57520   0.50940   0.11529   0.00000  Uiso   1.00
O314   O     0.44098   0.55129   0.37830   0.00000  Uiso   1.00
O315   O     0.55919   0.44827   0.39171   0.00000  Uiso   1.00
O316   O     0.42445   0.48988   0.11692   0.00000  Uiso   1.00
O317   O     0.38083   0.44377   0.30754   0.00000  Uiso   1.00
O318   O     0.61980   0.55843   0.19435   0.00000  Uiso   1.00
O319   O     0.62515   0.44738   0.31077   0.00000  Uiso   1.00
O320   O     0.56108   0.46179   0.25001   0.00000  Uiso   1.00
O321   O     0.37517   0.55106   0.18781   0.00000  Uiso   1.00
O322   O     0.56108   0.53821   0.25001   0.00000  Uiso   1.00
O323   O     0.43892   0.46179   0.25000   0.00000  Uiso   1.00
O324   O     0.50000   0.53822   0.18453   0.00000  Uiso   1.00
O325   O     0.50000   0.46178   0.31547   0.00000  Uiso   1.00
O326   O     0.50000   0.53822   0.31547   0.00000  Uiso   1.00
O327   O     0.50000   0.46178   0.18453   0.00000  Uiso   1.00
O328   O     0.55844   0.37690   0.30312   0.00000  Uiso   1.00
Zn329  Zn    0.50000   0.55104   0.25000   0.00000  Uiso   1.00
Zn330  Zn    0.50000   0.44896   0.25000   0.00000  Uiso   1.00
C331   C     0.75357   0.50008   0.24991   0.00000  Uiso   1.00
C332   C     0.97706   0.52917   0.22075   0.00000  Uiso   1.00
C333   C     0.97984   0.47188   0.28006   0.00000  Uiso   1.00
C334   C     0.68713   0.52783   0.21954   0.00000  Uiso   1.00
C335   C     0.86752   0.50579   0.04785   0.00000  Uiso   1.00
C336   C     0.80072   0.52504   0.45085   0.00000  Uiso   1.00
C337   C     0.85771   0.47123   0.45546   0.00000  Uiso   1.00
C338   C     0.79244   0.49463   0.04676   0.00000  Uiso   1.00
C339   C     0.86961   0.50529   0.09403   0.00000  Uiso   1.00
C340   C     0.80220   0.52585   0.40436   0.00000  Uiso   1.00
C341   C     0.86080   0.47264   0.40965   0.00000  Uiso   1.00
C342   C     0.91317   0.49994   0.25005   0.00000  Uiso   1.00
C343   C     0.79359   0.49488   0.09337   0.00000  Uiso   1.00
C344   C     0.83222   0.50013   0.11661   0.00000  Uiso   1.00
C345   C     0.83251   0.49976   0.38393   0.00000  Uiso   1.00
C346   C     0.82936   0.49977   0.02434   0.00000  Uiso   1.00
C347   C     0.82864   0.49811   0.47607   0.00000  Uiso   1.00
C348   C     0.95749   0.49983   0.24977   0.00000  Uiso   1.00
C349   C     0.70939   0.50027   0.25017   0.00000  Uiso   1.00
C350   C     0.83286   0.50008   0.16433   0.00000  Uiso   1.00
C351   C     0.83327   0.49992   0.33588   0.00000  Uiso   1.00
C352   C     0.86211   0.35664   0.27574   0.00000  Uiso   1.00
C353   C     0.80455   0.64333   0.22423   0.00000  Uiso   1.00
C354   C     0.80449   0.35726   0.22427   0.00000  Uiso   1.00
C355   C     0.86216   0.64273   0.27573   0.00000  Uiso   1.00
C356   C     0.68996   0.47148   0.27969   0.00000  Uiso   1.00
H357   H     0.89599   0.51027   0.03018   0.00000  Uiso   1.00
H358   H     0.75515   0.56717   0.39798   0.00000  Uiso   1.00
H359   H     0.89975   0.46235   0.36317   0.00000  Uiso   1.00
H360   H     0.73351   0.48680   0.09547   0.00000  Uiso   1.00
H361   H     0.69857   0.41589   0.31274   0.00000  Uiso   1.00
H362   H     0.96973   0.58550   0.18861   0.00000  Uiso   1.00
H363   H     0.97628   0.44357   0.33845   0.00000  Uiso   1.00
H364   H     0.69011   0.55520   0.16062   0.00000  Uiso   1.00
H365   H     0.77843   0.54583   0.46740   0.00000  Uiso   1.00
H366   H     0.87920   0.45027   0.47528   0.00000  Uiso   1.00
H367   H     0.76313   0.48979   0.02802   0.00000  Uiso   1.00
H368   H     0.88438   0.40851   0.30529   0.00000  Uiso   1.00
H369   H     0.78237   0.59146   0.19421   0.00000  Uiso   1.00
H370   H     0.78179   0.40967   0.19428   0.00000  Uiso   1.00
H371   H     0.88486   0.59033   0.30571   0.00000  Uiso   1.00
H372   H     0.90685   0.50235   0.14745   0.00000  Uiso   1.00
N373   N     0.83333   0.61907   0.25000   0.00000  Uiso   1.00
N374   N     0.83333   0.38093   0.25000   0.00000  Uiso   1.00
O375   O     0.77226   0.53821   0.25000   0.00000  Uiso   1.00
O376   O     0.77487   0.62303   0.19683   0.00000  Uiso   1.00
O377   O     0.77453   0.37810   0.19708   0.00000  Uiso   1.00
O378   O     0.89212   0.62189   0.30292   0.00000  Uiso   1.00
O379   O     0.90853   0.50940   0.11529   0.00000  Uiso   1.00
O380   O     0.77431   0.55129   0.37830   0.00000  Uiso   1.00
O381   O     0.89253   0.44827   0.39171   0.00000  Uiso   1.00
O382   O     0.75779   0.48988   0.11692   0.00000  Uiso   1.00
O383   O     0.71416   0.44377   0.30754   0.00000  Uiso   1.00
O384   O     0.95313   0.55843   0.19435   0.00000  Uiso   1.00
O385   O     0.95848   0.44738   0.31077   0.00000  Uiso   1.00
O386   O     0.89441   0.46179   0.25001   0.00000  Uiso   1.00
O387   O     0.70850   0.55106   0.18781   0.00000  Uiso   1.00
O388   O     0.89441   0.53821   0.25001   0.00000  Uiso   1.00
O389   O     0.77226   0.46179   0.25000   0.00000  Uiso   1.00
O390   O     0.83333   0.53822   0.18453   0.00000  Uiso   1.00
O391   O     0.83334   0.46178   0.31547   0.00000  Uiso   1.00
O392   O     0.83334   0.53822   0.31547   0.00000  Uiso   1.00
O393   O     0.83333   0.46178   0.18453   0.00000  Uiso   1.00
O394   O     0.89178   0.37690   0.30312   0.00000  Uiso   1.00
Zn395  Zn    0.83333   0.55104   0.25000   0.00000  Uiso   1.00
Zn396  Zn    0.83333   0.44896   0.25000   0.00000  Uiso   1.00
C397   C     0.08690   0.83342   0.24991   0.00000  Uiso   1.00
C398   C     0.31039   0.86250   0.22075   0.00000  Uiso   1.00
C399   C     0.31317   0.80521   0.28006   0.00000  Uiso   1.00
C400   C     0.02046   0.86117   0.21954   0.00000  Uiso   1.00
C401   C     0.20086   0.83912   0.04785   0.00000  Uiso   1.00
C402   C     0.13406   0.85837   0.45085   0.00000  Uiso   1.00
C403   C     0.19104   0.80457   0.45546   0.00000  Uiso   1.00
C404   C     0.12578   0.82796   0.04676   0.00000  Uiso   1.00
C405   C     0.20294   0.83862   0.09403   0.00000  Uiso   1.00
C406   C     0.13553   0.85918   0.40436   0.00000  Uiso   1.00
C407   C     0.19414   0.80597   0.40965   0.00000  Uiso   1.00
C408   C     0.24651   0.83327   0.25005   0.00000  Uiso   1.00
C409   C     0.12693   0.82822   0.09337   0.00000  Uiso   1.00
C410   C     0.16556   0.83346   0.11661   0.00000  Uiso   1.00
C411   C     0.16584   0.83309   0.38393   0.00000  Uiso   1.00
C412   C     0.16269   0.83311   0.02434   0.00000  Uiso   1.00
C413   C     0.16198   0.83144   0.47607   0.00000  Uiso   1.00
C414   C     0.29082   0.83317   0.24977   0.00000  Uiso   1.00
C415   C     0.04273   0.83360   0.25017   0.00000  Uiso   1.00
C416   C     0.16619   0.83342   0.16433   0.00000  Uiso   1.00
C417   C     0.16661   0.83325   0.33588   0.00000  Uiso   1.00
C418   C     0.19544   0.68997   0.27574   0.00000  Uiso   1.00
C419   C     0.13788   0.97666   0.22423   0.00000  Uiso   1.00
C420   C     0.13783   0.69059   0.22427   0.00000  Uiso   1.00
C421   C     0.19549   0.97606   0.27573   0.00000  Uiso   1.00
C422   C     0.02329   0.80481   0.27969   0.00000  Uiso   1.00
H423   H     0.22932   0.84361   0.03018   0.00000  Uiso   1.00
H424   H     0.08848   0.90050   0.39798   0.00000  Uiso   1.00
H425   H     0.23308   0.79568   0.36317   0.00000  Uiso   1.00
H426   H     0.06684   0.82014   0.09547   0.00000  Uiso   1.00
H427   H     0.03190   0.74923   0.31274   0.00000  Uiso   1.00
H428   H     0.30307   0.91883   0.18861   0.00000  Uiso   1.00
H429   H     0.30961   0.77691   0.33845   0.00000  Uiso   1.00
H430   H     0.02344   0.88854   0.16062   0.00000  Uiso   1.00
H431   H     0.11177   0.87916   0.46740   0.00000  Uiso   1.00
H432   H     0.21253   0.78360   0.47528   0.00000  Uiso   1.00
H433   H     0.09646   0.82312   0.02802   0.00000  Uiso   1.00
H434   H     0.21771   0.74184   0.30529   0.00000  Uiso   1.00
H435   H     0.11571   0.92479   0.19421   0.00000  Uiso   1.00
H436   H     0.11512   0.74300   0.19428   0.00000  Uiso   1.00
H437   H     0.21820   0.92366   0.30571   0.00000  Uiso   1.00
H438   H     0.24018   0.83568   0.14745   0.00000  Uiso   1.00
N439   N     0.16667   0.95240   0.25000   0.00000  Uiso   1.00
N440   N     0.16667   0.71427   0.25000   0.00000  Uiso   1.00
O441   O     0.10559   0.87154   0.25000   0.00000  Uiso   1.00
O442   O     0.10820   0.95636   0.19683   0.00000  Uiso   1.00
O443   O     0.10787   0.71143   0.19708   0.00000  Uiso   1.00
O444   O     0.22545   0.95522   0.30292   0.00000  Uiso   1.00
O445   O     0.24186   0.84273   0.11529   0.00000  Uiso   1.00
O446   O     0.10765   0.88462   0.37830   0.00000  Uiso   1.00
O447   O     0.22586   0.78160   0.39171   0.00000  Uiso   1.00
O448   O     0.09112   0.82321   0.11692   0.00000  Uiso   1.00
O449   O     0.04750   0.77710   0.30754   0.00000  Uiso   1.00
O450   O     0.28646   0.89176   0.19435   0.00000  Uiso   1.00
O451   O     0.29182   0.78071   0.31077   0.00000  Uiso   1.00
O452   O     0.22774   0.79513   0.25001   0.00000  Uiso   1.00
O453   O     0.04184   0.88440   0.18781   0.00000  Uiso   1.00
O454   O     0.22774   0.87154   0.25001   0.00000  Uiso   1.00
O455   O     0.10559   0.79513   0.25000   0.00000  Uiso   1.00
O456   O     0.16666   0.87155   0.18453   0.00000  Uiso   1.00
O457   O     0.16667   0.79511   0.31547   0.00000  Uiso   1.00
O458   O     0.16667   0.87155   0.31547   0.00000  Uiso   1.00
O459   O     0.16666   0.79511   0.18453   0.00000  Uiso   1.00
O460   O     0.22511   0.71023   0.30312   0.00000  Uiso   1.00
Zn461  Zn    0.16667   0.88437   0.25000   0.00000  Uiso   1.00
Zn462  Zn    0.16667   0.78229   0.25000   0.00000  Uiso   1.00
C463   C     0.42024   0.83342   0.24991   0.00000  Uiso   1.00
C464   C     0.64373   0.86250   0.22075   0.00000  Uiso   1.00
C465   C     0.64651   0.80521   0.28006   0.00000  Uiso   1.00
C466   C     0.35379   0.86117   0.21954   0.00000  Uiso   1.00
C467   C     0.53419   0.83912   0.04785   0.00000  Uiso   1.00
C468   C     0.46739   0.85837   0.45085   0.00000  Uiso   1.00
C469   C     0.52438   0.80457   0.45546   0.00000  Uiso   1.00
C470   C     0.45911   0.82796   0.04676   0.00000  Uiso   1.00
C471   C     0.53628   0.83862   0.09403   0.00000  Uiso   1.00
C472   C     0.46886   0.85918   0.40436   0.00000  Uiso   1.00
C473   C     0.52747   0.80597   0.40965   0.00000  Uiso   1.00
C474   C     0.57984   0.83327   0.25005   0.00000  Uiso   1.00
C475   C     0.46026   0.82822   0.09337   0.00000  Uiso   1.00
C476   C     0.49889   0.83346   0.11661   0.00000  Uiso   1.00
C477   C     0.49918   0.83309   0.38393   0.00000  Uiso   1.00
C478   C     0.49602   0.83311   0.02434   0.00000  Uiso   1.00
C479   C     0.49531   0.83144   0.47607   0.00000  Uiso   1.00
C480   C     0.62415   0.83317   0.24977   0.00000  Uiso   1.00
C481   C     0.37606   0.83360   0.25017   0.00000  Uiso   1.00
C482   C     0.49952   0.83342   0.16433   0.00000  Uiso   1.00
C483   C     0.49994   0.83325   0.33588   0.00000  Uiso   1.00
C484   C     0.52878   0.68997   0.27574   0.00000  Uiso   1.00
C485   C     0.47122   0.97666   0.22423   0.00000  Uiso   1.00
C486   C     0.47116   0.69059   0.22427   0.00000  Uiso   1.00
C487   C     0.52882   0.97606   0.27573   0.00000  Uiso   1.00
C488   C     0.35663   0.80481   0.27969   0.00000  Uiso   1.00
H489   H     0.56266   0.84361   0.03018   0.00000  Uiso   1.00
H490   H     0.42181   0.90050   0.39798   0.00000  Uiso   1.00
H491   H     0.56641   0.79568   0.36317   0.00000  Uiso   1.00
H492   H     0.40017   0.82014   0.09547   0.00000  Uiso   1.00
H493   H     0.36524   0.74923   0.31274   0.00000  Uiso   1.00
H494   H     0.63640   0.91883   0.18861   0.00000  Uiso   1.00
H495   H     0.64294   0.77691   0.33845   0.00000  Uiso   1.00
H496   H     0.35678   0.88854   0.16062   0.00000  Uiso   1.00
H497   H     0.44510   0.87916   0.46740   0.00000  Uiso   1.00
H498   H     0.54586   0.78360   0.47528   0.00000  Uiso   1.00
H499   H     0.42979   0.82312   0.02802   0.00000  Uiso   1.00
H500   H     0.55104   0.74184   0.30529   0.00000  Uiso   1.00
H501   H     0.44904   0.92479   0.19421   0.00000  Uiso   1.00
H502   H     0.44846   0.74300   0.19428   0.00000  Uiso   1.00
H503   H     0.55153   0.92366   0.30571   0.00000  Uiso   1.00
H504   H     0.57352   0.83568   0.14745   0.00000  Uiso   1.00
N505   N     0.50000   0.95240   0.25000   0.00000  Uiso   1.00
N506   N     0.50000   0.71427   0.25000   0.00000  Uiso   1.00
O507   O     0.43892   0.87154   0.25000   0.00000  Uiso   1.00
O508   O     0.44153   0.95636   0.19683   0.00000  Uiso   1.00
O509   O     0.44120   0.71143   0.19708   0.00000  Uiso   1.00
O510   O     0.55878   0.95522   0.30292   0.00000  Uiso   1.00
O511   O     0.57520   0.84273   0.11529   0.00000  Uiso   1.00
O512   O     0.44098   0.88462   0.37830   0.00000  Uiso   1.00
O513   O     0.55919   0.78160   0.39171   0.00000  Uiso   1.00
O514   O     0.42445   0.82321   0.11692   0.00000  Uiso   1.00
O515   O     0.38083   0.77710   0.30754   0.00000  Uiso   1.00
O516   O     0.61980   0.89176   0.19435   0.00000  Uiso   1.00
O517   O     0.62515   0.78071   0.31077   0.00000  Uiso   1.00
O518   O     0.56108   0.79513   0.25001   0.00000  Uiso   1.00
O519   O     0.37517   0.88440   0.18781   0.00000  Uiso   1.00
O520   O     0.56108   0.87154   0.25001   0.00000  Uiso   1.00
O521   O     0.43892   0.79513   0.25000   0.00000  Uiso   1.00
O522   O     0.50000   0.87155   0.18453   0.00000  Uiso   1.00
O523   O     0.50000   0.79511   0.31547   0.00000  Uiso   1.00
O524   O     0.50000   0.87155   0.31547   0.00000  Uiso   1.00
O525   O     0.50000   0.79511   0.18453   0.00000  Uiso   1.00
O526   O     0.55844   0.71023   0.30312   0.00000  Uiso   1.00
Zn527  Zn    0.50000   0.88437   0.25000   0.00000  Uiso   1.00
Zn528  Zn    0.50000   0.78229   0.25000   0.00000  Uiso   1.00
C529   C     0.75357   0.83342   0.24991   0.00000  Uiso   1.00
C530   C     0.97706   0.86250   0.22075   0.00000  Uiso   1.00
C531   C     0.97984   0.80521   0.28006   0.00000  Uiso   1.00
C532   C     0.68713   0.86117   0.21954   0.00000  Uiso   1.00
C533   C     0.86752   0.83912   0.04785   0.00000  Uiso   1.00
C534   C     0.80072   0.85837   0.45085   0.00000  Uiso   1.00
C535   C     0.85771   0.80457   0.45546   0.00000  Uiso   1.00
C536   C     0.79244   0.82796   0.04676   0.00000  Uiso   1.00
C537   C     0.86961   0.83862   0.09403   0.00000  Uiso   1.00
C538   C     0.80220   0.85918   0.40436   0.00000  Uiso   1.00
C539   C     0.86080   0.80597   0.40965   0.00000  Uiso   1.00
C540   C     0.91317   0.83327   0.25005   0.00000  Uiso   1.00
C541   C     0.79359   0.82822   0.09337   0.00000  Uiso   1.00
C542   C     0.83222   0.83346   0.11661   0.00000  Uiso   1.00
C543   C     0.83251   0.83309   0.38393   0.00000  Uiso   1.00
C544   C     0.82936   0.83311   0.02434   0.00000  Uiso   1.00
C545   C     0.82864   0.83144   0.47607   0.00000  Uiso   1.00
C546   C     0.95749   0.83317   0.24977   0.00000  Uiso   1.00
C547   C     0.70939   0.83360   0.25017   0.00000  Uiso   1.00
C548   C     0.83286   0.83342   0.16433   0.00000  Uiso   1.00
C549   C     0.83327   0.83325   0.33588   0.00000  Uiso   1.00
C550   C     0.86211   0.68997   0.27574   0.00000  Uiso   1.00
C551   C     0.80455   0.97666   0.22423   0.00000  Uiso   1.00
C552   C     0.80449   0.69059   0.22427   0.00000  Uiso   1.00
C553   C     0.86216   0.97606   0.27573   0.00000  Uiso   1.00
C554   C     0.68996   0.80481   0.27969   0.00000  Uiso   1.00
H555   H     0.89599   0.84361   0.03018   0.00000  Uiso   1.00
H556   H     0.75515   0.90050   0.39798   0.00000  Uiso   1.00
H557   H     0.89975   0.79568   0.36317   0.00000  Uiso   1.00
H558   H     0.73351   0.82014   0.09547   0.00000  Uiso   1.00
H559   H     0.69857   0.74923   0.31274   0.00000  Uiso   1.00
H560   H     0.96973   0.91883   0.18861   0.00000  Uiso   1.00
H561   H     0.97628   0.77691   0.33845   0.00000  Uiso   1.00
H562   H     0.69011   0.88854   0.16062   0.00000  Uiso   1.00
H563   H     0.77843   0.87916   0.46740   0.00000  Uiso   1.00
H564   H     0.87920   0.78360   0.47528   0.00000  Uiso   1.00
H565   H     0.76313   0.82312   0.02802   0.00000  Uiso   1.00
H566   H     0.88438   0.74184   0.30529   0.00000  Uiso   1.00
H567   H     0.78237   0.92479   0.19421   0.00000  Uiso   1.00
H568   H     0.78179   0.74300   0.19428   0.00000  Uiso   1.00
H569   H     0.88486   0.92366   0.30571   0.00000  Uiso   1.00
H570   H     0.90685   0.83568   0.14745   0.00000  Uiso   1.00
N571   N     0.83333   0.95240   0.25000   0.00000  Uiso   1.00
N572   N     0.83333   0.71427   0.25000   0.00000  Uiso   1.00
O573   O     0.77226   0.87154   0.25000   0.00000  Uiso   1.00
O574   O     0.77487   0.95636   0.19683   0.00000  Uiso   1.00
O575   O     0.77453   0.71143   0.19708   0.00000  Uiso   1.00
O576   O     0.89212   0.95522   0.30292   0.00000  Uiso   1.00
O577   O     0.90853   0.84273   0.11529   0.00000  Uiso   1.00
O578   O     0.77431   0.88462   0.37830   0.00000  Uiso   1.00
O579   O     0.89253   0.78160   0.39171   0.00000  Uiso   1.00
O580   O     0.75779   0.82321   0.11692   0.00000  Uiso   1.00
O581   O     0.71416   0.77710   0.30754   0.00000  Uiso   1.00
O582   O     0.95313   0.89176   0.19435   0.00000  Uiso   1.00
O583   O     0.95848   0.78071   0.31077   0.00000  Uiso   1.00
O584   O     0.89441   0.79513   0.25001   0.00000  Uiso   1.00
O585   O     0.70850   0.88440   0.18781   0.00000  Uiso   1.00
O586   O     0.89441   0.87154   0.25001   0.00000  Uiso   1.00
O587   O     0.77226   0.79513   0.25000   0.00000  Uiso   1.00
O588   O     0.83333   0.87155   0.18453   0.00000  Uiso   1.00
O589   O     0.83334   0.79511   0.31547   0.00000  Uiso   1.00
O590   O     0.83334   0.87155   0.31547   0.00000  Uiso   1.00
O591   O     0.83333   0.79511   0.18453   0.00000  Uiso   1.00
O592   O     0.89178   0.71023   0.30312   0.00000  Uiso   1.00
Zn593  Zn    0.83333   0.88437   0.25000   0.00000  Uiso   1.00
Zn594  Zn    0.83333   0.78229   0.25000   0.00000  Uiso   1.00
C595   C     0.08690   0.16675   0.74991   0.00000  Uiso   1.00
C596   C     0.31039   0.19583   0.72075   0.00000  Uiso   1.00
C597   C     0.31317   0.13855   0.78006   0.00000  Uiso   1.00
C598   C     0.02046   0.19450   0.71954   0.00000  Uiso   1.00
C599   C     0.20086   0.17246   0.54785   0.00000  Uiso   1.00
C600   C     0.13406   0.19170   0.95085   0.00000  Uiso   1.00
C601   C     0.19104   0.13790   0.95546   0.00000  Uiso   1.00
C602   C     0.12578   0.16130   0.54676   0.00000  Uiso   1.00
C603   C     0.20294   0.17196   0.59403   0.00000  Uiso   1.00
C604   C     0.13553   0.19252   0.90436   0.00000  Uiso   1.00
C605   C     0.19414   0.13930   0.90965   0.00000  Uiso   1.00
C606   C     0.24651   0.16660   0.75005   0.00000  Uiso   1.00
C607   C     0.12693   0.16155   0.59337   0.00000  Uiso   1.00
C608   C     0.16556   0.16679   0.61661   0.00000  Uiso   1.00
C609   C     0.16584   0.16643   0.88393   0.00000  Uiso   1.00
C610   C     0.16269   0.16644   0.52434   0.00000  Uiso   1.00
C611   C     0.16198   0.16478   0.97607   0.00000  Uiso   1.00
C612   C     0.29082   0.16650   0.74977   0.00000  Uiso   1.00
C613   C     0.04273   0.16694   0.75017   0.00000  Uiso   1.00
C614   C     0.16619   0.16675   0.66433   0.00000  Uiso   1.00
C615   C     0.16661   0.16659   0.83588   0.00000  Uiso   1.00
C616   C     0.19544   0.02331   0.77574   0.00000  Uiso   1.00
C617   C     0.13788   0.30999   0.72423   0.00000  Uiso   1.00
C618   C     0.13783   0.02393   0.72427   0.00000  Uiso   1.00
C619   C     0.19549   0.30940   0.77573   0.00000  Uiso   1.00
C620   C     0.02329   0.13815   0.77969   0.00000  Uiso   1.00
H621   H     0.22932   0.17694   0.53018   0.00000  Uiso   1.00
H622   H     0.08848   0.23384   0.89798   0.00000  Uiso   1.00
H623   H     0.23308   0.12902   0.86317   0.00000  Uiso   1.00
H624   H     0.06684   0.15347   0.59547   0.00000  Uiso   1.00
H625   H     0.03190   0.08256   0.81274   0.00000  Uiso   1.00
H626   H     0.30307   0.25216   0.68861   0.00000  Uiso   1.00
H627   H     0.30961   0.11024   0.83845   0.00000  Uiso   1.00
H628   H     0.02344   0.22187   0.66062   0.00000  Uiso   1.00
H629   H     0.11177   0.21249   0.96740   0.00000  Uiso   1.00
H630   H     0.21253   0.11693   0.97528   0.00000  Uiso   1.00
H631   H     0.09646   0.15646   0.52802   0.00000  Uiso   1.00
H632   H     0.21771   0.07517   0.80529   0.00000  Uiso   1.00
H633   H     0.11571   0.25812   0.69421   0.00000  Uiso   1.00
H634   H     0.11512   0.07633   0.69428   0.00000  Uiso   1.00
H635   H     0.21820   0.25699   0.80571   0.00000  Uiso   1.00
H636   H     0.24018   0.16902   0.64745   0.00000  Uiso   1.00
N637   N     0.16667   0.28573   0.75000   0.00000  Uiso   1.00
N638   N     0.16667   0.04760   0.75000   0.00000  Uiso   1.00
O639   O     0.10559   0.20487   0.75000   0.00000  Uiso   1.00
O640   O     0.10820   0.28970   0.69683   0.00000  Uiso   1.00
O641   O     0.10787   0.04477   0.69708   0.00000  Uiso   1.00
O642   O     0.22545   0.28856   0.80292   0.00000  Uiso   1.00
O643   O     0.24186   0.17607   0.61529   0.00000  Uiso   1.00
O644   O     0.10765   0.21795   0.87830   0.00000  Uiso   1.00
O645   O     0.22586   0.11493   0.89171   0.00000  Uiso   1.00
O646   O     0.09112   0.15654   0.61692   0.00000  Uiso   1.00
O647   O     0.04750   0.11043   0.80754   0.00000  Uiso   1.00
O648   O     0.28646   0.22510   0.69435   0.00000  Uiso   1.00
O649   O     0.29182   0.11404   0.81077   0.00000  Uiso   1.00
O650   O     0.22774   0.12846   0.75001   0.00000  Uiso   1.00
O651   O     0.04184   0.21773   0.68781   0.00000  Uiso   1.00
O652   O     0.22774   0.20487   0.75001   0.00000  Uiso   1.00
O653   O     0.10559   0.12846   0.75000   0.00000  Uiso   1.00
O654   O     0.16666   0.20489   0.68453   0.00000  Uiso   1.00
O655   O     0.16667   0.12845   0.81547   0.00000  Uiso   1.00
O656   O     0.16667   0.20489   0.81547   0.00000  Uiso   1.00
O657   O     0.16666   0.12845   0.68453   0.00000  Uiso   1.00
O658   O     0.22511   0.04357   0.80312   0.00000  Uiso   1.00
Zn659  Zn    0.16667   0.21771   0.75000   0.00000  Uiso   1.00
Zn660  Zn    0.16667   0.11563   0.75000   0.00000  Uiso   1.00
C661   C     0.42024   0.16675   0.74991   0.00000  Uiso   1.00
C662   C     0.64373   0.19583   0.72075   0.00000  Uiso   1.00
C663   C     0.64651   0.13855   0.78006   0.00000  Uiso   1.00
C664   C     0.35379   0.19450   0.71954   0.00000  Uiso   1.00
C665   C     0.53419   0.17246   0.54785   0.00000  Uiso   1.00
C666   C     0.46739   0.19170   0.95085   0.00000  Uiso   1.00
C667   C     0.52438   0.13790   0.95546   0.00000  Uiso   1.00
C668   C     0.45911   0.16130   0.54676   0.00000  Uiso   1.00
C669   C     0.53628   0.17196   0.59403   0.00000  Uiso   1.00
C670   C     0.46886   0.19252   0.90436   0.00000  Uiso   1.00
C671   C     0.52747   0.13930   0.90965   0.00000  Uiso   1.00
C672   C     0.57984   0.16660   0.75005   0.00000  Uiso   1.00
C673   C     0.46026   0.16155   0.59337   0.00000  Uiso   1.00
C674   C     0.49889   0.16679   0.61661   0.00000  Uiso   1.00
C675   C     0.49918   0.16643   0.88393   0.00000  Uiso   1.00
C676   C     0.49602   0.16644   0.52434   0.00000  Uiso   1.00
C677   C     0.49531   0.16478   0.97607   0.00000  Uiso   1.00
C678   C     0.62415   0.16650   0.74977   0.00000  Uiso   1.00
C679   C     0.37606   0.16694   0.75017   0.00000  Uiso   1.00
C680   C     0.49952   0.16675   0.66433   0.00000  Uiso   1.00
C681   C     0.49994   0.16659   0.83588   0.00000  Uiso   1.00
C682   C     0.52878   0.02331   0.77574   0.00000  Uiso   1.00
C683   C     0.47122   0.30999   0.72423   0.00000  Uiso   1.00
C684   C     0.47116   0.02393   0.72427   0.00000  Uiso   1.00
C685   C     0.52882   0.30940   0.77573   0.00000  Uiso   1.00
C686   C     0.35663   0.13815   0.77969   0.00000  Uiso   1.00
H687   H     0.56266   0.17694   0.53018   0.00000  Uiso   1.00
H688   H     0.42181   0.23384   0.89798   0.00000  Uiso   1.00
H689   H     0.56641   0.12902   0.86317   0.00000  Uiso   1.00
H690   H     0.40017   0.15347   0.59547   0.00000  Uiso   1.00
H691   H     0.36524   0.08256   0.81274   0.00000  Uiso   1.00
H692   H     0.63640   0.25216   0.68861   0.00000  Uiso   1.00
H693   H     0.64294   0.11024   0.83845   0.00000  Uiso   1.00
H694   H     0.35678   0.22187   0.66062   0.00000  Uiso   1.00
H695   H     0.44510   0.21249   0.96740   0.00000  Uiso   1.00
H696   H     0.54586   0.11693   0.97528   0.00000  Uiso   1.00
H697   H     0.42979   0.15646   0.52802   0.00000  Uiso   1.00
H698   H     0.55104   0.07517   0.80529   0.00000  Uiso   1.00
H699   H     0.44904   0.25812   0.69421   0.00000  Uiso   1.00
H700   H     0.44846   0.07633   0.69428   0.00000  Uiso   1.00
H701   H     0.55153   0.25699   0.80571   0.00000  Uiso   1.00
H702   H     0.57352   0.16902   0.64745   0.00000  Uiso   1.00
N703   N     0.50000   0.28573   0.75000   0.00000  Uiso   1.00
N704   N     0.50000   0.04760   0.75000   0.00000  Uiso   1.00
O705   O     0.43892   0.20487   0.75000   0.00000  Uiso   1.00
O706   O     0.44153   0.28970   0.69683   0.00000  Uiso   1.00
O707   O     0.44120   0.04477   0.69708   0.00000  Uiso   1.00
O708   O     0.55878   0.28856   0.80292   0.00000  Uiso   1.00
O709   O     0.57520   0.17607   0.61529   0.00000  Uiso   1.00
O710   O     0.44098   0.21795   0.87830   0.00000  Uiso   1.00
O711   O     0.55919   0.11493   0.89171   0.00000  Uiso   1.00
O712   O     0.42445   0.15654   0.61692   0.00000  Uiso   1.00
O713   O     0.38083   0.11043   0.80754   0.00000  Uiso   1.00
O714   O     0.61980   0.22510   0.69435   0.00000  Uiso   1.00
O715   O     0.62515   0.11404   0.81077   0.00000  Uiso   1.00
O716   O     0.56108   0.12846   0.75001   0.00000  Uiso   1.00
O717   O     0.37517   0.21773   0.68781   0.00000  Uiso   1.00
O718   O     0.56108   0.20487   0.75001   0.00000  Uiso   1.00
O719   O     0.43892   0.12846   0.75000   0.00000  Uiso   1.00
O720   O     0.50000   0.20489   0.68453   0.00000  Uiso   1.00
O721   O     0.50000   0.12845   0.81547   0.00000  Uiso   1.00
O722   O     0.50000   0.20489   0.81547   0.00000  Uiso   1.00
O723   O     0.50000   0.12845   0.68453   0.00000  Uiso   1.00
O724   O     0.55844   0.04357   0.80312   0.00000  Uiso   1.00
Zn725  Zn    0.50000   0.21771   0.75000   0.00000  Uiso   1.00
Zn726  Zn    0.50000   0.11563   0.75000   0.00000  Uiso   1.00
C727   C     0.75357   0.16675   0.74991   0.00000  Uiso   1.00
C728   C     0.97706   0.19583   0.72075   0.00000  Uiso   1.00
C729   C     0.97984   0.13855   0.78006   0.00000  Uiso   1.00
C730   C     0.68713   0.19450   0.71954   0.00000  Uiso   1.00
C731   C     0.86752   0.17246   0.54785   0.00000  Uiso   1.00
C732   C     0.80072   0.19170   0.95085   0.00000  Uiso   1.00
C733   C     0.85771   0.13790   0.95546   0.00000  Uiso   1.00
C734   C     0.79244   0.16130   0.54676   0.00000  Uiso   1.00
C735   C     0.86961   0.17196   0.59403   0.00000  Uiso   1.00
C736   C     0.80220   0.19252   0.90436   0.00000  Uiso   1.00
C737   C     0.86080   0.13930   0.90965   0.00000  Uiso   1.00
C738   C     0.91317   0.16660   0.75005   0.00000  Uiso   1.00
C739   C     0.79359   0.16155   0.59337   0.00000  Uiso   1.00
C740   C     0.83222   0.16679   0.61661   0.00000  Uiso   1.00
C741   C     0.83251   0.16643   0.88393   0.00000  Uiso   1.00
C742   C     0.82936   0.16644   0.52434   0.00000  Uiso   1.00
C743   C     0.82864   0.16478   0.97607   0.00000  Uiso   1.00
C744   C     0.95749   0.16650   0.74977   0.00000  Uiso   1.00
C745   C     0.70939   0.16694   0.75017   0.00000  Uiso   1.00
C746   C     0.83286   0.16675   0.66433   0.00000  Uiso   1.00
C747   C     0.83327   0.16659   0.83588   0.00000  Uiso   1.00
C748   C     0.86211   0.02331   0.77574   0.00000  Uiso   1.00
C749   C     0.80455   0.30999   0.72423   0.00000  Uiso   1.00
C750   C     0.80449   0.02393   0.72427   0.00000  Uiso   1.00
C751   C     0.86216   0.30940   0.77573   0.00000  Uiso   1.00
C752   C     0.68996   0.13815   0.77969   0.00000  Uiso   1.00
H753   H     0.89599   0.17694   0.53018   0.00000  Uiso   1.00
H754   H     0.75515   0.23384   0.89798   0.00000  Uiso   1.00
H755   H     0.89975   0.12902   0.86317   0.00000  Uiso   1.00
H756   H     0.73351   0.15347   0.59547   0.00000  Uiso   1.00
H757   H     0.69857   0.08256   0.81274   0.00000  Uiso   1.00
H758   H     0.96973   0.25216   0.68861   0.00000  Uiso   1.00
H759   H     0.97628   0.11024   0.83845   0.00000  Uiso   1.00
H760   H     0.69011   0.22187   0.66062   0.00000  Uiso   1.00
H761   H     0.77843   0.21249   0.96740   0.00000  Uiso   1.00
H762   H     0.87920   0.11693   0.97528   0.00000  Uiso   1.00
H763   H     0.76313   0.15646   0.52802   0.00000  Uiso   1.00
H764   H     0.88438   0.07517   0.80529   0.00000  Uiso   1.00
H765   H     0.78237   0.25812   0.69421   0.00000  Uiso   1.00
H766   H     0.78179   0.07633   0.69428   0.00000  Uiso   1.00
H767   H     0.88486   0.25699   0.80571   0.00000  Uiso   1.00
H768   H     0.90685   0.16902   0.64745   0.00000  Uiso   1.00
N769   N     0.83333   0.28573   0.75000   0.00000  Uiso   1.00
N770   N     0.83333   0.04760   0.75000   0.00000  Uiso   1.00
O771   O     0.77226   0.20487   0.75000   0.00000  Uiso   1.00
O772   O     0.77487   0.28970   0.69683   0.00000  Uiso   1.00
O773   O     0.77453   0.04477   0.69708   0.00000  Uiso   1.00
O774   O     0.89212   0.28856   0.80292   0.00000  Uiso   1.00
O775   O     0.90853   0.17607   0.61529   0.00000  Uiso   1.00
O776   O     0.77431   0.21795   0.87830   0.00000  Uiso   1.00
O777   O     0.89253   0.11493   0.89171   0.00000  Uiso   1.00
O778   O     0.75779   0.15654   0.61692   0.00000  Uiso   1.00
O779   O     0.71416   0.11043   0.80754   0.00000  Uiso   1.00
O780   O     0.95313   0.22510   0.69435   0.00000  Uiso   1.00
O781   O     0.95848   0.11404   0.81077   0.00000  Uiso   1.00
O782   O     0.89441   0.12846   0.75001   0.00000  Uiso   1.00
O783   O     0.70850   0.21773   0.68781   0.00000  Uiso   1.00
O784   O     0.89441   0.20487   0.75001   0.00000  Uiso   1.00
O785   O     0.77226   0.12846   0.75000   0.00000  Uiso   1.00
O786   O     0.83333   0.20489   0.68453   0.00000  Uiso   1.00
O787   O     0.83334   0.12845   0.81547   0.00000  Uiso   1.00
O788   O     0.83334   0.20489   0.81547   0.00000  Uiso   1.00
O789   O     0.83333   0.12845   0.68453   0.00000  Uiso   1.00
O790   O     0.89178   0.04357   0.80312   0.00000  Uiso   1.00
Zn791  Zn    0.83333   0.21771   0.75000   0.00000  Uiso   1.00
Zn792  Zn    0.83333   0.11563   0.75000   0.00000  Uiso   1.00
C793   C     0.08690   0.50008   0.74991   0.00000  Uiso   1.00
C794   C     0.31039   0.52917   0.72075   0.00000  Uiso   1.00
C795   C     0.31317   0.47188   0.78006   0.00000  Uiso   1.00
C796   C     0.02046   0.52783   0.71954   0.00000  Uiso   1.00
C797   C     0.20086   0.50579   0.54785   0.00000  Uiso   1.00
C798   C     0.13406   0.52504   0.95085   0.00000  Uiso   1.00
C799   C     0.19104   0.47123   0.95546   0.00000  Uiso   1.00
C800   C     0.12578   0.49463   0.54676   0.00000  Uiso   1.00
C801   C     0.20294   0.50529   0.59403   0.00000  Uiso   1.00
C802   C     0.13553   0.52585   0.90436   0.00000  Uiso   1.00
C803   C     0.19414   0.47264   0.90965   0.00000  Uiso   1.00
C804   C     0.24651   0.49994   0.75005   0.00000  Uiso   1.00
C805   C     0.12693   0.49488   0.59337   0.00000  Uiso   1.00
C806   C     0.16556   0.50013   0.61661   0.00000  Uiso   1.00
C807   C     0.16584   0.49976   0.88393   0.00000  Uiso   1.00
C808   C     0.16269   0.49977   0.52434   0.00000  Uiso   1.00
C809   C     0.16198   0.49811   0.97607   0.00000  Uiso   1.00
C810   C     0.29082   0.49983   0.74977   0.00000  Uiso   1.00
C811   C     0.04273   0.50027   0.75017   0.00000  Uiso   1.00
C812   C     0.16619   0.50008   0.66433   0.00000  Uiso   1.00
C813   C     0.16661   0.49992   0.83588   0.00000  Uiso   1.00
C814   C     0.19544   0.35664   0.77574   0.00000  Uiso   1.00
C815   C     0.13788   0.64333   0.72423   0.00000  Uiso   1.00
C816   C     0.13783   0.35726   0.72427   0.00000  Uiso   1.00
C817   C     0.19549   0.64273   0.77573   0.00000  Uiso   1.00
C818   C     0.02329   0.47148   0.77969   0.00000  Uiso   1.00
H819   H     0.22932   0.51027   0.53018   0.00000  Uiso   1.00
H820   H     0.08848   0.56717   0.89798   0.00000  Uiso   1.00
H821   H     0.23308   0.46235   0.86317   0.00000  Uiso   1.00
H822   H     0.06684   0.48680   0.59547   0.00000  Uiso   1.00
H823   H     0.03190   0.41589   0.81274   0.00000  Uiso   1.00
H824   H     0.30307   0.58550   0.68861   0.00000  Uiso   1.00
H825   H     0.30961   0.44357   0.83845   0.00000  Uiso   1.00
H826   H     0.02344   0.55520   0.66062   0.00000  Uiso   1.00
H827   H     0.11177   0.54583   0.96740   0.00000  Uiso   1.00
H828   H     0.21253   0.45027   0.97528   0.00000  Uiso   1.00
H829   H     0.09646   0.48979   0.52802   0.00000  Uiso   1.00
H830   H     0.21771   0.40851   0.80529   0.00000  Uiso   1.00
H831   H     0.11571   0.59146   0.69421   0.00000  Uiso   1.00
H832   H     0.11512   0.40967   0.69428   0.00000  Uiso   1.00
H833   H     0.21820   0.59033   0.80571   0.00000  Uiso   1.00
H834   H     0.24018   0.50235   0.64745   0.00000  Uiso   1.00
N835   N     0.16667   0.61907   0.75000   0.00000  Uiso   1.00
N836   N     0.16667   0.38093   0.75000   0.00000  Uiso   1.00
O837   O     0.10559   0.53821   0.75000   0.00000  Uiso   1.00
O838   O     0.10820   0.62303   0.69683   0.00000  Uiso   1.00
O839   O     0.10787   0.37810   0.69708   0.00000  Uiso   1.00
O840   O     0.22545   0.62189   0.80292   0.00000  Uiso   1.00
O841   O     0.24186   0.50940   0.61529   0.00000  Uiso   1.00
O842   O     0.10765   0.55129   0.87830   0.00000  Uiso   1.00
O843   O     0.22586   0.44827   0.89171   0.00000  Uiso   1.00
O844   O     0.09112   0.48988   0.61692   0.00000  Uiso   1.00
O845   O     0.04750   0.44377   0.80754   0.00000  Uiso   1.00
O846   O     0.28646   0.55843   0.69435   0.00000  Uiso   1.00
O847   O     0.29182   0.44738   0.81077   0.00000  Uiso   1.00
O848   O     0.22774   0.46179   0.75001   0.00000  Uiso   1.00
O849   O     0.04184   0.55106   0.68781   0.00000  Uiso   1.00
O850   O     0.22774   0.53821   0.75001   0.00000  Uiso   1.00
O851   O     0.10559   0.46179   0.75000   0.00000  Uiso   1.00
O852   O     0.16666   0.53822   0.68453   0.00000  Uiso   1.00
O853   O     0.16667   0.46178   0.81547   0.00000  Uiso   1.00
O854   O     0.16667   0.53822   0.81547   0.00000  Uiso   1.00
O855   O     0.16666   0.46178   0.68453   0.00000  Uiso   1.00
O856   O     0.22511   0.37690   0.80312   0.00000  Uiso   1.00
Zn857  Zn    0.16667   0.55104   0.75000   0.00000  Uiso   1.00
Zn858  Zn    0.16667   0.44896   0.75000   0.00000  Uiso   1.00
C859   C     0.42024   0.50008   0.74991   0.00000  Uiso   1.00
C860   C     0.64373   0.52917   0.72075   0.00000  Uiso   1.00
C861   C     0.64651   0.47188   0.78006   0.00000  Uiso   1.00
C862   C     0.35379   0.52783   0.71954   0.00000  Uiso   1.00
C863   C     0.53419   0.50579   0.54785   0.00000  Uiso   1.00
C864   C     0.46739   0.52504   0.95085   0.00000  Uiso   1.00
C865   C     0.52438   0.47123   0.95546   0.00000  Uiso   1.00
C866   C     0.45911   0.49463   0.54676   0.00000  Uiso   1.00
C867   C     0.53628   0.50529   0.59403   0.00000  Uiso   1.00
C868   C     0.46886   0.52585   0.90436   0.00000  Uiso   1.00
C869   C     0.52747   0.47264   0.90965   0.00000  Uiso   1.00
C870   C     0.57984   0.49994   0.75005   0.00000  Uiso   1.00
C871   C     0.46026   0.49488   0.59337   0.00000  Uiso   1.00
C872   C     0.49889   0.50013   0.61661   0.00000  Uiso   1.00
C873   C     0.49918   0.49976   0.88393   0.00000  Uiso   1.00
C874   C     0.49602   0.49977   0.52434   0.00000  Uiso   1.00
C875   C     0.49531   0.49811   0.97607   0.00000  Uiso   1.00
C876   C     0.62415   0.49983   0.74977   0.00000  Uiso   1.00
C877   C     0.37606   0.50027   0.75017   0.00000  Uiso   1.00
C878   C     0.49952   0.50008   0.66433   0.00000  Uiso   1.00
C879   C     0.49994   0.49992   0.83588   0.00000  Uiso   1.00
C880   C     0.52878   0.35664   0.77574   0.00000  Uiso   1.00
C881   C     0.47122   0.64333   0.72423   0.00000  Uiso   1.00
C882   C     0.47116   0.35726   0.72427   0.00000  Uiso   1.00
C883   C     0.52882   0.64273   0.77573   0.00000  Uiso   1.00
C884   C     0.35663   0.47148   0.77969   0.00000  Uiso   1.00
H885   H     0.56266   0.51027   0.53018   0.00000  Uiso   1.00
H886   H     0.42181   0.56717   0.89798   0.00000  Uiso   1.00
H887   H     0.56641   0.46235   0.86317   0.00000  Uiso   1.00
H888   H     0.40017   0.48680   0.59547   0.00000  Uiso   1.00
H889   H     0.36524   0.41589   0.81274   0.00000  Uiso   1.00
H890   H     0.63640   0.58550   0.68861   0.00000  Uiso   1.00
H891   H     0.64294   0.44357   0.83845   0.00000  Uiso   1.00
H892   H     0.35678   0.55520   0.66062   0.00000  Uiso   1.00
H893   H     0.44510   0.54583   0.96740   0.00000  Uiso   1.00
H894   H     0.54586   0.45027   0.97528   0.00000  Uiso   1.00
H895   H     0.42979   0.48979   0.52802   0.00000  Uiso   1.00
H896   H     0.55104   0.40851   0.80529   0.00000  Uiso   1.00
H897   H     0.44904   0.59146   0.69421   0.00000  Uiso   1.00
H898   H     0.44846   0.40967   0.69428   0.00000  Uiso   1.00
H899   H     0.55153   0.59033   0.80571   0.00000  Uiso   1.00
H900   H     0.57352   0.50235   0.64745   0.00000  Uiso   1.00
N901   N     0.50000   0.61907   0.75000   0.00000  Uiso   1.00
N902   N     0.50000   0.38093   0.75000   0.00000  Uiso   1.00
O903   O     0.43892   0.53821   0.75000   0.00000  Uiso   1.00
O904   O     0.44153   0.62303   0.69683   0.00000  Uiso   1.00
O905   O     0.44120   0.37810   0.69708   0.00000  Uiso   1.00
O906   O     0.55878   0.62189   0.80292   0.00000  Uiso   1.00
O907   O     0.57520   0.50940   0.61529   0.00000  Uiso   1.00
O908   O     0.44098   0.55129   0.87830   0.00000  Uiso   1.00
O909   O     0.55919   0.44827   0.89171   0.00000  Uiso   1.00
O910   O     0.42445   0.48988   0.61692   0.00000  Uiso   1.00
O911   O     0.38083   0.44377   0.80754   0.00000  Uiso   1.00
O912   O     0.61980   0.55843   0.69435   0.00000  Uiso   1.00
O913   O     0.62515   0.44738   0.81077   0.00000  Uiso   1.00
O914   O     0.56108   0.46179   0.75001   0.00000  Uiso   1.00
O915   O     0.37517   0.55106   0.68781   0.00000  Uiso   1.00
O916   O     0.56108   0.53821   0.75001   0.00000  Uiso   1.00
O917   O     0.43892   0.46179   0.75000   0.00000  Uiso   1.00
O918   O     0.50000   0.53822   0.68453   0.00000  Uiso   1.00
O919   O     0.50000   0.46178   0.81547   0.00000  Uiso   1.00
O920   O     0.50000   0.53822   0.81547   0.00000  Uiso   1.00
O921   O     0.50000   0.46178   0.68453   0.00000  Uiso   1.00
O922   O     0.55844   0.37690   0.80312   0.00000  Uiso   1.00
Zn923  Zn    0.50000   0.55104   0.75000   0.00000  Uiso   1.00
Zn924  Zn    0.50000   0.44896   0.75000   0.00000  Uiso   1.00
C925   C     0.75357   0.50008   0.74991   0.00000  Uiso   1.00
C926   C     0.97706   0.52917   0.72075   0.00000  Uiso   1.00
C927   C     0.97984   0.47188   0.78006   0.00000  Uiso   1.00
C928   C     0.68713   0.52783   0.71954   0.00000  Uiso   1.00
C929   C     0.86752   0.50579   0.54785   0.00000  Uiso   1.00
C930   C     0.80072   0.52504   0.95085   0.00000  Uiso   1.00
C931   C     0.85771   0.47123   0.95546   0.00000  Uiso   1.00
C932   C     0.79244   0.49463   0.54676   0.00000  Uiso   1.00
C933   C     0.86961   0.50529   0.59403   0.00000  Uiso   1.00
C934   C     0.80220   0.52585   0.90436   0.00000  Uiso   1.00
C935   C     0.86080   0.47264   0.90965   0.00000  Uiso   1.00
C936   C     0.91317   0.49994   0.75005   0.00000  Uiso   1.00
C937   C     0.79359   0.49488   0.59337   0.00000  Uiso   1.00
C938   C     0.83222   0.50013   0.61661   0.00000  Uiso   1.00
C939   C     0.83251   0.49976   0.88393   0.00000  Uiso   1.00
C940   C     0.82936   0.49977   0.52434   0.00000  Uiso   1.00
C941   C     0.82864   0.49811   0.97607   0.00000  Uiso   1.00
C942   C     0.95749   0.49983   0.74977   0.00000  Uiso   1.00
C943   C     0.70939   0.50027   0.75017   0.00000  Uiso   1.00
C944   C     0.83286   0.50008   0.66433   0.00000  Uiso   1.00
C945   C     0.83327   0.49992   0.83588   0.00000  Uiso   1.00
C946   C     0.86211   0.35664   0.77574   0.00000  Uiso   1.00
C947   C     0.80455   0.64333   0.72423   0.00000  Uiso   1.00
C948   C     0.80449   0.35726   0.72427   0.00000  Uiso   1.00
C949   C     0.86216   0.64273   0.77573   0.00000  Uiso   1.00
C950   C     0.68996   0.47148   0.77969   0.00000  Uiso   1.00
H951   H     0.89599   0.51027   0.53018   0.00000  Uiso   1.00
H952   H     0.75515   0.56717   0.89798   0.00000  Uiso   1.00
H953   H     0.89975   0.46235   0.86317   0.00000  Uiso   1.00
H954   H     0.73351   0.48680   0.59547   0.00000  Uiso   1.00
H955   H     0.69857   0.41589   0.81274   0.00000  Uiso   1.00
H956   H     0.96973   0.58550   0.68861   0.00000  Uiso   1.00
H957   H     0.97628   0.44357   0.83845   0.00000  Uiso   1.00
H958   H     0.69011   0.55520   0.66062   0.00000  Uiso   1.00
H959   H     0.77843   0.54583   0.96740   0.00000  Uiso   1.00
H960   H     0.87920   0.45027   0.97528   0.00000  Uiso   1.00
H961   H     0.76313   0.48979   0.52802   0.00000  Uiso   1.00
H962   H     0.88438   0.40851   0.80529   0.00000  Uiso   1.00
H963   H     0.78237   0.59146   0.69421   0.00000  Uiso   1.00
H964   H     0.78179   0.40967   0.69428   0.00000  Uiso   1.00
H965   H     0.88486   0.59033   0.80571   0.00000  Uiso   1.00
H966   H     0.90685   0.50235   0.64745   0.00000  Uiso   1.00
N967   N     0.83333   0.61907   0.75000   0.00000  Uiso   1.00
N968   N     0.83333   0.38093   0.75000   0.00000  Uiso   1.00
O969   O     0.77226   0.53821   0.75000   0.00000  Uiso   1.00
O970   O     0.77487   0.62303   0.69683   0.00000  Uiso   1.00
O971   O     0.77453   0.37810   0.69708   0.00000  Uiso   1.00
O972   O     0.89212   0.62189   0.80292   0.00000  Uiso   1.00
O973   O     0.90853   0.50940   0.61529   0.00000  Uiso   1.00
O974   O     0.77431   0.55129   0.87830   0.00000  Uiso   1.00
O975   O     0.89253   0.44827   0.89171   0.00000  Uiso   1.00
O976   O     0.75779   0.48988   0.61692   0.00000  Uiso   1.00
O977   O     0.71416   0.44377   0.80754   0.00000  Uiso   1.00
O978   O     0.95313   0.55843   0.69435   0.00000  Uiso   1.00
O979   O     0.95848   0.44738   0.81077   0.00000  Uiso   1.00
O980   O     0.89441   0.46179   0.75001   0.00000  Uiso   1.00
O981   O     0.70850   0.55106   0.68781   0.00000  Uiso   1.00
O982   O     0.89441   0.53821   0.75001   0.00000  Uiso   1.00
O983   O     0.77226   0.46179   0.75000   0.00000  Uiso   1.00
O984   O     0.83333   0.53822   0.68453   0.00000  Uiso   1.00
O985   O     0.83334   0.46178   0.81547   0.00000  Uiso   1.00
O986   O     0.83334   0.53822   0.81547   0.00000  Uiso   1.00
O987   O     0.83333   0.46178   0.68453   0.00000  Uiso   1.00
O988   O     0.89178   0.37690   0.80312   0.00000  Uiso   1.00
Zn989  Zn    0.83333   0.55104   0.75000   0.00000  Uiso   1.00
Zn990  Zn    0.83333   0.44896   0.75000   0.00000  Uiso   1.00
C991   C     0.08690   0.83342   0.74991   0.00000  Uiso   1.00
C992   C     0.31039   0.86250   0.72075   0.00000  Uiso   1.00
C993   C     0.31317   0.80521   0.78006   0.00000  Uiso   1.00
C994   C     0.02046   0.86117   0.71954   0.00000  Uiso   1.00
C995   C     0.20086   0.83912   0.54785   0.00000  Uiso   1.00
C996   C     0.13406   0.85837   0.95085   0.00000  Uiso   1.00
C997   C     0.19104   0.80457   0.95546   0.00000  Uiso   1.00
C998   C     0.12578   0.82796   0.54676   0.00000  Uiso   1.00
C999   C     0.20294   0.83862   0.59403   0.00000  Uiso   1.00
C1000  C     0.13553   0.85918   0.90436   0.00000  Uiso   1.00
C1001  C     0.19414   0.80597   0.90965   0.00000  Uiso   1.00
C1002  C     0.24651   0.83327   0.75005   0.00000  Uiso   1.00
C1003  C     0.12693   0.82822   0.59337   0.00000  Uiso   1.00
C1004  C     0.16556   0.83346   0.61661   0.00000  Uiso   1.00
C1005  C     0.16584   0.83309   0.88393   0.00000  Uiso   1.00
C1006  C     0.16269   0.83311   0.52434   0.00000  Uiso   1.00
C1007  C     0.16198   0.83144   0.97607   0.00000  Uiso   1.00
C1008  C     0.29082   0.83317   0.74977   0.00000  Uiso   1.00
C1009  C     0.04273   0.83360   0.75017   0.00000  Uiso   1.00
C1010  C     0.16619   0.83342   0.66433   0.00000  Uiso   1.00
C1011  C     0.16661   0.83325   0.83588   0.00000  Uiso   1.00
C1012  C     0.19544   0.68997   0.77574   0.00000  Uiso   1.00
C1013  C     0.13788   0.97666   0.72423   0.00000  Uiso   1.00
C1014  C     0.13783   0.69059   0.72427   0.00000  Uiso   1.00
C1015  C     0.19549   0.97606   0.77573   0.00000  Uiso   1.00
C1016  C     0.02329   0.80481   0.77969   0.00000  Uiso   1.00
H1017  H     0.22932   0.84361   0.53018   0.00000  Uiso   1.00
H1018  H     0.08848   0.90050   0.89798   0.00000  Uiso   1.00
H1019  H     0.23308   0.79568   0.86317   0.00000  Uiso   1.00
H1020  H     0.06684   0.82014   0.59547   0.00000  Uiso   1.00
H1021  H     0.03190   0.74923   0.81274   0.00000  Uiso   1.00
H1022  H     0.30307   0.91883   0.68861   0.00000  Uiso   1.00
H1023  H     0.30961   0.77691   0.83845   0.00000  Uiso   1.00
H1024  H     0.02344   0.88854   0.66062   0.00000  Uiso   1.00
H1025  H     0.11177   0.87916   0.96740   0.00000  Uiso   1.00
H1026  H     0.21253   0.78360   0.97528   0.00000  Uiso   1.00
H1027  H     0.09646   0.82312   0.52802   0.00000  Uiso   1.00
H1028  H     0.21771   0.74184   0.80529   0.00000  Uiso   1.00
H1029  H     0.11571   0.92479   0.69421   0.00000  Uiso   1.00
H1030  H     0.11512   0.74300   0.69428   0.00000  Uiso   1.00
H1031  H     0.21820   0.92366   0.80571   0.00000  Uiso   1.00
H1032  H     0.24018   0.83568   0.64745   0.00000  Uiso   1.00
N1033  N     0.16667   0.95240   0.75000   0.00000  Uiso   1.00
N1034  N     0.16667   0.71427   0.75000   0.00000  Uiso   1.00
O1035  O     0.10559   0.87154   0.75000   0.00000  Uiso   1.00
O1036  O     0.10820   0.95636   0.69683   0.00000  Uiso   1.00
O1037  O     0.10787   0.71143   0.69708   0.00000  Uiso   1.00
O1038  O     0.22545   0.95522   0.80292   0.00000  Uiso   1.00
O1039  O     0.24186   0.84273   0.61529   0.00000  Uiso   1.00
O1040  O     0.10765   0.88462   0.87830   0.00000  Uiso   1.00
O1041  O     0.22586   0.78160   0.89171   0.00000  Uiso   1.00
O1042  O     0.09112   0.82321   0.61692   0.00000  Uiso   1.00
O1043  O     0.04750   0.77710   0.80754   0.00000  Uiso   1.00
O1044  O     0.28646   0.89176   0.69435   0.00000  Uiso   1.00
O1045  O     0.29182   0.78071   0.81077   0.00000  Uiso   1.00
O1046  O     0.22774   0.79513   0.75001   0.00000  Uiso   1.00
O1047  O     0.04184   0.88440   0.68781   0.00000  Uiso   1.00
O1048  O     0.22774   0.87154   0.75001   0.00000  Uiso   1.00
O1049  O     0.10559   0.79513   0.75000   0.00000  Uiso   1.00
O1050  O     0.16666   0.87155   0.68453   0.00000  Uiso   1.00
O1051  O     0.16667   0.79511   0.81547   0.00000  Uiso   1.00
O1052  O     0.16667   0.87155   0.81547   0.00000  Uiso   1.00
O1053  O     0.16666   0.79511   0.68453   0.00000  Uiso   1.00
O1054  O     0.22511   0.71023   0.80312   0.00000  Uiso   1.00
Zn1055 Zn    0.16667   0.88437   0.75000   0.00000  Uiso   1.00
Zn1056 Zn    0.16667   0.78229   0.75000   0.00000  Uiso   1.00
C1057  C     0.42024   0.83342   0.74991   0.00000  Uiso   1.00
C1058  C     0.64373   0.86250   0.72075   0.00000  Uiso   1.00
C1059  C     0.64651   0.80521   0.78006   0.00000  Uiso   1.00
C1060  C     0.35379   0.86117   0.71954   0.00000  Uiso   1.00
C1061  C     0.53419   0.83912   0.54785   0.00000  Uiso   1.00
C1062  C     0.46739   0.85837   0.95085   0.00000  Uiso   1.00
C1063  C     0.52438   0.80457   0.95546   0.00000  Uiso   1.00
C1064  C     0.45911   0.82796   0.54676   0.00000  Uiso   1.00
C1065  C     0.53628   0.83862   0.59403   0.00000  Uiso   1.00
C1066  C     0.46886   0.85918   0.90436   0.00000  Uiso   1.00
C1067  C     0.52747   0.80597   0.90965   0.00000  Uiso   1.00
C1068  C     0.57984   0.83327   0.75005   0.00000  Uiso   1.00
C1069  C     0.46026   0.82822   0.59337   0.00000  Uiso   1.00
C1070  C     0.49889   0.83346   0.61661   0.00000  Uiso   1.00
C1071  C     0.49918   0.83309   0.88393   0.00000  Uiso   1.00
C1072  C     0.49602   0.83311   0.52434   0.00000  Uiso   1.00
C1073  C     0.49531   0.83144   0.97607   0.00000  Uiso   1.00
C1074  C     0.62415   0.83317   0.74977   0.00000  Uiso   1.00
C1075  C     0.37606   0.83360   0.75017   0.00000  Uiso   1.00
C1076  C     0.49952   0.83342   0.66433   0.00000  Uiso   1.00
C1077  C     0.49994   0.83325   0.83588   0.00000  Uiso   1.00
C1078  C     0.52878   0.68997   0.77574   0.00000  Uiso   1.00
C1079  C     0.47122   0.97666   0.72423   0.00000  Uiso   1.00
C1080  C     0.47116   0.69059   0.72427   0.00000  Uiso   1.00
C1081  C     0.52882   0.97606   0.77573   0.00000  Uiso   1.00
C1082  C     0.35663   0.80481   0.77969   0.00000  Uiso   1.00
H1083  H     0.56266   0.84361   0.53018   0.00000  Uiso   1.00
H1084  H     0.42181   0.90050   0.89798   0.00000  Uiso   1.00
H1085  H     0.56641   0.79568   0.86317   0.00000  Uiso   1.00
H1086  H     0.40017   0.82014   0.59547   0.00000  Uiso   1.00
H1087  H     0.36524   0.74923   0.81274   0.00000  Uiso   1.00
H1088  H     0.63640   0.91883   0.68861   0.00000  Uiso   1.00
H1089  H     0.64294   0.77691   0.83845   0.00000  Uiso   1.00
H1090  H     0.35678   0.88854   0.66062   0.00000  Uiso   1.00
H1091  H     0.44510   0.87916   0.96740   0.00000  Uiso   1.00
H1092  H     0.54586   0.78360   0.97528   0.00000  Uiso   1.00
H1093  H     0.42979   0.82312   0.52802   0.00000  Uiso   1.00
H1094  H     0.55104   0.74184   0.80529   0.00000  Uiso   1.00
H1095  H     0.44904   0.92479   0.69421   0.00000  Uiso   1.00
H1096  H     0.44846   0.74300   0.69428   0.00000  Uiso   1.00
H1097  H     0.55153   0.92366   0.80571   0.00000  Uiso   1.00
H1098  H     0.57352   0.83568   0.64745   0.00000  Uiso   1.00
N1099  N     0.50000   0.95240   0.75000   0.00000  Uiso   1.00
N1100  N     0.50000   0.71427   0.75000   0.00000  Uiso   1.00
O1101  O     0.43892   0.87154   0.75000   0.00000  Uiso   1.00
O1102  O     0.44153   0.95636   0.69683   0.00000  Uiso   1.00
O1103  O     0.44120   0.71143   0.69708   0.00000  Uiso   1.00
O1104  O     0.55878   0.95522   0.80292   0.00000  Uiso   1.00
O1105  O     0.57520   0.84273   0.61529   0.00000  Uiso   1.00
O1106  O     0.44098   0.88462   0.87830   0.00000  Uiso   1.00
O1107  O     0.55919   0.78160   0.89171   0.00000  Uiso   1.00
O1108  O     0.42445   0.82321   0.61692   0.00000  Uiso   1.00
O1109  O     0.38083   0.77710   0.80754   0.00000  Uiso   1.00
O1110  O     0.61980   0.89176   0.69435   0.00000  Uiso   1.00
O1111  O     0.62515   0.78071   0.81077   0.00000  Uiso   1.00
O1112  O     0.56108   0.79513   0.75001   0.00000  Uiso   1.00
O1113  O     0.37517   0.88440   0.68781   0.00000  Uiso   1.00
O1114  O     0.56108   0.87154   0.75001   0.00000  Uiso   1.00
O1115  O     0.43892   0.79513   0.75000   0.00000  Uiso   1.00
O1116  O     0.50000   0.87155   0.68453   0.00000  Uiso   1.00
O1117  O     0.50000   0.79511   0.81547   0.00000  Uiso   1.00
O1118  O     0.50000   0.87155   0.81547   0.00000  Uiso   1.00
O1119  O     0.50000   0.79511   0.68453   0.00000  Uiso   1.00
O1120  O     0.55844   0.71023   0.80312   0.00000  Uiso   1.00
Zn1121 Zn    0.50000   0.88437   0.75000   0.00000  Uiso   1.00
Zn1122 Zn    0.50000   0.78229   0.75000   0.00000  Uiso   1.00
C1123  C     0.75357   0.83342   0.74991   0.00000  Uiso   1.00
C1124  C     0.97706   0.86250   0.72075   0.00000  Uiso   1.00
C1125  C     0.97984   0.80521   0.78006   0.00000  Uiso   1.00
C1126  C     0.68713   0.86117   0.71954   0.00000  Uiso   1.00
C1127  C     0.86752   0.83912   0.54785   0.00000  Uiso   1.00
C1128  C     0.80072   0.85837   0.95085   0.00000  Uiso   1.00
C1129  C     0.85771   0.80457   0.95546   0.00000  Uiso   1.00
C1130  C     0.79244   0.82796   0.54676   0.00000  Uiso   1.00
C1131  C     0.86961   0.83862   0.59403   0.00000  Uiso   1.00
C1132  C     0.80220   0.85918   0.90436   0.00000  Uiso   1.00
C1133  C     0.86080   0.80597   0.90965   0.00000  Uiso   1.00
C1134  C     0.91317   0.83327   0.75005   0.00000  Uiso   1.00
C1135  C     0.79359   0.82822   0.59337   0.00000  Uiso   1.00
C1136  C     0.83222   0.83346   0.61661   0.00000  Uiso   1.00
C1137  C     0.83251   0.83309   0.88393   0.00000  Uiso   1.00
C1138  C     0.82936   0.83311   0.52434   0.00000  Uiso   1.00
C1139  C     0.82864   0.83144   0.97607   0.00000  Uiso   1.00
C1140  C     0.95749   0.83317   0.74977   0.00000  Uiso   1.00
C1141  C     0.70939   0.83360   0.75017   0.00000  Uiso   1.00
C1142  C     0.83286   0.83342   0.66433   0.00000  Uiso   1.00
C1143  C     0.83327   0.83325   0.83588   0.00000  Uiso   1.00
C1144  C     0.86211   0.68997   0.77574   0.00000  Uiso   1.00
C1145  C     0.80455   0.97666   0.72423   0.00000  Uiso   1.00
C1146  C     0.80449   0.69059   0.72427   0.00000  Uiso   1.00
C1147  C     0.86216   0.97606   0.77573   0.00000  Uiso   1.00
C1148  C     0.68996   0.80481   0.77969   0.00000  Uiso   1.00
H1149  H     0.89599   0.84361   0.53018   0.00000  Uiso   1.00
H1150  H     0.75515   0.90050   0.89798   0.00000  Uiso   1.00
H1151  H     0.89975   0.79568   0.86317   0.00000  Uiso   1.00
H1152  H     0.73351   0.82014   0.59547   0.00000  Uiso   1.00
H1153  H     0.69857   0.74923   0.81274   0.00000  Uiso   1.00
H1154  H     0.96973   0.91883   0.68861   0.00000  Uiso   1.00
H1155  H     0.97628   0.77691   0.83845   0.00000  Uiso   1.00
H1156  H     0.69011   0.88854   0.66062   0.00000  Uiso   1.00
H1157  H     0.77843   0.87916   0.96740   0.00000  Uiso   1.00
H1158  H     0.87920   0.78360   0.97528   0.00000  Uiso   1.00
H1159  H     0.76313   0.82312   0.52802   0.00000  Uiso   1.00
H1160  H     0.88438   0.74184   0.80529   0.00000  Uiso   1.00
H1161  H     0.78237   0.92479   0.69421   0.00000  Uiso   1.00
H1162  H     0.78179   0.74300   0.69428   0.00000  Uiso   1.00
H1163  H     0.88486   0.92366   0.80571   0.00000  Uiso   1.00
H1164  H     0.90685   0.83568   0.64745   0.00000  Uiso   1.00
N1165  N     0.83333   0.95240   0.75000   0.00000  Uiso   1.00
N1166  N     0.83333   0.71427   0.75000   0.00000  Uiso   1.00
O1167  O     0.77226   0.87154   0.75000   0.00000  Uiso   1.00
O1168  O     0.77487   0.95636   0.69683   0.00000  Uiso   1.00
O1169  O     0.77453   0.71143   0.69708   0.00000  Uiso   1.00
O1170  O     0.89212   0.95522   0.80292   0.00000  Uiso   1.00
O1171  O     0.90853   0.84273   0.61529   0.00000  Uiso   1.00
O1172  O     0.77431   0.88462   0.87830   0.00000  Uiso   1.00
O1173  O     0.89253   0.78160   0.89171   0.00000  Uiso   1.00
O1174  O     0.75779   0.82321   0.61692   0.00000  Uiso   1.00
O1175  O     0.71416   0.77710   0.80754   0.00000  Uiso   1.00
O1176  O     0.95313   0.89176   0.69435   0.00000  Uiso   1.00
O1177  O     0.95848   0.78071   0.81077   0.00000  Uiso   1.00
O1178  O     0.89441   0.79513   0.75001   0.00000  Uiso   1.00
O1179  O     0.70850   0.88440   0.68781   0.00000  Uiso   1.00
O1180  O     0.89441   0.87154   0.75001   0.00000  Uiso   1.00
O1181  O     0.77226   0.79513   0.75000   0.00000  Uiso   1.00
O1182  O     0.83333   0.87155   0.68453   0.00000  Uiso   1.00
O1183  O     0.83334   0.79511   0.81547   0.00000  Uiso   1.00
O1184  O     0.83334   0.87155   0.81547   0.00000  Uiso   1.00
O1185  O     0.83333   0.79511   0.68453   0.00000  Uiso   1.00
O1186  O     0.89178   0.71023   0.80312   0.00000  Uiso   1.00
Zn1187 Zn    0.83333   0.88437   0.75000   0.00000  Uiso   1.00
Zn1188 Zn    0.83333   0.78229   0.75000   0.00000  Uiso   1.00
loop_
_geom_bond_atom_site_label_1
_geom_bond_atom_site_label_2
_geom_bond_distance
_geom_bond_site_symmetry_2
_ccdc_geom_bond_type
C1     O45     1.292   .     A
C1     O59     1.291   .     A
C1     C19     1.417   .     S
C2     O54     1.383   .     S
C2     C18     1.403   .     A
C2     C70     1.395   .     S
C3     O55     1.381   .     S
C3     C18     1.401   .     A
C3     C92     1.394   .     S
C4     O57     1.383   .     S
C4     C19     1.399   .     A
C4     C134    1.395   1_455 S
C5     C16     1.397   .     A
C5     H27     1.084   .     S
C5     C9      1.381   .     A
C6     C10     1.394   .     A
C6     H35     1.084   .     S
C6     C17     1.395   .     A
C7     H36     1.084   .     S
C7     C11     1.380   .     A
C7     C17     1.395   .     A
C8     C13     1.394   .     A
C8     C16     1.396   .     A
C8     H37     1.084   .     S
C9     C14     1.412   .     A
C9     O49     1.382   .     S
C10    C15     1.407   .     A
C10    O50     1.383   .     S
C11    C15     1.414   .     A
C11    O51     1.379   .     S
C12    O58     1.292   .     A
C12    O56     1.294   .     A
C12    C18     1.422   .     S
C13    O52     1.383   .     S
C13    C14     1.403   .     A
C14    C20     1.427   .     S
C15    C21     1.439   .     S
C16    C611    1.445   1_554 S
C17    C610    1.445   .     S
C19    C26     1.400   .     A
C20    O60     1.295   .     A
C20    O63     1.293   .     A
C21    O62     1.297   .     A
C21    O61     1.298   .     A
C22    O64     1.374   .     S
C22    N44     1.378   .     A
C22    C421    1.415   1_545 S
C23    N43     1.378   .     A
C23    O46     1.375   .     S
C23    C222    1.416   .     S
C24    O47     1.376   .     S
C24    N44     1.378   .     A
C24    C419    1.416   1_545 S
C25    N43     1.378   .     A
C25    O48     1.376   .     S
C25    C220    1.415   .     S
C26    O53     1.383   .     S
C26    C135    1.394   1_455 S
H28    O50     0.992   .     S
H29    O51     0.988   .     S
H30    O52     0.992   .     S
H31    O53     0.991   .     S
H32    O54     0.991   .     S
H33    O55     0.990   .     S
H34    O57     0.990   .     S
H38    O64     0.978   .     S
H39    O46     0.979   .     S
H40    O47     0.979   .     S
H41    O48     0.979   .     S
H42    O49     0.988   .     S
N43    Zn65    2.037   .     S
N44    Zn66    2.037   .     S
O45    Zn65    1.999   .     S
O56    Zn66    1.999   .     S
O58    Zn65    1.995   .     S
O59    Zn66    1.995   .     S
O60    Zn65    1.999   .     S
O61    Zn66    1.999   .     S
O62    Zn65    1.995   .     S
O63    Zn66    1.995   .     S
C67    O111    1.292   .     A
C67    O125    1.291   .     A
C67    C85     1.417   .     S
C68    O120    1.383   .     S
C68    C84     1.403   .     A
C68    C136    1.395   .     S
C69    O121    1.381   .     S
C69    C84     1.401   .     A
C69    C158    1.394   .     S
C70    O123    1.383   .     S
C70    C85     1.399   .     A
C71    C82     1.397   .     A
C71    H93     1.084   .     S
C71    C75     1.381   .     A
C72    C76     1.394   .     A
C72    H101    1.084   .     S
C72    C83     1.395   .     A
C73    H102    1.084   .     S
C73    C77     1.380   .     A
C73    C83     1.395   .     A
C74    C79     1.394   .     A
C74    C82     1.396   .     A
C74    H103    1.084   .     S
C75    C80     1.412   .     A
C75    O115    1.382   .     S
C76    C81     1.407   .     A
C76    O116    1.383   .     S
C77    C81     1.414   .     A
C77    O117    1.379   .     S
C78    O124    1.292   .     A
C78    O122    1.294   .     A
C78    C84     1.422   .     S
C79    O118    1.383   .     S
C79    C80     1.403   .     A
C80    C86     1.427   .     S
C81    C87     1.439   .     S
C82    C677    1.445   1_554 S
C83    C676    1.445   .     S
C85    C92     1.400   .     A
C86    O126    1.295   .     A
C86    O129    1.293   .     A
C87    O128    1.297   .     A
C87    O127    1.298   .     A
C88    O130    1.374   .     S
C88    N110    1.378   .     A
C88    C487    1.415   1_545 S
C89    N109    1.378   .     A
C89    O112    1.375   .     S
C89    C288    1.416   .     S
C90    O113    1.376   .     S
C90    N110    1.378   .     A
C90    C485    1.416   1_545 S
C91    N109    1.378   .     A
C91    O114    1.376   .     S
C91    C286    1.415   .     S
C92    O119    1.383   .     S
H94    O116    0.992   .     S
H95    O117    0.988   .     S
H96    O118    0.992   .     S
H97    O119    0.991   .     S
H98    O120    0.991   .     S
H99    O121    0.990   .     S
H100   O123    0.990   .     S
H104   O130    0.978   .     S
H105   O112    0.979   .     S
H106   O113    0.979   .     S
H107   O114    0.979   .     S
H108   O115    0.988   .     S
N109   Zn131   2.037   .     S
N110   Zn132   2.037   .     S
O111   Zn131   1.999   .     S
O122   Zn132   1.999   .     S
O124   Zn131   1.995   .     S
O125   Zn132   1.995   .     S
O126   Zn131   1.999   .     S
O127   Zn132   1.999   .     S
O128   Zn131   1.995   .     S
O129   Zn132   1.995   .     S
C133   O177    1.292   .     A
C133   O191    1.291   .     A
C133   C151    1.417   .     S
C134   O186    1.383   .     S
C134   C150    1.403   .     A
C134   C4      1.395   1_655 S
C135   O187    1.381   .     S
C135   C150    1.401   .     A
C135   C26     1.394   1_655 S
C136   O189    1.383   .     S
C136   C151    1.399   .     A
C137   C148    1.397   .     A
C137   H159    1.084   .     S
C137   C141    1.381   .     A
C138   C142    1.394   .     A
C138   H167    1.084   .     S
C138   C149    1.395   .     A
C139   H168    1.084   .     S
C139   C143    1.380   .     A
C139   C149    1.395   .     A
C140   C145    1.394   .     A
C140   C148    1.396   .     A
C140   H169    1.084   .     S
C141   C146    1.412   .     A
C141   O181    1.382   .     S
C142   C147    1.407   .     A
C142   O182    1.383   .     S
C143   C147    1.414   .     A
C143   O183    1.379   .     S
C144   O190    1.292   .     A
C144   O188    1.294   .     A
C144   C150    1.422   .     S
C145   O184    1.383   .     S
C145   C146    1.403   .     A
C146   C152    1.427   .     S
C147   C153    1.439   .     S
C148   C743    1.445   1_554 S
C149   C742    1.445   .     S
C151   C158    1.400   .     A
C152   O192    1.295   .     A
C152   O195    1.293   .     A
C153   O194    1.297   .     A
C153   O193    1.298   .     A
C154   O196    1.374   .     S
C154   N176    1.378   .     A
C154   C553    1.415   1_545 S
C155   N175    1.378   .     A
C155   O178    1.375   .     S
C155   C354    1.416   .     S
C156   O179    1.376   .     S
C156   N176    1.378   .     A
C156   C551    1.416   1_545 S
C157   N175    1.378   .     A
C157   O180    1.376   .     S
C157   C352    1.415   .     S
C158   O185    1.383   .     S
H160   O182    0.992   .     S
H161   O183    0.988   .     S
H162   O184    0.992   .     S
H163   O185    0.991   .     S
H164   O186    0.991   .     S
H165   O187    0.990   .     S
H166   O189    0.990   .     S
H170   O196    0.978   .     S
H171   O178    0.979   .     S
H172   O179    0.979   .     S
H173   O180    0.979   .     S
H174   O181    0.988   .     S
N175   Zn197   2.037   .     S
N176   Zn198   2.037   .     S
O177   Zn197   1.999   .     S
O188   Zn198   1.999   .     S
O190   Zn197   1.995   .     S
O191   Zn198   1.995   .     S
O192   Zn197   1.999   .     S
O193   Zn198   1.999   .     S
O194   Zn197   1.995   .     S
O195   Zn198   1.995   .     S
C199   O243    1.292   .     A
C199   O257    1.291   .     A
C199   C217    1.417   .     S
C200   O252    1.383   .     S
C200   C216    1.403   .     A
C200   C268    1.395   .     S
C201   O253    1.381   .     S
C201   C216    1.401   .     A
C201   C290    1.394   .     S
C202   O255    1.383   .     S
C202   C217    1.399   .     A
C202   C332    1.395   1_455 S
C203   C214    1.397   .     A
C203   H225    1.084   .     S
C203   C207    1.381   .     A
C204   C208    1.394   .     A
C204   H233    1.084   .     S
C204   C215    1.395   .     A
C205   H234    1.084   .     S
C205   C209    1.380   .     A
C205   C215    1.395   .     A
C206   C211    1.394   .     A
C206   C214    1.396   .     A
C206   H235    1.084   .     S
C207   C212    1.412   .     A
C207   O247    1.382   .     S
C208   C213    1.407   .     A
C208   O248    1.383   .     S
C209   C213    1.414   .     A
C209   O249    1.379   .     S
C210   O256    1.292   .     A
C210   O254    1.294   .     A
C210   C216    1.422   .     S
C211   O250    1.383   .     S
C211   C212    1.403   .     A
C212   C218    1.427   .     S
C213   C219    1.439   .     S
C214   C809    1.445   1_554 S
C215   C808    1.445   .     S
C217   C224    1.400   .     A
C218   O258    1.295   .     A
C218   O261    1.293   .     A
C219   O260    1.297   .     A
C219   O259    1.298   .     A
C220   O262    1.374   .     S
C220   N242    1.378   .     A
C221   N241    1.378   .     A
C221   O244    1.375   .     S
C221   C420    1.416   .     S
C222   O245    1.376   .     S
C222   N242    1.378   .     A
C223   N241    1.378   .     A
C223   O246    1.376   .     S
C223   C418    1.415   .     S
C224   O251    1.383   .     S
C224   C333    1.394   1_455 S
H226   O248    0.992   .     S
H227   O249    0.988   .     S
H228   O250    0.992   .     S
H229   O251    0.991   .     S
H230   O252    0.991   .     S
H231   O253    0.990   .     S
H232   O255    0.990   .     S
H236   O262    0.978   .     S
H237   O244    0.979   .     S
H238   O245    0.979   .     S
H239   O246    0.979   .     S
H240   O247    0.988   .     S
N241   Zn263   2.037   .     S
N242   Zn264   2.037   .     S
O243   Zn263   1.999   .     S
O254   Zn264   1.999   .     S
O256   Zn263   1.995   .     S
O257   Zn264   1.995   .     S
O258   Zn263   1.999   .     S
O259   Zn264   1.999   .     S
O260   Zn263   1.995   .     S
O261   Zn264   1.995   .     S
C265   O309    1.292   .     A
C265   O323    1.291   .     A
C265   C283    1.417   .     S
C266   O318    1.383   .     S
C266   C282    1.403   .     A
C266   C334    1.395   .     S
C267   O319    1.381   .     S
C267   C282    1.401   .     A
C267   C356    1.394   .     S
C268   O321    1.383   .     S
C268   C283    1.399   .     A
C269   C280    1.397   .     A
C269   H291    1.084   .     S
C269   C273    1.381   .     A
C270   C274    1.394   .     A
C270   H299    1.084   .     S
C270   C281    1.395   .     A
C271   H300    1.084   .     S
C271   C275    1.380   .     A
C271   C281    1.395   .     A
C272   C277    1.394   .     A
C272   C280    1.396   .     A
C272   H301    1.084   .     S
C273   C278    1.412   .     A
C273   O313    1.382   .     S
C274   C279    1.407   .     A
C274   O314    1.383   .     S
C275   C279    1.414   .     A
C275   O315    1.379   .     S
C276   O322    1.292   .     A
C276   O320    1.294   .     A
C276   C282    1.422   .     S
C277   O316    1.383   .     S
C277   C278    1.403   .     A
C278   C284    1.427   .     S
C279   C285    1.439   .     S
C280   C875    1.445   1_554 S
C281   C874    1.445   .     S
C283   C290    1.400   .     A
C284   O324    1.295   .     A
C284   O327    1.293   .     A
C285   O326    1.297   .     A
C285   O325    1.298   .     A
C286   O328    1.374   .     S
C286   N308    1.378   .     A
C287   N307    1.378   .     A
C287   O310    1.375   .     S
C287   C486    1.416   .     S
C288   O311    1.376   .     S
C288   N308    1.378   .     A
C289   N307    1.378   .     A
C289   O312    1.376   .     S
C289   C484    1.415   .     S
C290   O317    1.383   .     S
H292   O314    0.992   .     S
H293   O315    0.988   .     S
H294   O316    0.992   .     S
H295   O317    0.991   .     S
H296   O318    0.991   .     S
H297   O319    0.990   .     S
H298   O321    0.990   .     S
H302   O328    0.978   .     S
H303   O310    0.979   .     S
H304   O311    0.979   .     S
H305   O312    0.979   .     S
H306   O313    0.988   .     S
N307   Zn329   2.037   .     S
N308   Zn330   2.037   .     S
O309   Zn329   1.999   .     S
O320   Zn330   1.999   .     S
O322   Zn329   1.995   .     S
O323   Zn330   1.995   .     S
O324   Zn329   1.999   .     S
O325   Zn330   1.999   .     S
O326   Zn329   1.995   .     S
O327   Zn330   1.995   .     S
C331   O375    1.292   .     A
C331   O389    1.291   .     A
C331   C349    1.417   .     S
C332   O384    1.383   .     S
C332   C348    1.403   .     A
C332   C202    1.395   1_655 S
C333   O385    1.381   .     S
C333   C348    1.401   .     A
C333   C224    1.394   1_655 S
C334   O387    1.383   .     S
C334   C349    1.399   .     A
C335   C346    1.397   .     A
C335   H357    1.084   .     S
C335   C339    1.381   .     A
C336   C340    1.394   .     A
C336   H365    1.084   .     S
C336   C347    1.395   .     A
C337   H366    1.084   .     S
C337   C341    1.380   .     A
C337   C347    1.395   .     A
C338   C343    1.394   .     A
C338   C346    1.396   .     A
C338   H367    1.084   .     S
C339   C344    1.412   .     A
C339   O379    1.382   .     S
C340   C345    1.407   .     A
C340   O380    1.383   .     S
C341   C345    1.414   .     A
C341   O381    1.379   .     S
C342   O388    1.292   .     A
C342   O386    1.294   .     A
C342   C348    1.422   .     S
C343   O382    1.383   .     S
C343   C344    1.403   .     A
C344   C350    1.427   .     S
C345   C351    1.439   .     S
C346   C941    1.445   1_554 S
C347   C940    1.445   .     S
C349   C356    1.400   .     A
C350   O390    1.295   .     A
C350   O393    1.293   .     A
C351   O392    1.297   .     A
C351   O391    1.298   .     A
C352   O394    1.374   .     S
C352   N374    1.378   .     A
C353   N373    1.378   .     A
C353   O376    1.375   .     S
C353   C552    1.416   .     S
C354   O377    1.376   .     S
C354   N374    1.378   .     A
C355   N373    1.378   .     A
C355   O378    1.376   .     S
C355   C550    1.415   .     S
C356   O383    1.383   .     S
H358   O380    0.992   .     S
H359   O381    0.988   .     S
H360   O382    0.992   .     S
H361   O383    0.991   .     S
H362   O384    0.991   .     S
H363   O385    0.990   .     S
H364   O387    0.990   .     S
H368   O394    0.978   .     S
H369   O376    0.979   .     S
H370   O377    0.979   .     S
H371   O378    0.979   .     S
H372   O379    0.988   .     S
N373   Zn395   2.037   .     S
N374   Zn396   2.037   .     S
O375   Zn395   1.999   .     S
O386   Zn396   1.999   .     S
O388   Zn395   1.995   .     S
O389   Zn396   1.995   .     S
O390   Zn395   1.999   .     S
O391   Zn396   1.999   .     S
O392   Zn395   1.995   .     S
O393   Zn396   1.995   .     S
C397   O441    1.292   .     A
C397   O455    1.291   .     A
C397   C415    1.417   .     S
C398   O450    1.383   .     S
C398   C414    1.403   .     A
C398   C466    1.395   .     S
C399   O451    1.381   .     S
C399   C414    1.401   .     A
C399   C488    1.394   .     S
C400   O453    1.383   .     S
C400   C415    1.399   .     A
C400   C530    1.395   1_455 S
C401   C412    1.397   .     A
C401   H423    1.084   .     S
C401   C405    1.381   .     A
C402   C406    1.394   .     A
C402   H431    1.084   .     S
C402   C413    1.395   .     A
C403   H432    1.084   .     S
C403   C407    1.380   .     A
C403   C413    1.395   .     A
C404   C409    1.394   .     A
C404   C412    1.396   .     A
C404   H433    1.084   .     S
C405   C410    1.412   .     A
C405   O445    1.382   .     S
C406   C411    1.407   .     A
C406   O446    1.383   .     S
C407   C411    1.414   .     A
C407   O447    1.379   .     S
C408   O454    1.292   .     A
C408   O452    1.294   .     A
C408   C414    1.422   .     S
C409   O448    1.383   .     S
C409   C410    1.403   .     A
C410   C416    1.427   .     S
C411   C417    1.439   .     S
C412   C1007   1.445   1_554 S
C413   C1006   1.445   .     S
C415   C422    1.400   .     A
C416   O456    1.295   .     A
C416   O459    1.293   .     A
C417   O458    1.297   .     A
C417   O457    1.298   .     A
C418   O460    1.374   .     S
C418   N440    1.378   .     A
C419   N439    1.378   .     A
C419   O442    1.375   .     S
C419   C24     1.416   1_565 S
C420   O443    1.376   .     S
C420   N440    1.378   .     A
C421   N439    1.378   .     A
C421   O444    1.376   .     S
C421   C22     1.415   1_565 S
C422   O449    1.383   .     S
C422   C531    1.394   1_455 S
H424   O446    0.992   .     S
H425   O447    0.988   .     S
H426   O448    0.992   .     S
H427   O449    0.991   .     S
H428   O450    0.991   .     S
H429   O451    0.990   .     S
H430   O453    0.990   .     S
H434   O460    0.978   .     S
H435   O442    0.979   .     S
H436   O443    0.979   .     S
H437   O444    0.979   .     S
H438   O445    0.988   .     S
N439   Zn461   2.037   .     S
N440   Zn462   2.037   .     S
O441   Zn461   1.999   .     S
O452   Zn462   1.999   .     S
O454   Zn461   1.995   .     S
O455   Zn462   1.995   .     S
O456   Zn461   1.999   .     S
O457   Zn462   1.999   .     S
O458   Zn461   1.995   .     S
O459   Zn462   1.995   .     S
C463   O507    1.292   .     A
C463   O521    1.291   .     A
C463   C481    1.417   .     S
C464   O516    1.383   .     S
C464   C480    1.403   .     A
C464   C532    1.395   .     S
C465   O517    1.381   .     S
C465   C480    1.401   .     A
C465   C554    1.394   .     S
C466   O519    1.383   .     S
C466   C481    1.399   .     A
C467   C478    1.397   .     A
C467   H489    1.084   .     S
C467   C471    1.381   .     A
C468   C472    1.394   .     A
C468   H497    1.084   .     S
C468   C479    1.395   .     A
C469   H498    1.084   .     S
C469   C473    1.380   .     A
C469   C479    1.395   .     A
C470   C475    1.394   .     A
C470   C478    1.396   .     A
C470   H499    1.084   .     S
C471   C476    1.412   .     A
C471   O511    1.382   .     S
C472   C477    1.407   .     A
C472   O512    1.383   .     S
C473   C477    1.414   .     A
C473   O513    1.379   .     S
C474   O520    1.292   .     A
C474   O518    1.294   .     A
C474   C480    1.422   .     S
C475   O514    1.383   .     S
C475   C476    1.403   .     A
C476   C482    1.427   .     S
C477   C483    1.439   .     S
C478   C1073   1.445   1_554 S
C479   C1072   1.445   .     S
C481   C488    1.400   .     A
C482   O522    1.295   .     A
C482   O525    1.293   .     A
C483   O524    1.297   .     A
C483   O523    1.298   .     A
C484   O526    1.374   .     S
C484   N506    1.378   .     A
C485   N505    1.378   .     A
C485   O508    1.375   .     S
C485   C90     1.416   1_565 S
C486   O509    1.376   .     S
C486   N506    1.378   .     A
C487   N505    1.378   .     A
C487   O510    1.376   .     S
C487   C88     1.415   1_565 S
C488   O515    1.383   .     S
H490   O512    0.992   .     S
H491   O513    0.988   .     S
H492   O514    0.992   .     S
H493   O515    0.991   .     S
H494   O516    0.991   .     S
H495   O517    0.990   .     S
H496   O519    0.990   .     S
H500   O526    0.978   .     S
H501   O508    0.979   .     S
H502   O509    0.979   .     S
H503   O510    0.979   .     S
H504   O511    0.988   .     S
N505   Zn527   2.037   .     S
N506   Zn528   2.037   .     S
O507   Zn527   1.999   .     S
O518   Zn528   1.999   .     S
O520   Zn527   1.995   .     S
O521   Zn528   1.995   .     S
O522   Zn527   1.999   .     S
O523   Zn528   1.999   .     S
O524   Zn527   1.995   .     S
O525   Zn528   1.995   .     S
C529   O573    1.292   .     A
C529   O587    1.291   .     A
C529   C547    1.417   .     S
C530   O582    1.383   .     S
C530   C546    1.403   .     A
C530   C400    1.395   1_655 S
C531   O583    1.381   .     S
C531   C546    1.401   .     A
C531   C422    1.394   1_655 S
C532   O585    1.383   .     S
C532   C547    1.399   .     A
C533   C544    1.397   .     A
C533   H555    1.084   .     S
C533   C537    1.381   .     A
C534   C538    1.394   .     A
C534   H563    1.084   .     S
C534   C545    1.395   .     A
C535   H564    1.084   .     S
C535   C539    1.380   .     A
C535   C545    1.395   .     A
C536   C541    1.394   .     A
C536   C544    1.396   .     A
C536   H565    1.084   .     S
C537   C542    1.412   .     A
C537   O577    1.382   .     S
C538   C543    1.407   .     A
C538   O578    1.383   .     S
C539   C543    1.414   .     A
C539   O579    1.379   .     S
C540   O586    1.292   .     A
C540   O584    1.294   .     A
C540   C546    1.422   .     S
C541   O580    1.383   .     S
C541   C542    1.403   .     A
C542   C548    1.427   .     S
C543   C549    1.439   .     S
C544   C1139   1.445   1_554 S
C545   C1138   1.445   .     S
C547   C554    1.400   .     A
C548   O588    1.295   .     A
C548   O591    1.293   .     A
C549   O590    1.297   .     A
C549   O589    1.298   .     A
C550   O592    1.374   .     S
C550   N572    1.378   .     A
C551   N571    1.378   .     A
C551   O574    1.375   .     S
C551   C156    1.416   1_565 S
C552   O575    1.376   .     S
C552   N572    1.378   .     A
C553   N571    1.378   .     A
C553   O576    1.376   .     S
C553   C154    1.415   1_565 S
C554   O581    1.383   .     S
H556   O578    0.992   .     S
H557   O579    0.988   .     S
H558   O580    0.992   .     S
H559   O581    0.991   .     S
H560   O582    0.991   .     S
H561   O583    0.990   .     S
H562   O585    0.990   .     S
H566   O592    0.978   .     S
H567   O574    0.979   .     S
H568   O575    0.979   .     S
H569   O576    0.979   .     S
H570   O577    0.988   .     S
N571   Zn593   2.037   .     S
N572   Zn594   2.037   .     S
O573   Zn593   1.999   .     S
O584   Zn594   1.999   .     S
O586   Zn593   1.995   .     S
O587   Zn594   1.995   .     S
O588   Zn593   1.999   .     S
O589   Zn594   1.999   .     S
O590   Zn593   1.995   .     S
O591   Zn594   1.995   .     S
C595   O639    1.292   .     A
C595   O653    1.291   .     A
C595   C613    1.417   .     S
C596   O648    1.383   .     S
C596   C612    1.403   .     A
C596   C664    1.395   .     S
C597   O649    1.381   .     S
C597   C612    1.401   .     A
C597   C686    1.394   .     S
C598   O651    1.383   .     S
C598   C613    1.399   .     A
C598   C728    1.395   1_455 S
C599   C610    1.397   .     A
C599   H621    1.084   .     S
C599   C603    1.381   .     A
C600   C604    1.394   .     A
C600   H629    1.084   .     S
C600   C611    1.395   .     A
C601   H630    1.084   .     S
C601   C605    1.380   .     A
C601   C611    1.395   .     A
C602   C607    1.394   .     A
C602   C610    1.396   .     A
C602   H631    1.084   .     S
C603   C608    1.412   .     A
C603   O643    1.382   .     S
C604   C609    1.407   .     A
C604   O644    1.383   .     S
C605   C609    1.414   .     A
C605   O645    1.379   .     S
C606   O652    1.292   .     A
C606   O650    1.294   .     A
C606   C612    1.422   .     S
C607   O646    1.383   .     S
C607   C608    1.403   .     A
C608   C614    1.427   .     S
C609   C615    1.439   .     S
C611   C16     1.445   1_556 S
C613   C620    1.400   .     A
C614   O654    1.295   .     A
C614   O657    1.293   .     A
C615   O656    1.297   .     A
C615   O655    1.298   .     A
C616   O658    1.374   .     S
C616   N638    1.378   .     A
C616   C1015   1.415   1_545 S
C617   N637    1.378   .     A
C617   O640    1.375   .     S
C617   C816    1.416   .     S
C618   O641    1.376   .     S
C618   N638    1.378   .     A
C618   C1013   1.416   1_545 S
C619   N637    1.378   .     A
C619   O642    1.376   .     S
C619   C814    1.415   .     S
C620   O647    1.383   .     S
C620   C729    1.394   1_455 S
H622   O644    0.992   .     S
H623   O645    0.988   .     S
H624   O646    0.992   .     S
H625   O647    0.991   .     S
H626   O648    0.991   .     S
H627   O649    0.990   .     S
H628   O651    0.990   .     S
H632   O658    0.978   .     S
H633   O640    0.979   .     S
H634   O641    0.979   .     S
H635   O642    0.979   .     S
H636   O643    0.988   .     S
N637   Zn659   2.037   .     S
N638   Zn660   2.037   .     S
O639   Zn659   1.999   .     S
O650   Zn660   1.999   .     S
O652   Zn659   1.995   .     S
O653   Zn660   1.995   .     S
O654   Zn659   1.999   .     S
O655   Zn660   1.999   .     S
O656   Zn659   1.995   .     S
O657   Zn660   1.995   .     S
C661   O705    1.292   .     A
C661   O719    1.291   .     A
C661   C679    1.417   .     S
C662   O714    1.383   .     S
C662   C678    1.403   .     A
C662   C730    1.395   .     S
C663   O715    1.381   .     S
C663   C678    1.401   .     A
C663   C752    1.394   .     S
C664   O717    1.383   .     S
C664   C679    1.399   .     A
C665   C676    1.397   .     A
C665   H687    1.084   .     S
C665   C669    1.381   .     A
C666   C670    1.394   .     A
C666   H695    1.084   .     S
C666   C677    1.395   .     A
C667   H696    1.084   .     S
C667   C671    1.380   .     A
C667   C677    1.395   .     A
C668   C673    1.394   .     A
C668   C676    1.396   .     A
C668   H697    1.084   .     S
C669   C674    1.412   .     A
C669   O709    1.382   .     S
C670   C675    1.407   .     A
C670   O710    1.383   .     S
C671   C675    1.414   .     A
C671   O711    1.379   .     S
C672   O718    1.292   .     A
C672   O716    1.294   .     A
C672   C678    1.422   .     S
C673   O712    1.383   .     S
C673   C674    1.403   .     A
C674   C680    1.427   .     S
C675   C681    1.439   .     S
C677   C82     1.445   1_556 S
C679   C686    1.400   .     A
C680   O720    1.295   .     A
C680   O723    1.293   .     A
C681   O722    1.297   .     A
C681   O721    1.298   .     A
C682   O724    1.374   .     S
C682   N704    1.378   .     A
C682   C1081   1.415   1_545 S
C683   N703    1.378   .     A
C683   O706    1.375   .     S
C683   C882    1.416   .     S
C684   O707    1.376   .     S
C684   N704    1.378   .     A
C684   C1079   1.416   1_545 S
C685   N703    1.378   .     A
C685   O708    1.376   .     S
C685   C880    1.415   .     S
C686   O713    1.383   .     S
H688   O710    0.992   .     S
H689   O711    0.988   .     S
H690   O712    0.992   .     S
H691   O713    0.991   .     S
H692   O714    0.991   .     S
H693   O715    0.990   .     S
H694   O717    0.990   .     S
H698   O724    0.978   .     S
H699   O706    0.979   .     S
H700   O707    0.979   .     S
H701   O708    0.979   .     S
H702   O709    0.988   .     S
N703   Zn725   2.037   .     S
N704   Zn726   2.037   .     S
O705   Zn725   1.999   .     S
O716   Zn726   1.999   .     S
O718   Zn725   1.995   .     S
O719   Zn726   1.995   .     S
O720   Zn725   1.999   .     S
O721   Zn726   1.999   .     S
O722   Zn725   1.995   .     S
O723   Zn726   1.995   .     S
C727   O771    1.292   .     A
C727   O785    1.291   .     A
C727   C745    1.417   .     S
C728   O780    1.383   .     S
C728   C744    1.403   .     A
C728   C598    1.395   1_655 S
C729   O781    1.381   .     S
C729   C744    1.401   .     A
C729   C620    1.394   1_655 S
C730   O783    1.383   .     S
C730   C745    1.399   .     A
C731   C742    1.397   .     A
C731   H753    1.084   .     S
C731   C735    1.381   .     A
C732   C736    1.394   .     A
C732   H761    1.084   .     S
C732   C743    1.395   .     A
C733   H762    1.084   .     S
C733   C737    1.380   .     A
C733   C743    1.395   .     A
C734   C739    1.394   .     A
C734   C742    1.396   .     A
C734   H763    1.084   .     S
C735   C740    1.412   .     A
C735   O775    1.382   .     S
C736   C741    1.407   .     A
C736   O776    1.383   .     S
C737   C741    1.414   .     A
C737   O777    1.379   .     S
C738   O784    1.292   .     A
C738   O782    1.294   .     A
C738   C744    1.422   .     S
C739   O778    1.383   .     S
C739   C740    1.403   .     A
C740   C746    1.427   .     S
C741   C747    1.439   .     S
C743   C148    1.445   1_556 S
C745   C752    1.400   .     A
C746   O786    1.295   .     A
C746   O789    1.293   .     A
C747   O788    1.297   .     A
C747   O787    1.298   .     A
C748   O790    1.374   .     S
C748   N770    1.378   .     A
C748   C1147   1.415   1_545 S
C749   N769    1.378   .     A
C749   O772    1.375   .     S
C749   C948    1.416   .     S
C750   O773    1.376   .     S
C750   N770    1.378   .     A
C750   C1145   1.416   1_545 S
C751   N769    1.378   .     A
C751   O774    1.376   .     S
C751   C946    1.415   .     S
C752   O779    1.383   .     S
H754   O776    0.992   .     S
H755   O777    0.988   .     S
H756   O778    0.992   .     S
H757   O779    0.991   .     S
H758   O780    0.991   .     S
H759   O781    0.990   .     S
H760   O783    0.990   .     S
H764   O790    0.978   .     S
H765   O772    0.979   .     S
H766   O773    0.979   .     S
H767   O774    0.979   .     S
H768   O775    0.988   .     S
N769   Zn791   2.037   .     S
N770   Zn792   2.037   .     S
O771   Zn791   1.999   .     S
O782   Zn792   1.999   .     S
O784   Zn791   1.995   .     S
O785   Zn792   1.995   .     S
O786   Zn791   1.999   .     S
O787   Zn792   1.999   .     S
O788   Zn791   1.995   .     S
O789   Zn792   1.995   .     S
C793   O837    1.292   .     A
C793   O851    1.291   .     A
C793   C811    1.417   .     S
C794   O846    1.383   .     S
C794   C810    1.403   .     A
C794   C862    1.395   .     S
C795   O847    1.381   .     S
C795   C810    1.401   .     A
C795   C884    1.394   .     S
C796   O849    1.383   .     S
C796   C811    1.399   .     A
C796   C926    1.395   1_455 S
C797   C808    1.397   .     A
C797   H819    1.084   .     S
C797   C801    1.381   .     A
C798   C802    1.394   .     A
C798   H827    1.084   .     S
C798   C809    1.395   .     A
C799   H828    1.084   .     S
C799   C803    1.380   .     A
C799   C809    1.395   .     A
C800   C805    1.394   .     A
C800   C808    1.396   .     A
C800   H829    1.084   .     S
C801   C806    1.412   .     A
C801   O841    1.382   .     S
C802   C807    1.407   .     A
C802   O842    1.383   .     S
C803   C807    1.414   .     A
C803   O843    1.379   .     S
C804   O850    1.292   .     A
C804   O848    1.294   .     A
C804   C810    1.422   .     S
C805   O844    1.383   .     S
C805   C806    1.403   .     A
C806   C812    1.427   .     S
C807   C813    1.439   .     S
C809   C214    1.445   1_556 S
C811   C818    1.400   .     A
C812   O852    1.295   .     A
C812   O855    1.293   .     A
C813   O854    1.297   .     A
C813   O853    1.298   .     A
C814   O856    1.374   .     S
C814   N836    1.378   .     A
C815   N835    1.378   .     A
C815   O838    1.375   .     S
C815   C1014   1.416   .     S
C816   O839    1.376   .     S
C816   N836    1.378   .     A
C817   N835    1.378   .     A
C817   O840    1.376   .     S
C817   C1012   1.415   .     S
C818   O845    1.383   .     S
C818   C927    1.394   1_455 S
H820   O842    0.992   .     S
H821   O843    0.988   .     S
H822   O844    0.992   .     S
H823   O845    0.991   .     S
H824   O846    0.991   .     S
H825   O847    0.990   .     S
H826   O849    0.990   .     S
H830   O856    0.978   .     S
H831   O838    0.979   .     S
H832   O839    0.979   .     S
H833   O840    0.979   .     S
H834   O841    0.988   .     S
N835   Zn857   2.037   .     S
N836   Zn858   2.037   .     S
O837   Zn857   1.999   .     S
O848   Zn858   1.999   .     S
O850   Zn857   1.995   .     S
O851   Zn858   1.995   .     S
O852   Zn857   1.999   .     S
O853   Zn858   1.999   .     S
O854   Zn857   1.995   .     S
O855   Zn858   1.995   .     S
C859   O903    1.292   .     A
C859   O917    1.291   .     A
C859   C877    1.417   .     S
C860   O912    1.383   .     S
C860   C876    1.403   .     A
C860   C928    1.395   .     S
C861   O913    1.381   .     S
C861   C876    1.401   .     A
C861   C950    1.394   .     S
C862   O915    1.383   .     S
C862   C877    1.399   .     A
C863   C874    1.397   .     A
C863   H885    1.084   .     S
C863   C867    1.381   .     A
C864   C868    1.394   .     A
C864   H893    1.084   .     S
C864   C875    1.395   .     A
C865   H894    1.084   .     S
C865   C869    1.380   .     A
C865   C875    1.395   .     A
C866   C871    1.394   .     A
C866   C874    1.396   .     A
C866   H895    1.084   .     S
C867   C872    1.412   .     A
C867   O907    1.382   .     S
C868   C873    1.407   .     A
C868   O908    1.383   .     S
C869   C873    1.414   .     A
C869   O909    1.379   .     S
C870   O916    1.292   .     A
C870   O914    1.294   .     A
C870   C876    1.422   .     S
C871   O910    1.383   .     S
C871   C872    1.403   .     A
C872   C878    1.427   .     S
C873   C879    1.439   .     S
C875   C280    1.445   1_556 S
C877   C884    1.400   .     A
C878   O918    1.295   .     A
C878   O921    1.293   .     A
C879   O920    1.297   .     A
C879   O919    1.298   .     A
C880   O922    1.374   .     S
C880   N902    1.378   .     A
C881   N901    1.378   .     A
C881   O904    1.375   .     S
C881   C1080   1.416   .     S
C882   O905    1.376   .     S
C882   N902    1.378   .     A
C883   N901    1.378   .     A
C883   O906    1.376   .     S
C883   C1078   1.415   .     S
C884   O911    1.383   .     S
H886   O908    0.992   .     S
H887   O909    0.988   .     S
H888   O910    0.992   .     S
H889   O911    0.991   .     S
H890   O912    0.991   .     S
H891   O913    0.990   .     S
H892   O915    0.990   .     S
H896   O922    0.978   .     S
H897   O904    0.979   .     S
H898   O905    0.979   .     S
H899   O906    0.979   .     S
H900   O907    0.988   .     S
N901   Zn923   2.037   .     S
N902   Zn924   2.037   .     S
O903   Zn923   1.999   .     S
O914   Zn924   1.999   .     S
O916   Zn923   1.995   .     S
O917   Zn924   1.995   .     S
O918   Zn923   1.999   .     S
O919   Zn924   1.999   .     S
O920   Zn923   1.995   .     S
O921   Zn924   1.995   .     S
C925   O969    1.292   .     A
C925   O983    1.291   .     A
C925   C943    1.417   .     S
C926   O978    1.383   .     S
C926   C942    1.403   .     A
C926   C796    1.395   1_655 S
C927   O979    1.381   .     S
C927   C942    1.401   .     A
C927   C818    1.394   1_655 S
C928   O981    1.383   .     S
C928   C943    1.399   .     A
C929   C940    1.397   .     A
C929   H951    1.084   .     S
C929   C933    1.381   .     A
C930   C934    1.394   .     A
C930   H959    1.084   .     S
C930   C941    1.395   .     A
C931   H960    1.084   .     S
C931   C935    1.380   .     A
C931   C941    1.395   .     A
C932   C937    1.394   .     A
C932   C940    1.396   .     A
C932   H961    1.084   .     S
C933   C938    1.412   .     A
C933   O973    1.382   .     S
C934   C939    1.407   .     A
C934   O974    1.383   .     S
C935   C939    1.414   .     A
C935   O975    1.379   .     S
C936   O982    1.292   .     A
C936   O980    1.294   .     A
C936   C942    1.422   .     S
C937   O976    1.383   .     S
C937   C938    1.403   .     A
C938   C944    1.427   .     S
C939   C945    1.439   .     S
C941   C346    1.445   1_556 S
C943   C950    1.400   .     A
C944   O984    1.295   .     A
C944   O987    1.293   .     A
C945   O986    1.297   .     A
C945   O985    1.298   .     A
C946   O988    1.374   .     S
C946   N968    1.378   .     A
C947   N967    1.378   .     A
C947   O970    1.375   .     S
C947   C1146   1.416   .     S
C948   O971    1.376   .     S
C948   N968    1.378   .     A
C949   N967    1.378   .     A
C949   O972    1.376   .     S
C949   C1144   1.415   .     S
C950   O977    1.383   .     S
H952   O974    0.992   .     S
H953   O975    0.988   .     S
H954   O976    0.992   .     S
H955   O977    0.991   .     S
H956   O978    0.991   .     S
H957   O979    0.990   .     S
H958   O981    0.990   .     S
H962   O988    0.978   .     S
H963   O970    0.979   .     S
H964   O971    0.979   .     S
H965   O972    0.979   .     S
H966   O973    0.988   .     S
N967   Zn989   2.037   .     S
N968   Zn990   2.037   .     S
O969   Zn989   1.999   .     S
O980   Zn990   1.999   .     S
O982   Zn989   1.995   .     S
O983   Zn990   1.995   .     S
O984   Zn989   1.999   .     S
O985   Zn990   1.999   .     S
O986   Zn989   1.995   .     S
O987   Zn990   1.995   .     S
C991   O1035   1.292   .     A
C991   O1049   1.291   .     A
C991   C1009   1.417   .     S
C992   O1044   1.383   .     S
C992   C1008   1.403   .     A
C992   C1060   1.395   .     S
C993   O1045   1.381   .     S
C993   C1008   1.401   .     A
C993   C1082   1.394   .     S
C994   O1047   1.383   .     S
C994   C1009   1.399   .     A
C994   C1124   1.395   1_455 S
C995   C1006   1.397   .     A
C995   H1017   1.084   .     S
C995   C999    1.381   .     A
C996   C1000   1.394   .     A
C996   H1025   1.084   .     S
C996   C1007   1.395   .     A
C997   H1026   1.084   .     S
C997   C1001   1.380   .     A
C997   C1007   1.395   .     A
C998   C1003   1.394   .     A
C998   C1006   1.396   .     A
C998   H1027   1.084   .     S
C999   C1004   1.412   .     A
C999   O1039   1.382   .     S
C1000  C1005   1.407   .     A
C1000  O1040   1.383   .     S
C1001  C1005   1.414   .     A
C1001  O1041   1.379   .     S
C1002  O1048   1.292   .     A
C1002  O1046   1.294   .     A
C1002  C1008   1.422   .     S
C1003  O1042   1.383   .     S
C1003  C1004   1.403   .     A
C1004  C1010   1.427   .     S
C1005  C1011   1.439   .     S
C1007  C412    1.445   1_556 S
C1009  C1016   1.400   .     A
C1010  O1050   1.295   .     A
C1010  O1053   1.293   .     A
C1011  O1052   1.297   .     A
C1011  O1051   1.298   .     A
C1012  O1054   1.374   .     S
C1012  N1034   1.378   .     A
C1013  N1033   1.378   .     A
C1013  O1036   1.375   .     S
C1013  C618    1.416   1_565 S
C1014  O1037   1.376   .     S
C1014  N1034   1.378   .     A
C1015  N1033   1.378   .     A
C1015  O1038   1.376   .     S
C1015  C616    1.415   1_565 S
C1016  O1043   1.383   .     S
C1016  C1125   1.394   1_455 S
H1018  O1040   0.992   .     S
H1019  O1041   0.988   .     S
H1020  O1042   0.992   .     S
H1021  O1043   0.991   .     S
H1022  O1044   0.991   .     S
H1023  O1045   0.990   .     S
H1024  O1047   0.990   .     S
H1028  O1054   0.978   .     S
H1029  O1036   0.979   .     S
H1030  O1037   0.979   .     S
H1031  O1038   0.979   .     S
H1032  O1039   0.988   .     S
N1033  Zn1055  2.037   .     S
N1034  Zn1056  2.037   .     S
O1035  Zn1055  1.999   .     S
O1046  Zn1056  1.999   .     S
O1048  Zn1055  1.995   .     S
O1049  Zn1056  1.995   .     S
O1050  Zn1055  1.999   .     S
O1051  Zn1056  1.999   .     S
O1052  Zn1055  1.995   .     S
O1053  Zn1056  1.995   .     S
C1057  O1101   1.292   .     A
C1057  O1115   1.291   .     A
C1057  C1075   1.417   .     S
C1058  O1110   1.383   .     S
C1058  C1074   1.403   .     A
C1058  C1126   1.395   .     S
C1059  O1111   1.381   .     S
C1059  C1074   1.401   .     A
C1059  C1148   1.394   .     S
C1060  O1113   1.383   .     S
C1060  C1075   1.399   .     A
C1061  C1072   1.397   .     A
C1061  H1083   1.084   .     S
C1061  C1065   1.381   .     A
C1062  C1066   1.394   .     A
C1062  H1091   1.084   .     S
C1062  C1073   1.395   .     A
C1063  H1092   1.084   .     S
C1063  C1067   1.380   .     A
C1063  C1073   1.395   .     A
C1064  C1069   1.394   .     A
C1064  C1072   1.396   .     A
C1064  H1093   1.084   .     S
C1065  C1070   1.412   .     A
C1065  O1105   1.382   .     S
C1066  C1071   1.407   .     A
C1066  O1106   1.383   .     S
C1067  C1071   1.414   .     A
C1067  O1107   1.379   .     S
C1068  O1114   1.292   .     A
C1068  O1112   1.294   .     A
C1068  C1074   1.422   .     S
C1069  O1108   1.383   .     S
C1069  C1070   1.403   .     A
C1070  C1076   1.427   .     S
C1071  C1077   1.439   .     S
C1073  C478    1.445   1_556 S
C1075  C1082   1.400   .     A
C1076  O1116   1.295   .     A
C1076  O1119   1.293   .     A
C1077  O1118   1.297   .     A
C1077  O1117   1.298   .     A
C1078  O1120   1.374   .     S
C1078  N1100   1.378   .     A
C1079  N1099   1.378   .     A
C1079  O1102   1.375   .     S
C1079  C684    1.416   1_565 S
C1080  O1103   1.376   .     S
C1080  N1100   1.378   .     A
C1081  N1099   1.378   .     A
C1081  O1104   1.376   .     S
C1081  C682    1.415   1_565 S
C1082  O1109   1.383   .     S
H1084  O1106   0.992   .     S
H1085  O1107   0.988   .     S
H1086  O1108   0.992   .     S
H1087  O1109   0.991   .     S
H1088  O1110   0.991   .     S
H1089  O1111   0.990   .     S
H1090  O1113   0.990   .     S
H1094  O1120   0.978   .     S
H1095  O1102   0.979   .     S
H1096  O1103   0.979   .     S
H1097  O1104   0.979   .     S
H1098  O1105   0.988   .     S
N1099  Zn1121  2.037   .     S
N1100  Zn1122  2.037   .     S
O1101  Zn1121  1.999   .     S
O1112  Zn1122  1.999   .     S
O1114  Zn1121  1.995   .     S
O1115  Zn1122  1.995   .     S
O1116  Zn1121  1.999   .     S
O1117  Zn1122  1.999   .     S
O1118  Zn1121  1.995   .     S
O1119  Zn1122  1.995   .     S
C1123  O1167   1.292   .     A
C1123  O1181   1.291   .     A
C1123  C1141   1.417   .     S
C1124  O1176   1.383   .     S
C1124  C1140   1.403   .     A
C1124  C994    1.395   1_655 S
C1125  O1177   1.381   .     S
C1125  C1140   1.401   .     A
C1125  C1016   1.394   1_655 S
C1126  O1179   1.383   .     S
C1126  C1141   1.399   .     A
C1127  C1138   1.397   .     A
C1127  H1149   1.084   .     S
C1127  C1131   1.381   .     A
C1128  C1132   1.394   .     A
C1128  H1157   1.084   .     S
C1128  C1139   1.395   .     A
C1129  H1158   1.084   .     S
C1129  C1133   1.380   .     A
C1129  C1139   1.395   .     A
C1130  C1135   1.394   .     A
C1130  C1138   1.396   .     A
C1130  H1159   1.084   .     S
C1131  C1136   1.412   .     A
C1131  O1171   1.382   .     S
C1132  C1137   1.407   .     A
C1132  O1172   1.383   .     S
C1133  C1137   1.414   .     A
C1133  O1173   1.379   .     S
C1134  O1180   1.292   .     A
C1134  O1178   1.294   .     A
C1134  C1140   1.422   .     S
C1135  O1174   1.383   .     S
C1135  C1136   1.403   .     A
C1136  C1142   1.427   .     S
C1137  C1143   1.439   .     S
C1139  C544    1.445   1_556 S
C1141  C1148   1.400   .     A
C1142  O1182   1.295   .     A
C1142  O1185   1.293   .     A
C1143  O1184   1.297   .     A
C1143  O1183   1.298   .     A
C1144  O1186   1.374   .     S
C1144  N1166   1.378   .     A
C1145  N1165   1.378   .     A
C1145  O1168   1.375   .     S
C1145  C750    1.416   1_565 S
C1146  O1169   1.376   .     S
C1146  N1166   1.378   .     A
C1147  N1165   1.378   .     A
C1147  O1170   1.376   .     S
C1147  C748    1.415   1_565 S
C1148  O1175   1.383   .     S
H1150  O1172   0.992   .     S
H1151  O1173   0.988   .     S
H1152  O1174   0.992   .     S
H1153  O1175   0.991   .     S
H1154  O1176   0.991   .     S
H1155  O1177   0.990   .     S
H1156  O1179   0.990   .     S
H1160  O1186   0.978   .     S
H1161  O1168   0.979   .     S
H1162  O1169   0.979   .     S
H1163  O1170   0.979   .     S
H1164  O1171   0.988   .     S
N1165  Zn1187  2.037   .     S
N1166  Zn1188  2.037   .     S
O1167  Zn1187  1.999   .     S
O1178  Zn1188  1.999   .     S
O1180  Zn1187  1.995   .     S
O1181  Zn1188  1.995   .     S
O1182  Zn1187  1.999   .     S
O1183  Zn1188  1.999   .     S
O1184  Zn1187  1.995   .     S
O1185  Zn1188  1.995   .     S
