data_str_m1_o2_o5_pcu_sym.42
_audit_creation_date              2020-01-03
_audit_creation_method            'Materials Studio'
_symmetry_space_group_name_H-M    'P1'
_symmetry_Int_Tables_number       1
_symmetry_cell_setting            triclinic
loop_
_symmetry_equiv_pos_as_xyz
  x,y,z
_cell_length_a                    24.5470
_cell_length_b                    24.5423
_cell_length_c                    22.4577
_cell_angle_alpha                 90.0019
_cell_angle_beta                  89.9994
_cell_angle_gamma                 89.9995
loop_
_atom_site_label
_atom_site_type_symbol
_atom_site_fract_x
_atom_site_fract_y
_atom_site_fract_z
_atom_site_U_iso_or_equiv
_atom_site_adp_type
_atom_site_occupancy
C1     C     0.22839   0.27157   0.25003   0.00000  Uiso   1.00
C2     C     0.22909   0.72900   0.24993   0.00000  Uiso   1.00
C3     C     0.20216   0.63503   0.26686   0.00000  Uiso   1.00
C4     C     0.33868   0.17506   0.69657   0.00000  Uiso   1.00
C5     C     0.63403   0.79733   0.26524   0.00000  Uiso   1.00
C6     C     0.17357   0.66251   0.69612   0.00000  Uiso   1.00
C7     C     0.79831   0.36416   0.26770   0.00000  Uiso   1.00
C8     C     0.33872   0.82490   0.30342   0.00000  Uiso   1.00
C9     C     0.63408   0.20265   0.73459   0.00000  Uiso   1.00
C10    C     0.17318   0.33715   0.30395   0.00000  Uiso   1.00
C11    C     0.79830   0.63583   0.73235   0.00000  Uiso   1.00
C12    C     0.66129   0.17474   0.30422   0.00000  Uiso   1.00
C13    C     0.73004   0.77277   0.74824   0.00000  Uiso   1.00
C14    C     0.36415   0.79834   0.73033   0.00000  Uiso   1.00
C15    C     0.82337   0.66030   0.30234   0.00000  Uiso   1.00
C16    C     0.20216   0.36496   0.73313   0.00000  Uiso   1.00
C17    C     0.14753   0.35244   0.25001   0.00000  Uiso   1.00
C18    C     0.85255   0.64837   0.74929   0.00000  Uiso   1.00
C19    C     0.35237   0.85232   0.24998   0.00000  Uiso   1.00
C20    C     0.64747   0.14836   0.75069   0.00000  Uiso   1.00
C21    C     0.85192   0.64730   0.24938   0.00000  Uiso   1.00
C22    C     0.14796   0.35207   0.75004   0.00000  Uiso   1.00
C23    C     0.64807   0.14731   0.25060   0.00000  Uiso   1.00
C24    C     0.27076   0.22920   0.25004   0.00000  Uiso   1.00
C25    C     0.35196   0.85198   0.74996   0.00000  Uiso   1.00
C26    C     0.85194   0.35269   0.75060   0.00000  Uiso   1.00
C27    C     0.14796   0.64792   0.24996   0.00000  Uiso   1.00
C28    C     0.64807   0.85269   0.74939   0.00000  Uiso   1.00
C29    C     0.35194   0.14805   0.25003   0.00000  Uiso   1.00
C30    C     0.14755   0.64759   0.74998   0.00000  Uiso   1.00
C31    C     0.85254   0.35163   0.25070   0.00000  Uiso   1.00
C32    C     0.35237   0.14767   0.75002   0.00000  Uiso   1.00
C33    C     0.64745   0.85164   0.24929   0.00000  Uiso   1.00
C34    C     0.25371   0.29474   0.10942   0.00000  Uiso   1.00
C35    C     0.22841   0.72848   0.74994   0.00000  Uiso   1.00
C36    C     0.30656   0.26433   0.09693   0.00000  Uiso   1.00
C37    C     0.85432   0.82736   0.73308   0.00000  Uiso   1.00
C38    C     0.87479   0.88239   0.75463   0.00000  Uiso   1.00
C39    C     0.28128   0.74144   0.11588   0.00000  Uiso   1.00
C40    C     0.25525   0.73401   0.05516   0.00000  Uiso   1.00
C41    C     0.82750   0.15139   0.73947   0.00000  Uiso   1.00
C42    C     0.87846   0.12306   0.76233   0.00000  Uiso   1.00
C43    C     0.75191   0.70971   0.10546   0.00000  Uiso   1.00
C44    C     0.69998   0.74077   0.09052   0.00000  Uiso   1.00
C45    C     0.14968   0.17183   0.73828   0.00000  Uiso   1.00
C46    C     0.77230   0.26970   0.25229   0.00000  Uiso   1.00
C47    C     0.12157   0.12083   0.76135   0.00000  Uiso   1.00
C48    C     0.72301   0.25635   0.11706   0.00000  Uiso   1.00
C49    C     0.75385   0.26609   0.05949   0.00000  Uiso   1.00
C50    C     0.17251   0.85243   0.74374   0.00000  Uiso   1.00
C51    C     0.11809   0.87090   0.76897   0.00000  Uiso   1.00
C52    C     0.75173   0.29041   0.89445   0.00000  Uiso   1.00
C53    C     0.69977   0.25937   0.90929   0.00000  Uiso   1.00
C54    C     0.14968   0.82819   0.26163   0.00000  Uiso   1.00
C55    C     0.12141   0.87908   0.23854   0.00000  Uiso   1.00
C56    C     0.72318   0.74379   0.88296   0.00000  Uiso   1.00
C57    C     0.27144   0.22866   0.75005   0.00000  Uiso   1.00
C58    C     0.75424   0.73396   0.94037   0.00000  Uiso   1.00
C59    C     0.17244   0.14762   0.25466   0.00000  Uiso   1.00
C60    C     0.11825   0.12924   0.22878   0.00000  Uiso   1.00
C61    C     0.25276   0.70643   0.89094   0.00000  Uiso   1.00
C62    C     0.30549   0.73700   0.90356   0.00000  Uiso   1.00
C63    C     0.85430   0.17262   0.26669   0.00000  Uiso   1.00
C64    C     0.87477   0.11762   0.24505   0.00000  Uiso   1.00
C65    C     0.28148   0.25866   0.88408   0.00000  Uiso   1.00
C66    C     0.25609   0.26570   0.94518   0.00000  Uiso   1.00
C67    C     0.82747   0.84854   0.26076   0.00000  Uiso   1.00
C68    C     0.72768   0.76968   0.24766   0.00000  Uiso   1.00
C69    C     0.87845   0.87692   0.23804   0.00000  Uiso   1.00
C70    C     0.74810   0.79026   0.60547   0.00000  Uiso   1.00
C71    C     0.80002   0.75919   0.59053   0.00000  Uiso   1.00
C72    C     0.35229   0.32758   0.24545   0.00000  Uiso   1.00
C73    C     0.37063   0.38179   0.27134   0.00000  Uiso   1.00
C74    C     0.77704   0.24359   0.61707   0.00000  Uiso   1.00
C75    C     0.74622   0.23382   0.55950   0.00000  Uiso   1.00
C76    C     0.32821   0.64952   0.23819   0.00000  Uiso   1.00
C77    C     0.37909   0.62121   0.26126   0.00000  Uiso   1.00
C78    C     0.24141   0.21864   0.61603   0.00000  Uiso   1.00
C79    C     0.00000   0.50000   0.47331   0.00000  Uiso   1.00
C80    C     0.23439   0.24401   0.55490   0.00000  Uiso   1.00
C81    C     0.64572   0.67264   0.23294   0.00000  Uiso   1.00
C82    C     0.62475   0.61779   0.25447   0.00000  Uiso   1.00
C83    C     0.20630   0.75276   0.60892   0.00000  Uiso   1.00
C84    C     0.23685   0.80549   0.59621   0.00000  Uiso   1.00
C85    C     0.67253   0.34861   0.23938   0.00000  Uiso   1.00
C86    C     0.62161   0.37704   0.26218   0.00000  Uiso   1.00
C87    C     0.24154   0.78112   0.38402   0.00000  Uiso   1.00
C88    C     0.23399   0.75491   0.44464   0.00000  Uiso   1.00
C89    C     0.64573   0.32738   0.76660   0.00000  Uiso   1.00
C90    C     0.00000   0.50000   0.52669   0.00000  Uiso   1.00
C91    C     0.62537   0.38242   0.74493   0.00000  Uiso   1.00
C92    C     0.20520   0.24628   0.39065   0.00000  Uiso   1.00
C93    C     0.23560   0.19343   0.40317   0.00000  Uiso   1.00
C94    C     0.67254   0.65141   0.76074   0.00000  Uiso   1.00
C95    C     0.62162   0.62294   0.73800   0.00000  Uiso   1.00
C96    C     0.74824   0.20964   0.39446   0.00000  Uiso   1.00
C97    C     0.80019   0.24070   0.40930   0.00000  Uiso   1.00
C98    C     0.35228   0.67250   0.75609   0.00000  Uiso   1.00
C99    C     0.37087   0.61813   0.73082   0.00000  Uiso   1.00
C100   C     0.77676   0.75619   0.38295   0.00000  Uiso   1.00
C101   C     0.50000   0.00000   0.47331   0.00000  Uiso   1.00
C102   C     0.74574   0.76597   0.44039   0.00000  Uiso   1.00
C103   C     0.32819   0.35047   0.76184   0.00000  Uiso   1.00
C104   C     0.37914   0.37867   0.73878   0.00000  Uiso   1.00
C105   C     0.13776   0.34126   0.13986   0.00000  Uiso   1.00
C106   C     0.92085   0.71841   0.78169   0.00000  Uiso   1.00
C107   C     0.33831   0.86455   0.14040   0.00000  Uiso   1.00
C108   C     0.71832   0.08097   0.78320   0.00000  Uiso   1.00
C109   C     0.86644   0.66272   0.14034   0.00000  Uiso   1.00
C110   C     0.08031   0.28166   0.78315   0.00000  Uiso   1.00
C111   C     0.66392   0.13433   0.14138   0.00000  Uiso   1.00
C112   C     0.77232   0.73031   0.74768   0.00000  Uiso   1.00
C113   C     0.50000  -0.00000   0.52669   0.00000  Uiso   1.00
C114   C     0.28271   0.91828   0.78912   0.00000  Uiso   1.00
C115   C     0.86630   0.33742   0.85969   0.00000  Uiso   1.00
C116   C     0.08031   0.71833   0.21685   0.00000  Uiso   1.00
C117   C     0.66403   0.86576   0.85858   0.00000  Uiso   1.00
C118   C     0.28294   0.08208   0.20964   0.00000  Uiso   1.00
C119   C     0.13708   0.65955   0.85998   0.00000  Uiso   1.00
C120   C     0.92082   0.28160   0.21817   0.00000  Uiso   1.00
C121   C     0.33839   0.13553   0.85962   0.00000  Uiso   1.00
C122   C     0.71836   0.91906   0.21703   0.00000  Uiso   1.00
C123   C     0.63357   0.83727   0.64034   0.00000  Uiso   1.00
C124   C     0.50000   0.00000   0.97331   0.00000  Uiso   1.00
C125   C     0.41786   0.21707   0.29044   0.00000  Uiso   1.00
C126   C     0.83613   0.36563   0.64137   0.00000  Uiso   1.00
C127   C     0.21833   0.58019   0.28300   0.00000  Uiso   1.00
C128   C     0.36449   0.16169   0.64042   0.00000  Uiso   1.00
C129   C     0.57913   0.78158   0.28161   0.00000  Uiso   1.00
C130   C     0.15945   0.63709   0.63997   0.00000  Uiso   1.00
C131   C     0.78167   0.41903   0.28314   0.00000  Uiso   1.00
C132   C     0.36458   0.83821   0.35955   0.00000  Uiso   1.00
C133   C     0.57922   0.21838   0.71806   0.00000  Uiso   1.00
C134   C     0.15866   0.36222   0.36017   0.00000  Uiso   1.00
C135   C     0.50000  -0.00000   0.02669   0.00000  Uiso   1.00
C136   C     0.78166   0.58094   0.71698   0.00000  Uiso   1.00
C137   C     0.63366   0.16263   0.35968   0.00000  Uiso   1.00
C138   C     0.41820   0.78270   0.71078   0.00000  Uiso   1.00
C139   C     0.83594   0.63423   0.35857   0.00000  Uiso   1.00
C140   C     0.21833   0.41980   0.71699   0.00000  Uiso   1.00
C141   C     0.00000   0.50000   0.97331   0.00000  Uiso   1.00
C142   C     0.00000   0.50000   0.02669   0.00000  Uiso   1.00
C143   C     0.00000   0.50000   0.09006   0.00000  Uiso   1.00
C144   C     0.00000   0.50000   0.90994   0.00000  Uiso   1.00
C145   C     0.50000  -0.00000   0.09006   0.00000  Uiso   1.00
C146   C     0.50000   0.00000   0.90994   0.00000  Uiso   1.00
C147   C     0.50000  -0.00000   0.59006   0.00000  Uiso   1.00
C148   C     0.27144   0.77134   0.24994   0.00000  Uiso   1.00
C149   C     0.50000   0.00000   0.40994   0.00000  Uiso   1.00
C150   C     0.00000   0.50000   0.59006   0.00000  Uiso   1.00
C151   C    -0.00000   0.50000   0.40994   0.00000  Uiso   1.00
C152   C     0.10525   0.60525   0.24999   0.00000  Uiso   1.00
C153   C     0.89482   0.39487   0.75005   0.00000  Uiso   1.00
C154   C     0.60518   0.89471   0.24992   0.00000  Uiso   1.00
C155   C     0.39486   0.10515   0.75000   0.00000  Uiso   1.00
C156   C     0.89482   0.39470   0.25008   0.00000  Uiso   1.00
C157   C     0.10511   0.60512   0.75000   0.00000  Uiso   1.00
C158   C     0.39471   0.10529   0.25001   0.00000  Uiso   1.00
C159   C     0.72771   0.23029   0.75228   0.00000  Uiso   1.00
C160   C     0.60518   0.89487   0.74995   0.00000  Uiso   1.00
C161   C     0.89482   0.60530   0.74992   0.00000  Uiso   1.00
C162   C     0.10510   0.39489   0.25000   0.00000  Uiso   1.00
C163   C     0.39471   0.89472   0.74999   0.00000  Uiso   1.00
C164   C     0.60518   0.10513   0.25005   0.00000  Uiso   1.00
C165   C     0.10525   0.39475   0.75001   0.00000  Uiso   1.00
C166   C     0.89482   0.60513   0.24995   0.00000  Uiso   1.00
C167   C     0.60519   0.10530   0.75008   0.00000  Uiso   1.00
C168   C     0.39486   0.89485   0.25000   0.00000  Uiso   1.00
C169   C     0.20411   0.28731   0.19608   0.00000  Uiso   1.00
C170   C     0.76994   0.72722   0.24822   0.00000  Uiso   1.00
C171   C     0.82612   0.74346   0.76383   0.00000  Uiso   1.00
C172   C     0.28525   0.79779   0.19642   0.00000  Uiso   1.00
C173   C     0.74165   0.17653   0.76799   0.00000  Uiso   1.00
C174   C     0.79712   0.71387   0.19517   0.00000  Uiso   1.00
C175   C     0.17544   0.25754   0.76658   0.00000  Uiso   1.00
C176   C     0.71676   0.20077   0.19807   0.00000  Uiso   1.00
C177   C     0.25790   0.82396   0.76881   0.00000  Uiso   1.00
C178   C     0.79708   0.28617   0.80481   0.00000  Uiso   1.00
C179   C     0.17544   0.74245   0.23340   0.00000  Uiso   1.00
C180   C     0.71682   0.79928   0.80189   0.00000  Uiso   1.00
C181   C     0.22909   0.27100   0.75006   0.00000  Uiso   1.00
C182   C     0.25802   0.17624   0.23058   0.00000  Uiso   1.00
C183   C     0.20375   0.71313   0.80381   0.00000  Uiso   1.00
C184   C     0.82609   0.25656   0.23607   0.00000  Uiso   1.00
C185   C     0.28528   0.20224   0.80358   0.00000  Uiso   1.00
C186   C     0.74164   0.82347   0.23208   0.00000  Uiso   1.00
C187   C     0.70288   0.78612   0.69518   0.00000  Uiso   1.00
C188   C     0.32371   0.24196   0.26951   0.00000  Uiso   1.00
C189   C     0.78327   0.29920   0.69806   0.00000  Uiso   1.00
C190   C     0.24251   0.67533   0.26645   0.00000  Uiso   1.00
C191   C     0.29783   0.21482   0.69650   0.00000  Uiso   1.00
C192   C     0.73003   0.22724   0.25173   0.00000  Uiso   1.00
C193   C     0.67387   0.75654   0.26379   0.00000  Uiso   1.00
C194   C     0.21304   0.70379   0.69608   0.00000  Uiso   1.00
C195   C     0.75836   0.32346   0.26797   0.00000  Uiso   1.00
C196   C     0.29787   0.78513   0.30348   0.00000  Uiso   1.00
C197   C     0.67394   0.24343   0.73602   0.00000  Uiso   1.00
C198   C     0.21263   0.29586   0.30398   0.00000  Uiso   1.00
C199   C     0.75836   0.67653   0.73207   0.00000  Uiso   1.00
C200   C     0.70291   0.21384   0.30481   0.00000  Uiso   1.00
C201   C     0.32388   0.75794   0.73103   0.00000  Uiso   1.00
C202   C     0.78315   0.70070   0.30187   0.00000  Uiso   1.00
C203   C     0.27078   0.77085   0.74992   0.00000  Uiso   1.00
C204   C     0.24251   0.32466   0.73354   0.00000  Uiso   1.00
C205   C     0.16282   0.32676   0.19609   0.00000  Uiso   1.00
C206   C     0.86596   0.70267   0.76528   0.00000  Uiso   1.00
C207   C     0.32498   0.83867   0.19652   0.00000  Uiso   1.00
C208   C     0.70170   0.13584   0.76772   0.00000  Uiso   1.00
C209   C     0.83875   0.67478   0.19578   0.00000  Uiso   1.00
C210   C     0.13512   0.29787   0.76697   0.00000  Uiso   1.00
C211   C     0.67655   0.16035   0.19762   0.00000  Uiso   1.00
C212   C     0.29832   0.86421   0.76956   0.00000  Uiso   1.00
C213   C     0.83870   0.32528   0.80423   0.00000  Uiso   1.00
C214   C     0.76999   0.27275   0.75173   0.00000  Uiso   1.00
C215   C     0.13512   0.70213   0.23302   0.00000  Uiso   1.00
C216   C     0.67661   0.83969   0.80235   0.00000  Uiso   1.00
C217   C     0.29844   0.13598   0.22984   0.00000  Uiso   1.00
C218   C     0.16248   0.67365   0.80381   0.00000  Uiso   1.00
C219   C     0.86594   0.29734   0.23464   0.00000  Uiso   1.00
C220   C     0.32502   0.16137   0.80348   0.00000  Uiso   1.00
C221   C     0.70171   0.86417   0.23237   0.00000  Uiso   1.00
C222   C     0.66125   0.82522   0.69578   0.00000  Uiso   1.00
C223   C     0.36397   0.20156   0.27023   0.00000  Uiso   1.00
C224   C     0.82348   0.33962   0.69761   0.00000  Uiso   1.00
H1     H     0.26366   0.33499   0.12985   0.00000  Uiso   1.00
H2     H     0.84223   0.90357   0.78003   0.00000  Uiso   1.00
H3     H     0.40114   0.64839   0.29262   0.00000  Uiso   1.00
H4     H     0.20348   0.22652   0.64152   0.00000  Uiso   1.00
H5     H     0.24714   0.17387   0.61026   0.00000  Uiso   1.00
H6     H     0.27168   0.23735   0.52791   0.00000  Uiso   1.00
H7     H     0.19905   0.22493   0.53218   0.00000  Uiso   1.00
H8     H     0.22692   0.28847   0.55920   0.00000  Uiso   1.00
H9     H     0.68150   0.66516   0.20392   0.00000  Uiso   1.00
H10    H     0.61283   0.69258   0.20655   0.00000  Uiso   1.00
H11    H     0.58846   0.62368   0.28330   0.00000  Uiso   1.00
H12    H     0.61314   0.59220   0.21571   0.00000  Uiso   1.00
H13    H     0.27392   0.70357   0.14164   0.00000  Uiso   1.00
H14    H     0.65697   0.59646   0.28022   0.00000  Uiso   1.00
H15    H     0.16591   0.76291   0.62890   0.00000  Uiso   1.00
H16    H     0.19794   0.73192   0.56606   0.00000  Uiso   1.00
H17    H     0.27670   0.79643   0.57503   0.00000  Uiso   1.00
H18    H     0.21247   0.83157   0.56587   0.00000  Uiso   1.00
H19    H     0.24424   0.82806   0.63820   0.00000  Uiso   1.00
H20    H     0.65962   0.31068   0.21637   0.00000  Uiso   1.00
H21    H     0.69291   0.37637   0.20694   0.00000  Uiso   1.00
H22    H     0.63291   0.41545   0.28525   0.00000  Uiso   1.00
H23    H     0.59424   0.38683   0.22429   0.00000  Uiso   1.00
H24    H     0.32593   0.74744   0.10950   0.00000  Uiso   1.00
H25    H     0.59959   0.35008   0.29380   0.00000  Uiso   1.00
H26    H     0.20369   0.77391   0.35819   0.00000  Uiso   1.00
H27    H     0.24761   0.82575   0.39057   0.00000  Uiso   1.00
H28    H     0.27117   0.76091   0.47201   0.00000  Uiso   1.00
H29    H     0.19864   0.77388   0.46745   0.00000  Uiso   1.00
H30    H     0.22626   0.71056   0.43950   0.00000  Uiso   1.00
H31    H     0.68132   0.33458   0.79598   0.00000  Uiso   1.00
H32    H     0.61247   0.30768   0.79265   0.00000  Uiso   1.00
H33    H     0.58932   0.37682   0.71568   0.00000  Uiso   1.00
H34    H     0.61359   0.40805   0.78359   0.00000  Uiso   1.00
H35    H     0.26138   0.77121   0.02787   0.00000  Uiso   1.00
H36    H     0.65800   0.40353   0.71957   0.00000  Uiso   1.00
H37    H     0.16496   0.23630   0.37021   0.00000  Uiso   1.00
H38    H     0.19652   0.26680   0.43361   0.00000  Uiso   1.00
H39    H     0.27532   0.20230   0.42474   0.00000  Uiso   1.00
H40    H     0.21099   0.16717   0.43311   0.00000  Uiso   1.00
H41    H     0.24326   0.17113   0.36106   0.00000  Uiso   1.00
H42    H     0.65962   0.68936   0.78370   0.00000  Uiso   1.00
H43    H     0.69295   0.62369   0.79320   0.00000  Uiso   1.00
H44    H     0.63293   0.58451   0.71497   0.00000  Uiso   1.00
H45    H     0.59427   0.61318   0.77591   0.00000  Uiso   1.00
H46    H     0.27422   0.69864   0.03236   0.00000  Uiso   1.00
H47    H     0.59958   0.64986   0.70636   0.00000  Uiso   1.00
H48    H     0.75945   0.16884   0.37621   0.00000  Uiso   1.00
H49    H     0.72539   0.20221   0.43628   0.00000  Uiso   1.00
H50    H     0.79002   0.28076   0.42939   0.00000  Uiso   1.00
H51    H     0.82512   0.21688   0.44131   0.00000  Uiso   1.00
H52    H     0.82445   0.24768   0.36835   0.00000  Uiso   1.00
H53    H     0.31776   0.66459   0.78676   0.00000  Uiso   1.00
H54    H     0.38682   0.69064   0.78147   0.00000  Uiso   1.00
H55    H     0.40584   0.62440   0.70019   0.00000  Uiso   1.00
H56    H     0.38373   0.59076   0.76761   0.00000  Uiso   1.00
H57    H     0.21088   0.72634   0.06013   0.00000  Uiso   1.00
H58    H     0.33694   0.59855   0.70604   0.00000  Uiso   1.00
H59    H     0.77311   0.79376   0.35575   0.00000  Uiso   1.00
H60    H     0.82038   0.74874   0.39403   0.00000  Uiso   1.00
H61    H     0.74836   0.72941   0.46935   0.00000  Uiso   1.00
H62    H     0.76356   0.80150   0.46397   0.00000  Uiso   1.00
H63    H     0.70225   0.77463   0.43049   0.00000  Uiso   1.00
H64    H     0.34106   0.31277   0.78530   0.00000  Uiso   1.00
H65    H     0.30776   0.37854   0.79392   0.00000  Uiso   1.00
H66    H     0.36788   0.41686   0.71527   0.00000  Uiso   1.00
H67    H     0.40647   0.38881   0.77660   0.00000  Uiso   1.00
H68    H     0.84038   0.18932   0.71643   0.00000  Uiso   1.00
H69    H     0.40118   0.35141   0.70750   0.00000  Uiso   1.00
H70    H     0.80716   0.12358   0.70706   0.00000  Uiso   1.00
H71    H     0.86720   0.08466   0.78543   0.00000  Uiso   1.00
H72    H     0.90585   0.11327   0.72446   0.00000  Uiso   1.00
H73    H     0.23320   0.30339   0.06645   0.00000  Uiso   1.00
H74    H     0.90043   0.15007   0.79392   0.00000  Uiso   1.00
H75    H     0.74066   0.66892   0.12367   0.00000  Uiso   1.00
H76    H     0.77483   0.70229   0.06368   0.00000  Uiso   1.00
H77    H     0.71020   0.78083   0.07043   0.00000  Uiso   1.00
H78    H     0.67510   0.71696   0.05847   0.00000  Uiso   1.00
H79    H     0.67567   0.74777   0.13143   0.00000  Uiso   1.00
H80    H     0.18737   0.15901   0.71478   0.00000  Uiso   1.00
H81    H     0.12157   0.19225   0.70624   0.00000  Uiso   1.00
H82    H     0.08339   0.13205   0.78490   0.00000  Uiso   1.00
H83    H     0.11143   0.09349   0.72353   0.00000  Uiso   1.00
H84    H     0.29771   0.22460   0.07537   0.00000  Uiso   1.00
H85    H     0.14887   0.09881   0.79260   0.00000  Uiso   1.00
H86    H     0.72681   0.29390   0.14426   0.00000  Uiso   1.00
H87    H     0.67935   0.24895   0.10616   0.00000  Uiso   1.00
H88    H     0.75110   0.22953   0.03056   0.00000  Uiso   1.00
H89    H     0.73597   0.30162   0.03598   0.00000  Uiso   1.00
H90    H     0.79738   0.27472   0.06922   0.00000  Uiso   1.00
H91    H     0.16468   0.81796   0.71297   0.00000  Uiso   1.00
H92    H     0.19063   0.88706   0.71846   0.00000  Uiso   1.00
H93    H     0.12428   0.90581   0.79972   0.00000  Uiso   1.00
H94    H     0.09076   0.88382   0.73218   0.00000  Uiso   1.00
H95    H     0.33281   0.28895   0.06699   0.00000  Uiso   1.00
H96    H     0.09854   0.83688   0.79363   0.00000  Uiso   1.00
H97    H     0.74053   0.33120   0.87618   0.00000  Uiso   1.00
H98    H     0.77458   0.29786   0.93627   0.00000  Uiso   1.00
H99    H     0.70994   0.21932   0.92940   0.00000  Uiso   1.00
H100   H     0.67485   0.28320   0.94129   0.00000  Uiso   1.00
H101   H     0.67552   0.25238   0.86835   0.00000  Uiso   1.00
H102   H     0.18740   0.84114   0.28502   0.00000  Uiso   1.00
H103   H     0.12168   0.80776   0.29379   0.00000  Uiso   1.00
H104   H     0.08321   0.86774   0.21510   0.00000  Uiso   1.00
H105   H     0.11128   0.90646   0.27632   0.00000  Uiso   1.00
H106   H     0.32884   0.25670   0.13905   0.00000  Uiso   1.00
H107   H     0.14860   0.90112   0.20718   0.00000  Uiso   1.00
H108   H     0.72680   0.70623   0.85574   0.00000  Uiso   1.00
H109   H     0.67958   0.75127   0.89408   0.00000  Uiso   1.00
H110   H     0.75166   0.77050   0.96935   0.00000  Uiso   1.00
H111   H     0.73641   0.69843   0.96394   0.00000  Uiso   1.00
H112   H     0.79771   0.72528   0.93042   0.00000  Uiso   1.00
H113   H     0.16432   0.18189   0.28560   0.00000  Uiso   1.00
H114   H     0.19039   0.11286   0.27986   0.00000  Uiso   1.00
H115   H     0.12473   0.09451   0.19786   0.00000  Uiso   1.00
H116   H     0.09064   0.11608   0.26522   0.00000  Uiso   1.00
H117   H     0.81868   0.83457   0.70377   0.00000  Uiso   1.00
H118   H     0.09886   0.16338   0.20417   0.00000  Uiso   1.00
H119   H     0.26288   0.66602   0.87098   0.00000  Uiso   1.00
H120   H     0.23197   0.69810   0.93383   0.00000  Uiso   1.00
H121   H     0.29646   0.77687   0.92470   0.00000  Uiso   1.00
H122   H     0.33159   0.71264   0.93391   0.00000  Uiso   1.00
H123   H     0.32803   0.74434   0.86154   0.00000  Uiso   1.00
H124   H     0.81868   0.16537   0.29602   0.00000  Uiso   1.00
H125   H     0.88749   0.19237   0.29280   0.00000  Uiso   1.00
H126   H     0.91086   0.12327   0.21585   0.00000  Uiso   1.00
H127   H     0.88654   0.09201   0.28373   0.00000  Uiso   1.00
H128   H     0.88750   0.80758   0.70697   0.00000  Uiso   1.00
H129   H     0.84221   0.09646   0.21964   0.00000  Uiso   1.00
H130   H     0.27363   0.29659   0.85857   0.00000  Uiso   1.00
H131   H     0.32623   0.25290   0.88987   0.00000  Uiso   1.00
H132   H     0.26271   0.22841   0.97219   0.00000  Uiso   1.00
H133   H     0.27516   0.30104   0.96791   0.00000  Uiso   1.00
H134   H     0.21164   0.27319   0.94086   0.00000  Uiso   1.00
H135   H     0.84032   0.81058   0.28375   0.00000  Uiso   1.00
H136   H     0.80709   0.87630   0.29321   0.00000  Uiso   1.00
H137   H     0.86722   0.91536   0.21500   0.00000  Uiso   1.00
H138   H     0.90580   0.88665   0.27596   0.00000  Uiso   1.00
H139   H     0.91089   0.87678   0.78382   0.00000  Uiso   1.00
H140   H     0.90046   0.84995   0.20641   0.00000  Uiso   1.00
H141   H     0.75936   0.83106   0.62369   0.00000  Uiso   1.00
H142   H     0.72518   0.79770   0.56370   0.00000  Uiso   1.00
H143   H     0.78979   0.71913   0.57045   0.00000  Uiso   1.00
H144   H     0.82490   0.78299   0.55847   0.00000  Uiso   1.00
H145   H     0.82434   0.75219   0.63143   0.00000  Uiso   1.00
H146   H     0.31801   0.33568   0.21451   0.00000  Uiso   1.00
H147   H     0.38705   0.30965   0.22025   0.00000  Uiso   1.00
H148   H     0.40535   0.37533   0.30226   0.00000  Uiso   1.00
H149   H     0.38376   0.40942   0.23491   0.00000  Uiso   1.00
H150   H     0.88654   0.90795   0.71591   0.00000  Uiso   1.00
H151   H     0.33648   0.40117   0.29596   0.00000  Uiso   1.00
H152   H     0.77325   0.20605   0.64428   0.00000  Uiso   1.00
H153   H     0.82071   0.25099   0.60617   0.00000  Uiso   1.00
H154   H     0.74895   0.27038   0.53055   0.00000  Uiso   1.00
H155   H     0.76411   0.19829   0.53599   0.00000  Uiso   1.00
H156   H     0.70269   0.22518   0.56922   0.00000  Uiso   1.00
H157   H     0.34117   0.68724   0.21481   0.00000  Uiso   1.00
H158   H     0.30777   0.62153   0.20603   0.00000  Uiso   1.00
H159   H     0.36774   0.58301   0.28469   0.00000  Uiso   1.00
H160   H     0.40645   0.61108   0.22346   0.00000  Uiso   1.00
N1     N     0.11782   0.35280   0.09489   0.00000  Uiso   1.00
N2     N     0.03658   0.73147   0.20398   0.00000  Uiso   1.00
N3     N     0.65405   0.88647   0.90358   0.00000  Uiso   1.00
N4     N     0.27034   0.03909   0.19354   0.00000  Uiso   1.00
N5     N     0.11686   0.64834   0.90490   0.00000  Uiso   1.00
N6     N     0.96460   0.26884   0.20506   0.00000  Uiso   1.00
N7     N     0.34901   0.11501   0.90455   0.00000  Uiso   1.00
N8     N     0.73185   0.96285   0.20482   0.00000  Uiso   1.00
N9     N     0.61154   0.84684   0.59598   0.00000  Uiso   1.00
N10    N     0.46084   0.22969   0.30655   0.00000  Uiso   1.00
N11    N     0.84617   0.38629   0.59635   0.00000  Uiso   1.00
N12    N     0.96465   0.73118   0.79475   0.00000  Uiso   1.00
N13    N     0.23144   0.53644   0.29584   0.00000  Uiso   1.00
N14    N     0.38500   0.15107   0.59548   0.00000  Uiso   1.00
N15    N     0.53533   0.76881   0.29464   0.00000  Uiso   1.00
N16    N     0.14822   0.61685   0.59506   0.00000  Uiso   1.00
N17    N     0.76819   0.46281   0.29544   0.00000  Uiso   1.00
N18    N     0.38512   0.84879   0.40449   0.00000  Uiso   1.00
N19    N     0.53545   0.23114   0.70490   0.00000  Uiso   1.00
N20    N     0.14710   0.38217   0.40513   0.00000  Uiso   1.00
N21    N     0.76817   0.53716   0.70475   0.00000  Uiso   1.00
N22    N     0.61168   0.15302   0.40405   0.00000  Uiso   1.00
N23    N     0.34890   0.88510   0.09548   0.00000  Uiso   1.00
N24    N     0.46132   0.76999   0.69520   0.00000  Uiso   1.00
N25    N     0.84591   0.61352   0.40357   0.00000  Uiso   1.00
N26    N     0.23144   0.46355   0.70414   0.00000  Uiso   1.00
N27    N     0.73179   0.03720   0.79552   0.00000  Uiso   1.00
N28    N     0.88847   0.65315   0.09598   0.00000  Uiso   1.00
N29    N     0.03658   0.26853   0.79602   0.00000  Uiso   1.00
N30    N     0.65390   0.11365   0.09637   0.00000  Uiso   1.00
N31    N     0.27002   0.96141   0.80471   0.00000  Uiso   1.00
N32    N     0.88826   0.34706   0.90407   0.00000  Uiso   1.00
O1     O     0.00000   0.50000   0.25000   0.00000  Uiso   1.00
O2     O    -0.00000   0.45454   0.88202   0.00000  Uiso   1.00
O3     O     0.54546  -0.00000   0.11798   0.00000  Uiso   1.00
O4     O     0.45454   0.00000   0.88202   0.00000  Uiso   1.00
O5     O     0.50000   0.95454   0.61798   0.00000  Uiso   1.00
O6     O     0.50000   0.04546   0.38202   0.00000  Uiso   1.00
O7     O     0.95454   0.50000   0.61798   0.00000  Uiso   1.00
O8     O     0.04546   0.50000   0.38202   0.00000  Uiso   1.00
O9     O     0.50000   0.04546   0.61798   0.00000  Uiso   1.00
O10    O     0.50000   0.95454   0.38202   0.00000  Uiso   1.00
O11    O     0.04546   0.50000   0.61798   0.00000  Uiso   1.00
O12    O     0.00000   0.50000   0.75000   0.00000  Uiso   1.00
O13    O     0.95454   0.50000   0.38202   0.00000  Uiso   1.00
O14    O     0.06399   0.60947   0.21539   0.00000  Uiso   1.00
O15    O     0.93601   0.39053   0.78461   0.00000  Uiso   1.00
O16    O     0.60947   0.93601   0.21539   0.00000  Uiso   1.00
O17    O     0.39053   0.06399   0.78461   0.00000  Uiso   1.00
O18    O     0.93601   0.39053   0.21539   0.00000  Uiso   1.00
O19    O     0.06399   0.60947   0.78461   0.00000  Uiso   1.00
O20    O     0.39053   0.06399   0.21539   0.00000  Uiso   1.00
O21    O     0.60947   0.93601   0.78461   0.00000  Uiso   1.00
O22    O     0.93601   0.60947   0.78461   0.00000  Uiso   1.00
O23    O     0.50000   0.00000   0.25000   0.00000  Uiso   1.00
O24    O     0.06399   0.39053   0.21539   0.00000  Uiso   1.00
O25    O     0.39053   0.93601   0.78461   0.00000  Uiso   1.00
O26    O     0.60947   0.06399   0.21539   0.00000  Uiso   1.00
O27    O     0.06399   0.39053   0.78461   0.00000  Uiso   1.00
O28    O     0.93601   0.60947   0.21539   0.00000  Uiso   1.00
O29    O     0.60947   0.06399   0.78461   0.00000  Uiso   1.00
O30    O     0.39053   0.93601   0.21539   0.00000  Uiso   1.00
O31    O     0.56399   0.10947   0.71539   0.00000  Uiso   1.00
O32    O     0.43601   0.89053   0.28461   0.00000  Uiso   1.00
O33    O     0.10947   0.43601   0.71539   0.00000  Uiso   1.00
O34    O     0.50000   0.00000   0.75000   0.00000  Uiso   1.00
O35    O     0.89053   0.56399   0.28461   0.00000  Uiso   1.00
O36    O     0.43601   0.89053   0.71539   0.00000  Uiso   1.00
O37    O     0.56399   0.10947   0.28461   0.00000  Uiso   1.00
O38    O     0.89053   0.56399   0.71539   0.00000  Uiso   1.00
O39    O     0.10947   0.43601   0.28461   0.00000  Uiso   1.00
O40    O     0.43601   0.10947   0.28461   0.00000  Uiso   1.00
O41    O     0.56399   0.89053   0.71539   0.00000  Uiso   1.00
O42    O     0.89053   0.43601   0.28461   0.00000  Uiso   1.00
O43    O     0.10947   0.56399   0.71539   0.00000  Uiso   1.00
O44    O     0.56399   0.89053   0.28461   0.00000  Uiso   1.00
O45    O    -0.00000   0.45454   0.11798   0.00000  Uiso   1.00
O46    O     0.43601   0.10947   0.71539   0.00000  Uiso   1.00
O47    O     0.10947   0.56399   0.28461   0.00000  Uiso   1.00
O48    O     0.89053   0.43601   0.71539   0.00000  Uiso   1.00
O49    O     0.21883   0.26123   0.14374   0.00000  Uiso   1.00
O50    O     0.83912   0.79563   0.78275   0.00000  Uiso   1.00
O51    O     0.25710   0.78660   0.14435   0.00000  Uiso   1.00
O52    O     0.79359   0.16421   0.78827   0.00000  Uiso   1.00
O53    O     0.78483   0.74196   0.14332   0.00000  Uiso   1.00
O54    O     0.16292   0.20569   0.78700   0.00000  Uiso   1.00
O55    O     0.74613   0.21124   0.14663   0.00000  Uiso   1.00
O56    O     0.00000   0.54546   0.88202   0.00000  Uiso   1.00
O57    O     0.20652   0.83576   0.79098   0.00000  Uiso   1.00
O58    O     0.78473   0.25814   0.85668   0.00000  Uiso   1.00
O59    O     0.16292   0.79429   0.21295   0.00000  Uiso   1.00
O60    O     0.74626   0.78887   0.85330   0.00000  Uiso   1.00
O61    O     0.20680   0.16461   0.20786   0.00000  Uiso   1.00
O62    O     0.21806   0.73962   0.85604   0.00000  Uiso   1.00
O63    O     0.83908   0.20440   0.21707   0.00000  Uiso   1.00
O64    O     0.25720   0.21351   0.85568   0.00000  Uiso   1.00
O65    O     0.79361   0.83581   0.21190   0.00000  Uiso   1.00
O66    O     0.71517   0.75803   0.64333   0.00000  Uiso   1.00
O67    O     0.45454  -0.00000   0.11798   0.00000  Uiso   1.00
O68    O     0.33532   0.29319   0.29224   0.00000  Uiso   1.00
O69    O     0.75392   0.28871   0.64661   0.00000  Uiso   1.00
O70    O     0.29434   0.66276   0.28688   0.00000  Uiso   1.00
O71    O     0.28656   0.24291   0.64441   0.00000  Uiso   1.00
O72    O     0.66083   0.70436   0.28266   0.00000  Uiso   1.00
O73    O     0.23951   0.71810   0.64383   0.00000  Uiso   1.00
O74    O     0.70641   0.33580   0.28820   0.00000  Uiso   1.00
O75    O     0.28668   0.75694   0.35553   0.00000  Uiso   1.00
O76    O     0.66096   0.29557   0.71700   0.00000  Uiso   1.00
O77    O     0.23870   0.28116   0.35633   0.00000  Uiso   1.00
O78    O     0.54546   0.00000   0.88202   0.00000  Uiso   1.00
O79    O     0.70639   0.66418   0.71188   0.00000  Uiso   1.00
O80    O     0.71525   0.24190   0.35667   0.00000  Uiso   1.00
O81    O     0.33565   0.70655   0.70885   0.00000  Uiso   1.00
O82    O     0.75370   0.71111   0.35328   0.00000  Uiso   1.00
O83    O     0.29434   0.33722   0.71313   0.00000  Uiso   1.00
O84    O     0.00000   0.54546   0.11798   0.00000  Uiso   1.00
Zn1    Zn    0.06497   0.50000   0.29947   0.00000  Uiso   1.00
Zn2    Zn    0.43503   0.00000   0.20053   0.00000  Uiso   1.00
Zn3    Zn    0.00000   0.43503   0.79947   0.00000  Uiso   1.00
Zn4    Zn    0.00000   0.56497   0.20053   0.00000  Uiso   1.00
Zn5    Zn    0.43503   0.00000   0.79947   0.00000  Uiso   1.00
Zn6    Zn    0.56497   0.00000   0.20053   0.00000  Uiso   1.00
Zn7    Zn    0.00000   0.56497   0.79947   0.00000  Uiso   1.00
Zn8    Zn    0.00000   0.43503   0.20053   0.00000  Uiso   1.00
Zn9    Zn    0.93503   0.50000   0.70053   0.00000  Uiso   1.00
Zn10   Zn    0.50000   0.93503   0.29947   0.00000  Uiso   1.00
Zn11   Zn    0.50000   0.06497   0.70053   0.00000  Uiso   1.00
Zn12   Zn    0.93503   0.50000   0.29947   0.00000  Uiso   1.00
Zn13   Zn    0.06497   0.50000   0.70053   0.00000  Uiso   1.00
Zn14   Zn    0.50000   0.06497   0.29947   0.00000  Uiso   1.00
Zn15   Zn    0.50000   0.93503   0.70053   0.00000  Uiso   1.00
Zn16   Zn    0.56497   0.00000   0.79947   0.00000  Uiso   1.00
loop_
_geom_bond_atom_site_label_1
_geom_bond_atom_site_label_2
_geom_bond_distance
_geom_bond_site_symmetry_2
_ccdc_geom_bond_type
C1     C198    1.404   .     A
C1     C169    1.404   .     A
C1     C24     1.471   .     S
C2     C190    1.407   .     A
C2     C148    1.470   .     S
C2     C179    1.408   .     A
C3     C190    1.400   .     A
C3     C27     1.419   .     A
C3     C127    1.449   .     S
C4     C191    1.399   .     A
C4     C32     1.416   .     A
C4     C128    1.449   .     S
C5     C129    1.449   .     S
C5     C193    1.400   .     A
C5     C33     1.419   .     A
C6     C30     1.416   .     A
C6     C194    1.402   .     A
C6     C130    1.449   .     S
C7     C31     1.419   .     A
C7     C131    1.449   .     S
C7     C195    1.400   .     A
C8     C19     1.416   .     A
C8     C196    1.399   .     A
C8     C132    1.449   .     S
C9     C133    1.449   .     S
C9     C197    1.400   .     A
C9     C20     1.419   .     A
C10    C198    1.402   .     A
C10    C134    1.449   .     S
C10    C17     1.416   .     A
C11    C136    1.449   .     S
C11    C18     1.419   .     A
C11    C199    1.400   .     A
C12    C23     1.417   .     A
C12    C200    1.402   .     A
C12    C137    1.449   .     S
C13    C112    1.471   .     S
C13    C187    1.404   .     A
C13    C180    1.407   .     A
C14    C201    1.400   .     A
C14    C138    1.449   .     S
C14    C25     1.420   .     A
C15    C139    1.449   .     S
C15    C202    1.399   .     A
C15    C21     1.417   .     A
C16    C140    1.449   .     S
C16    C204    1.400   .     A
C16    C22     1.419   .     A
C17    C205    1.416   .     A
C17    C162    1.473   .     S
C18    C161    1.481   .     S
C18    C206    1.419   .     A
C19    C168    1.476   .     S
C19    C207    1.416   .     A
C20    C167    1.481   .     S
C20    C208    1.419   .     A
C21    C166    1.476   .     S
C21    C209    1.417   .     A
C22    C210    1.419   .     A
C22    C165    1.482   .     S
C23    C164    1.476   .     S
C23    C211    1.417   .     A
C24    C188    1.407   .     A
C24    C182    1.407   .     A
C25    C163    1.484   .     S
C25    C212    1.420   .     A
C26    C224    1.417   .     A
C26    C213    1.417   .     A
C26    C153    1.476   .     S
C27    C152    1.482   .     S
C27    C215    1.419   .     A
C28    C216    1.417   .     A
C28    C222    1.417   .     A
C28    C160    1.476   .     S
C29    C158    1.484   .     S
C29    C223    1.421   .     A
C29    C217    1.421   .     A
C30    C218    1.416   .     A
C30    C157    1.474   .     S
C31    C156    1.481   .     S
C31    C219    1.419   .     A
C32    C220    1.416   .     A
C32    C155    1.476   .     S
C33    C221    1.419   .     A
C33    C154    1.481   .     S
C34    H1      1.116   .     S
C34    O49     1.415   .     S
C34    C36     1.523   .     S
C34    H73     1.109   .     S
C35    C183    1.404   .     A
C35    C194    1.404   .     A
C35    C203    1.471   .     S
C36    H106    1.109   .     S
C36    H95     1.110   .     S
C36    H84     1.110   .     S
C37    O50     1.411   .     S
C37    C38     1.520   .     S
C37    H117    1.109   .     S
C37    H128    1.115   .     S
C38    H2      1.111   .     S
C38    H150    1.110   .     S
C38    H139    1.111   .     S
C39    H24     1.115   .     S
C39    C40     1.517   .     S
C39    H13     1.110   .     S
C39    O51     1.410   .     S
C40    H46     1.110   .     S
C40    H35     1.110   .     S
C40    H57     1.111   .     S
C41    O52     1.412   .     S
C41    C42     1.520   .     S
C41    H68     1.111   .     S
C41    H70     1.116   .     S
C42    H72     1.110   .     S
C42    H74     1.111   .     S
C42    H71     1.111   .     S
C43    C44     1.523   .     S
C43    O53     1.415   .     S
C43    H76     1.109   .     S
C43    H75     1.116   .     S
C44    H77     1.110   .     S
C44    H79     1.109   .     S
C44    H78     1.110   .     S
C45    H81     1.116   .     S
C45    O54     1.412   .     S
C45    H80     1.111   .     S
C45    C47     1.520   .     S
C46    C184    1.407   .     A
C46    C192    1.471   .     S
C46    C195    1.408   .     A
C47    H83     1.111   .     S
C47    H85     1.111   .     S
C47    H82     1.111   .     S
C48    H86     1.110   .     S
C48    C49     1.517   .     S
C48    O55     1.410   .     S
C48    H87     1.114   .     S
C49    H90     1.111   .     S
C49    H88     1.110   .     S
C49    H89     1.110   .     S
C50    H91     1.109   .     S
C50    C51     1.520   .     S
C50    O57     1.411   .     S
C50    H92     1.115   .     S
C51    H93     1.111   .     S
C51    H96     1.111   .     S
C51    H94     1.110   .     S
C52    H98     1.109   .     S
C52    O58     1.415   .     S
C52    C53     1.523   .     S
C52    H97     1.116   .     S
C53    H101    1.109   .     S
C53    H100    1.110   .     S
C53    H99     1.110   .     S
C54    O59     1.412   .     S
C54    H103    1.116   .     S
C54    C55     1.520   .     S
C54    H102    1.111   .     S
C55    H105    1.111   .     S
C55    H104    1.111   .     S
C55    H107    1.111   .     S
C56    H108    1.110   .     S
C56    C58     1.517   .     S
C56    O60     1.410   .     S
C56    H109    1.114   .     S
C57    C185    1.407   .     A
C57    C191    1.408   .     A
C57    C181    1.470   .     S
C58    H110    1.110   .     S
C58    H111    1.110   .     S
C58    H112    1.111   .     S
C59    H113    1.109   .     S
C59    C60     1.520   .     S
C59    O61     1.411   .     S
C59    H114    1.115   .     S
C60    H118    1.111   .     S
C60    H115    1.111   .     S
C60    H116    1.110   .     S
C61    H120    1.109   .     S
C61    C62     1.523   .     S
C61    H119    1.116   .     S
C61    O62     1.415   .     S
C62    H123    1.109   .     S
C62    H121    1.110   .     S
C62    H122    1.110   .     S
C63    H125    1.115   .     S
C63    H124    1.109   .     S
C63    C64     1.520   .     S
C63    O63     1.411   .     S
C64    H127    1.110   .     S
C64    H129    1.111   .     S
C64    H126    1.111   .     S
C65    H130    1.110   .     S
C65    H131    1.115   .     S
C65    O64     1.411   .     S
C65    C66     1.517   .     S
C66    H134    1.111   .     S
C66    H132    1.110   .     S
C66    H133    1.110   .     S
C67    H136    1.116   .     S
C67    H135    1.111   .     S
C67    C69     1.520   .     S
C67    O65     1.412   .     S
C68    C193    1.407   .     A
C68    C186    1.408   .     A
C68    C170    1.471   .     S
C69    H138    1.111   .     S
C69    H140    1.111   .     S
C69    H137    1.111   .     S
C70    C71     1.523   .     S
C70    H141    1.116   .     S
C70    O66     1.415   .     S
C70    H142    1.109   .     S
C71    H144    1.110   .     S
C71    H143    1.110   .     S
C71    H145    1.109   .     S
C72    H146    1.109   .     S
C72    C73     1.520   .     S
C72    O68     1.411   .     S
C72    H147    1.115   .     S
C73    H149    1.110   .     S
C73    H151    1.111   .     S
C73    H148    1.111   .     S
C74    H152    1.110   .     S
C74    C75     1.517   .     S
C74    H153    1.114   .     S
C74    O69     1.410   .     S
C75    H155    1.110   .     S
C75    H154    1.110   .     S
C75    H156    1.111   .     S
C76    H158    1.116   .     S
C76    H157    1.111   .     S
C76    O70     1.412   .     S
C76    C77     1.520   .     S
C77    H159    1.111   .     S
C77    H160    1.110   .     S
C77    H3      1.111   .     S
C78    H4      1.110   .     S
C78    H5      1.115   .     S
C78    C80     1.517   .     S
C78    O71     1.411   .     S
C79    C90     1.199   .     T
C79    C151    1.423   .     S
C80    H6      1.110   .     S
C80    H8      1.111   .     S
C80    H7      1.110   .     S
C81    H9      1.109   .     S
C81    O72     1.411   .     S
C81    H10     1.115   .     S
C81    C82     1.520   .     S
C82    H11     1.111   .     S
C82    H12     1.111   .     S
C82    H14     1.111   .     S
C83    C84     1.523   .     S
C83    O73     1.415   .     S
C83    H16     1.109   .     S
C83    H15     1.116   .     S
C84    H17     1.110   .     S
C84    H19     1.109   .     S
C84    H18     1.110   .     S
C85    C86     1.520   .     S
C85    H21     1.116   .     S
C85    H20     1.111   .     S
C85    O74     1.412   .     S
C86    H25     1.111   .     S
C86    H23     1.110   .     S
C86    H22     1.111   .     S
C87    H26     1.110   .     S
C87    C88     1.517   .     S
C87    H27     1.115   .     S
C87    O75     1.410   .     S
C88    H29     1.110   .     S
C88    H28     1.110   .     S
C88    H30     1.111   .     S
C89    C91     1.520   .     S
C89    H32     1.115   .     S
C89    O76     1.411   .     S
C89    H31     1.109   .     S
C90    C150    1.423   .     S
C91    H36     1.111   .     S
C91    H34     1.110   .     S
C91    H33     1.111   .     S
C92    O77     1.415   .     S
C92    H37     1.116   .     S
C92    C93     1.523   .     S
C92    H38     1.109   .     S
C93    H40     1.110   .     S
C93    H41     1.109   .     S
C93    H39     1.110   .     S
C94    H43     1.116   .     S
C94    O79     1.412   .     S
C94    C95     1.520   .     S
C94    H42     1.111   .     S
C95    H45     1.110   .     S
C95    H47     1.111   .     S
C95    H44     1.111   .     S
C96    O80     1.415   .     S
C96    H49     1.109   .     S
C96    C97     1.523   .     S
C96    H48     1.116   .     S
C97    H51     1.110   .     S
C97    H50     1.110   .     S
C97    H52     1.109   .     S
C98    H53     1.109   .     S
C98    C99     1.520   .     S
C98    O81     1.411   .     S
C98    H54     1.115   .     S
C99    H55     1.111   .     S
C99    H58     1.111   .     S
C99    H56     1.111   .     S
C100   H60     1.114   .     S
C100   O82     1.410   .     S
C100   H59     1.110   .     S
C100   C102    1.517   .     S
C101   C149    1.423   .     S
C101   C113    1.199   .     S
C102   H61     1.110   .     S
C102   H62     1.110   .     S
C102   H63     1.111   .     S
C103   O83     1.412   .     S
C103   H64     1.111   .     S
C103   H65     1.116   .     S
C103   C104    1.520   .     S
C104   H69     1.111   .     S
C104   H67     1.110   .     S
C104   H66     1.111   .     S
C105   N1      1.157   .     T
C105   C205    1.449   .     S
C106   C206    1.449   .     S
C106   N12     1.158   .     T
C107   C207    1.449   .     S
C107   N23     1.157   .     T
C108   C208    1.449   .     S
C108   N27     1.158   .     T
C109   C209    1.449   .     S
C109   N28     1.158   .     T
C110   N29     1.158   .     T
C110   C210    1.449   .     S
C111   N30     1.157   .     T
C111   C211    1.449   .     S
C112   C171    1.407   .     A
C112   C199    1.408   .     A
C113   C147    1.423   .     S
C114   N31     1.158   .     T
C114   C212    1.449   .     S
C115   C213    1.449   .     S
C115   N32     1.157   .     T
C116   C215    1.449   .     S
C116   N2      1.158   .     T
C117   N3      1.157   .     T
C117   C216    1.449   .     S
C118   C217    1.449   .     S
C118   N4      1.158   .     T
C119   C218    1.449   .     S
C119   N5      1.157   .     T
C120   C219    1.449   .     S
C120   N6      1.158   .     T
C121   C220    1.449   .     S
C121   N7      1.157   .     T
C122   N8      1.158   .     T
C122   C221    1.449   .     S
C123   N9      1.157   .     T
C123   C222    1.449   .     S
C124   C146    1.423   .     S
C124   C135    1.199   1_556 S
C125   N10     1.158   .     T
C125   C223    1.449   .     S
C126   N11     1.157   .     T
C126   C224    1.449   .     S
C127   N13     1.158   .     T
C128   N14     1.157   .     T
C129   N15     1.158   .     T
C130   N16     1.157   .     T
C131   N17     1.158   .     T
C132   N18     1.157   .     T
C133   N19     1.158   .     T
C134   N20     1.157   .     T
C135   C145    1.423   .     S
C135   C124    1.199   1_554 S
C136   N21     1.158   .     T
C137   N22     1.158   .     T
C138   N24     1.158   .     T
C139   N25     1.157   .     T
C140   N26     1.158   .     T
C141   C144    1.423   .     S
C141   C142    1.199   1_556 S
C142   C143    1.423   .     S
C142   C141    1.199   1_554 S
C143   O84     1.280   .     A
C143   O45     1.280   .     S
C144   O56     1.280   .     A
C144   O2      1.280   .     S
C145   O67     1.280   .     A
C145   O3      1.280   .     A
C146   O78     1.280   .     A
C146   O4      1.280   .     A
C147   O5      1.280   1_545 A
C147   O9      1.280   .     S
C148   C196    1.408   .     A
C148   C172    1.408   .     A
C149   O6      1.280   .     A
C149   O10     1.280   1_545 S
C150   O11     1.280   .     A
C150   O7      1.280   1_455 S
C151   O13     1.280   1_455 A
C151   O8      1.280   .     S
C152   O14     1.281   .     A
C152   O47     1.281   .     A
C153   O48     1.279   .     A
C153   O15     1.279   .     A
C154   O44     1.281   .     A
C154   O16     1.281   .     A
C155   O17     1.279   .     A
C155   O46     1.279   .     A
C156   O42     1.281   .     A
C156   O18     1.281   .     A
C157   O19     1.278   .     A
C157   O43     1.278   .     A
C158   O20     1.282   .     A
C158   O40     1.282   .     A
C159   C214    1.471   .     S
C159   C197    1.407   .     A
C159   C173    1.408   .     A
C160   O21     1.279   .     A
C160   O41     1.279   .     A
C161   O22     1.281   .     A
C161   O38     1.281   .     A
C162   O39     1.278   .     A
C162   O24     1.278   .     A
C163   O36     1.281   .     A
C163   O25     1.281   .     A
C164   O26     1.279   .     A
C164   O37     1.279   .     A
C165   O33     1.281   .     A
C165   O27     1.281   .     A
C166   O35     1.279   .     A
C166   O28     1.279   .     A
C167   O31     1.281   .     A
C167   O29     1.281   .     A
C168   O30     1.279   .     A
C168   O32     1.279   .     A
C169   C205    1.402   .     A
C169   O49     1.386   .     S
C170   C174    1.404   .     A
C170   C202    1.407   .     A
C171   C206    1.400   .     A
C171   O50     1.386   .     S
C172   C207    1.399   .     A
C172   O51     1.386   .     S
C173   C208    1.400   .     A
C173   O52     1.387   .     S
C174   C209    1.402   .     A
C174   O53     1.386   .     S
C175   C181    1.407   .     A
C175   C210    1.400   .     A
C175   O54     1.387   .     S
C176   O55     1.386   .     S
C176   C211    1.399   .     A
C176   C192    1.407   .     A
C177   C212    1.400   .     A
C177   C203    1.407   .     A
C177   O57     1.387   .     S
C178   C213    1.402   .     A
C178   O58     1.386   .     S
C178   C214    1.404   .     A
C179   C215    1.400   .     A
C179   O59     1.387   .     S
C180   C216    1.399   .     A
C180   O60     1.386   .     S
C181   C204    1.407   .     A
C182   C217    1.400   .     A
C182   O61     1.387   .     S
C183   O62     1.386   .     S
C183   C218    1.402   .     A
C184   O63     1.386   .     S
C184   C219    1.400   .     A
C185   C220    1.399   .     A
C185   O64     1.386   .     S
C186   O65     1.387   .     S
C186   C221    1.400   .     A
C187   C222    1.402   .     A
C187   O66     1.386   .     S
C188   C223    1.400   .     A
C188   O68     1.387   .     S
C189   O69     1.386   .     S
C189   C224    1.399   .     A
C189   C214    1.407   .     A
C190   O70     1.387   .     S
C191   O71     1.386   .     S
C192   C200    1.404   .     A
C193   O72     1.386   .     S
C194   O73     1.386   .     S
C195   O74     1.387   .     S
C196   O75     1.386   .     S
C197   O76     1.386   .     S
C198   O77     1.386   .     S
C199   O79     1.387   .     S
C200   O80     1.386   .     S
C201   C203    1.407   .     A
C201   O81     1.387   .     S
C202   O82     1.386   .     S
C204   O83     1.387   .     S
O1     Zn4     1.943   .     S
O1     Zn8     1.943   .     S
O1     Zn1     1.944   .     S
O1     Zn12    1.944   1_455 S
O2     Zn3     1.915   .     S
O3     Zn6     1.915   .     S
O4     Zn5     1.915   .     S
O5     C147    1.280   1_565 A
O5     Zn15    1.915   .     S
O6     Zn14    1.915   .     S
O7     Zn9     1.915   .     S
O7     C150    1.280   1_655 S
O8     Zn1     1.915   .     S
O9     Zn11    1.915   .     S
O10    Zn10    1.915   .     S
O10    C149    1.280   1_565 S
O11    Zn13    1.915   .     S
O12    Zn3     1.943   .     S
O12    Zn7     1.943   .     S
O12    Zn13    1.944   .     S
O12    Zn9     1.944   1_455 S
O13    C151    1.280   1_655 A
O13    Zn12    1.915   .     S
O14    Zn4     1.942   .     S
O15    Zn3     1.942   1_655 S
O16    Zn6     1.942   1_565 S
O17    Zn5     1.942   .     S
O18    Zn8     1.942   1_655 S
O19    Zn7     1.942   .     S
O20    Zn2     1.942   .     S
O21    Zn16    1.942   1_565 S
O22    Zn7     1.942   1_655 S
O23    Zn14    1.943   .     S
O23    Zn2     1.944   .     S
O23    Zn6     1.944   .     S
O23    Zn10    1.943   1_545 S
O24    Zn8     1.942   .     S
O25    Zn5     1.942   1_565 S
O26    Zn6     1.942   .     S
O27    Zn3     1.942   .     S
O28    Zn4     1.942   1_655 S
O29    Zn16    1.942   .     S
O30    Zn2     1.942   1_565 S
O31    Zn11    1.942   .     S
O32    Zn10    1.942   .     S
O33    Zn13    1.942   .     S
O34    Zn5     1.944   .     S
O34    Zn11    1.943   .     S
O34    Zn16    1.944   .     S
O34    Zn15    1.943   1_545 S
O35    Zn12    1.942   .     S
O36    Zn15    1.942   .     S
O37    Zn14    1.942   .     S
O38    Zn9     1.942   .     S
O39    Zn1     1.942   .     S
O40    Zn14    1.942   .     S
O41    Zn15    1.942   .     S
O42    Zn12    1.942   .     S
O43    Zn13    1.942   .     S
O44    Zn10    1.942   .     S
O45    Zn8     1.915   .     S
O46    Zn11    1.942   .     S
O47    Zn1     1.942   .     S
O48    Zn9     1.942   .     S
O56    Zn7     1.915   .     S
O67    Zn2     1.915   .     S
O78    Zn16    1.915   .     S
O84    Zn4     1.915   .     S
Zn2    O30     1.942   1_545 S
Zn3    O15     1.942   1_455 S
Zn4    O28     1.942   1_455 S
Zn5    O25     1.942   1_545 S
Zn6    O16     1.942   1_545 S
Zn7    O22     1.942   1_455 S
Zn8    O18     1.942   1_455 S
Zn9    O12     1.944   1_655 S
Zn10   O23     1.943   1_565 S
Zn12   O1      1.944   1_655 S
Zn15   O34     1.943   1_565 S
Zn16   O21     1.942   1_545 S
