data_str_m2_o1_o2_pcu_sym.145
_audit_creation_date              2020-01-03
_audit_creation_method            'Materials Studio'
_symmetry_space_group_name_H-M    'P1'
_symmetry_Int_Tables_number       1
_symmetry_cell_setting            triclinic
loop_
_symmetry_equiv_pos_as_xyz
  x,y,z
_cell_length_a                    32.5847
_cell_length_b                    28.7570
_cell_length_c                    30.6495
_cell_angle_alpha                 91.9633
_cell_angle_beta                  92.1827
_cell_angle_gamma                 89.6781
loop_
_atom_site_label
_atom_site_type_symbol
_atom_site_fract_x
_atom_site_fract_y
_atom_site_fract_z
_atom_site_U_iso_or_equiv
_atom_site_adp_type
_atom_site_occupancy
O1     O     0.10655   0.20625   0.24999   0.00000  Uiso   1.00
O2     O     0.22679   0.12709   0.25000   0.00000  Uiso   1.00
O3     O     0.22679   0.20625   0.25000   0.00000  Uiso   1.00
O4     O     0.10655   0.12709   0.24999   0.00000  Uiso   1.00
N5     N     0.16667   0.28402   0.25000   0.00000  Uiso   1.00
N6     N     0.16667   0.04931   0.25000   0.00000  Uiso   1.00
C7     C     0.08776   0.16680   0.25544   0.00000  Uiso   1.00
C8     C     0.24598   0.16634   0.24611   0.00000  Uiso   1.00
O9     O     0.16666   0.20626   0.18573   0.00000  Uiso   1.00
O10    O     0.16667   0.12707   0.31427   0.00000  Uiso   1.00
O11    O     0.16667   0.20626   0.31427   0.00000  Uiso   1.00
O12    O     0.16666   0.12707   0.18573   0.00000  Uiso   1.00
C13    C     0.17097   0.16596   0.16529   0.00000  Uiso   1.00
C14    C     0.16518   0.16775   0.33511   0.00000  Uiso   1.00
Cu15   Cu    0.16667   0.21355   0.25000   0.00000  Uiso   1.00
Cu16   Cu    0.16667   0.11978   0.25000   0.00000  Uiso   1.00
C17    C     0.13818   0.02383   0.22474   0.00000  Uiso   1.00
C18    C     0.19579   0.30978   0.27406   0.00000  Uiso   1.00
C19    C     0.19353   0.02573   0.27660   0.00000  Uiso   1.00
C20    C     0.13855   0.30768   0.22455   0.00000  Uiso   1.00
C21    C     0.02096   0.12444   0.26283   0.00000  Uiso   1.00
C22    C     0.31358   0.20780   0.24187   0.00000  Uiso   1.00
C23    C     0.31332   0.12343   0.24726   0.00000  Uiso   1.00
C24    C     0.02062   0.20884   0.26004   0.00000  Uiso   1.00
C25    C     0.18310   0.20688   0.04988   0.00000  Uiso   1.00
C26    C     0.15279   0.13152   0.45194   0.00000  Uiso   1.00
C27    C     0.18907   0.20425   0.45351   0.00000  Uiso   1.00
C28    C     0.17679   0.12382   0.04571   0.00000  Uiso   1.00
H29    H     0.18519   0.24020   0.03489   0.00000  Uiso   1.00
H30    H     0.13768   0.10422   0.46863   0.00000  Uiso   1.00
H31    H     0.20553   0.23211   0.47082   0.00000  Uiso   1.00
H32    H     0.17701   0.09139   0.02668   0.00000  Uiso   1.00
C33    C     0.18717   0.20642   0.09529   0.00000  Uiso   1.00
C34    C     0.14752   0.13291   0.40658   0.00000  Uiso   1.00
C35    C     0.18003   0.20894   0.40902   0.00000  Uiso   1.00
C36    C     0.17661   0.12227   0.09122   0.00000  Uiso   1.00
C37    C     0.17859   0.16466   0.11727   0.00000  Uiso   1.00
C38    C     0.16351   0.17045   0.38387   0.00000  Uiso   1.00
C39    C     0.17780   0.16587   0.02446   0.00000  Uiso   1.00
C40    C     0.17443   0.16650   0.47589   0.00000  Uiso   1.00
C41    C     0.29144   0.16563   0.24245   0.00000  Uiso   1.00
C42    C     0.04285   0.16671   0.26213   0.00000  Uiso   1.00
N43    N     0.10516   0.04636   0.20097   0.00000  Uiso   1.00
O44    O     0.11229   0.06751   0.16545   0.00000  Uiso   1.00
O45    O     0.06744   0.03432   0.20698   0.00000  Uiso   1.00
N46    N     0.23222   0.28858   0.29234   0.00000  Uiso   1.00
O47    O     0.23059   0.25683   0.32115   0.00000  Uiso   1.00
O48    O     0.26781   0.30589   0.28461   0.00000  Uiso   1.00
N49    N     0.21556   0.04991   0.31168   0.00000  Uiso   1.00
O50    O     0.25236   0.06522   0.30640   0.00000  Uiso   1.00
O51    O     0.20323   0.04617   0.35125   0.00000  Uiso   1.00
N52    N     0.11065   0.28287   0.19505   0.00000  Uiso   1.00
O53    O     0.07438   0.27332   0.20806   0.00000  Uiso   1.00
O54    O     0.11506   0.28562   0.15326   0.00000  Uiso   1.00
C55    C     0.20871   0.24774   0.11548   0.00000  Uiso   1.00
O56    O     0.19382   0.27164   0.14446   0.00000  Uiso   1.00
O57    O     0.24573   0.26133   0.09817   0.00000  Uiso   1.00
H58    H     0.25719   0.29090   0.11280   0.00000  Uiso   1.00
C59    C     0.11867   0.09933   0.38529   0.00000  Uiso   1.00
O60    O     0.09243   0.11330   0.35949   0.00000  Uiso   1.00
O61    O     0.11939   0.05274   0.39688   0.00000  Uiso   1.00
H62    H     0.09727   0.03366   0.38059   0.00000  Uiso   1.00
C63    C     0.18206   0.25686   0.39304   0.00000  Uiso   1.00
O64    O     0.21067   0.28225   0.40492   0.00000  Uiso   1.00
O65    O     0.14941   0.27450   0.36769   0.00000  Uiso   1.00
H66    H     0.15394   0.30777   0.35930   0.00000  Uiso   1.00
C67    C     0.17704   0.07469   0.10827   0.00000  Uiso   1.00
O68    O     0.20059   0.06443   0.13830   0.00000  Uiso   1.00
O69    O     0.15252   0.04027   0.08725   0.00000  Uiso   1.00
H70    H     0.15658   0.00868   0.10045   0.00000  Uiso   1.00
C71    C     0.03462   0.08631   0.29186   0.00000  Uiso   1.00
O72    O     0.06732   0.06617   0.28758   0.00000  Uiso   1.00
O73    O     0.00865   0.07287   0.32444   0.00000  Uiso   1.00
H74    H     0.02040   0.04633   0.34200   0.00000  Uiso   1.00
C75    C     0.29975   0.24500   0.21151   0.00000  Uiso   1.00
O76    O     0.26783   0.24056   0.18972   0.00000  Uiso   1.00
O77    O     0.32494   0.28281   0.20410   0.00000  Uiso   1.00
H78    H     0.31300   0.30378   0.18087   0.00000  Uiso   1.00
C79    C     0.29736   0.07913   0.22663   0.00000  Uiso   1.00
O80    O     0.30833   0.04159   0.24059   0.00000  Uiso   1.00
O81    O     0.27227   0.08028   0.18879   0.00000  Uiso   1.00
H82    H     0.26657   0.04784   0.17610   0.00000  Uiso   1.00
C83    C     0.03538   0.25016   0.28720   0.00000  Uiso   1.00
O84    O     0.01776   0.28765   0.28515   0.00000  Uiso   1.00
O85    O     0.06789   0.24524   0.31785   0.00000  Uiso   1.00
H86    H     0.07401   0.27523   0.33516   0.00000  Uiso   1.00
O87    O     0.43988   0.20625   0.24999   0.00000  Uiso   1.00
O88    O     0.56012   0.12709   0.25000   0.00000  Uiso   1.00
O89    O     0.56012   0.20625   0.25000   0.00000  Uiso   1.00
O90    O     0.43988   0.12709   0.24999   0.00000  Uiso   1.00
N91    N     0.50000   0.28402   0.25000   0.00000  Uiso   1.00
N92    N     0.50000   0.04931   0.25000   0.00000  Uiso   1.00
C93    C     0.42109   0.16680   0.25544   0.00000  Uiso   1.00
C94    C     0.57931   0.16634   0.24611   0.00000  Uiso   1.00
O95    O     0.50000   0.20626   0.18573   0.00000  Uiso   1.00
O96    O     0.50000   0.12707   0.31427   0.00000  Uiso   1.00
O97    O     0.50000   0.20626   0.31427   0.00000  Uiso   1.00
O98    O     0.50000   0.12707   0.18573   0.00000  Uiso   1.00
C99    C     0.50430   0.16596   0.16529   0.00000  Uiso   1.00
C100   C     0.49851   0.16775   0.33511   0.00000  Uiso   1.00
Cu101  Cu    0.50000   0.21355   0.25000   0.00000  Uiso   1.00
Cu102  Cu    0.50000   0.11978   0.25000   0.00000  Uiso   1.00
C103   C     0.47151   0.02383   0.22474   0.00000  Uiso   1.00
C104   C     0.52912   0.30978   0.27406   0.00000  Uiso   1.00
C105   C     0.52686   0.02573   0.27660   0.00000  Uiso   1.00
C106   C     0.47189   0.30768   0.22455   0.00000  Uiso   1.00
C107   C     0.35430   0.12444   0.26283   0.00000  Uiso   1.00
C108   C     0.64691   0.20780   0.24187   0.00000  Uiso   1.00
C109   C     0.64665   0.12343   0.24726   0.00000  Uiso   1.00
C110   C     0.35396   0.20884   0.26004   0.00000  Uiso   1.00
C111   C     0.51644   0.20688   0.04988   0.00000  Uiso   1.00
C112   C     0.48612   0.13152   0.45194   0.00000  Uiso   1.00
C113   C     0.52240   0.20425   0.45351   0.00000  Uiso   1.00
C114   C     0.51013   0.12382   0.04571   0.00000  Uiso   1.00
H115   H     0.51853   0.24020   0.03489   0.00000  Uiso   1.00
H116   H     0.47101   0.10422   0.46863   0.00000  Uiso   1.00
H117   H     0.53886   0.23211   0.47082   0.00000  Uiso   1.00
H118   H     0.51034   0.09139   0.02668   0.00000  Uiso   1.00
C119   C     0.52051   0.20642   0.09529   0.00000  Uiso   1.00
C120   C     0.48085   0.13291   0.40658   0.00000  Uiso   1.00
C121   C     0.51336   0.20894   0.40902   0.00000  Uiso   1.00
C122   C     0.50995   0.12227   0.09122   0.00000  Uiso   1.00
C123   C     0.51192   0.16466   0.11727   0.00000  Uiso   1.00
C124   C     0.49684   0.17045   0.38387   0.00000  Uiso   1.00
C125   C     0.51113   0.16587   0.02446   0.00000  Uiso   1.00
C126   C     0.50777   0.16650   0.47589   0.00000  Uiso   1.00
C127   C     0.62477   0.16563   0.24245   0.00000  Uiso   1.00
C128   C     0.37619   0.16671   0.26213   0.00000  Uiso   1.00
N129   N     0.43849   0.04636   0.20097   0.00000  Uiso   1.00
O130   O     0.44562   0.06751   0.16545   0.00000  Uiso   1.00
O131   O     0.40077   0.03432   0.20698   0.00000  Uiso   1.00
N132   N     0.56555   0.28858   0.29234   0.00000  Uiso   1.00
O133   O     0.56392   0.25683   0.32115   0.00000  Uiso   1.00
O134   O     0.60115   0.30589   0.28461   0.00000  Uiso   1.00
N135   N     0.54890   0.04991   0.31168   0.00000  Uiso   1.00
O136   O     0.58569   0.06522   0.30640   0.00000  Uiso   1.00
O137   O     0.53657   0.04617   0.35125   0.00000  Uiso   1.00
N138   N     0.44399   0.28287   0.19505   0.00000  Uiso   1.00
O139   O     0.40771   0.27332   0.20806   0.00000  Uiso   1.00
O140   O     0.44840   0.28562   0.15326   0.00000  Uiso   1.00
C141   C     0.54204   0.24774   0.11548   0.00000  Uiso   1.00
O142   O     0.52715   0.27164   0.14446   0.00000  Uiso   1.00
O143   O     0.57906   0.26133   0.09817   0.00000  Uiso   1.00
H144   H     0.59052   0.29090   0.11280   0.00000  Uiso   1.00
C145   C     0.45201   0.09933   0.38529   0.00000  Uiso   1.00
O146   O     0.42577   0.11330   0.35949   0.00000  Uiso   1.00
O147   O     0.45272   0.05274   0.39688   0.00000  Uiso   1.00
H148   H     0.43060   0.03366   0.38059   0.00000  Uiso   1.00
C149   C     0.51539   0.25686   0.39304   0.00000  Uiso   1.00
O150   O     0.54400   0.28225   0.40492   0.00000  Uiso   1.00
O151   O     0.48274   0.27450   0.36769   0.00000  Uiso   1.00
H152   H     0.48728   0.30777   0.35930   0.00000  Uiso   1.00
C153   C     0.51037   0.07469   0.10827   0.00000  Uiso   1.00
O154   O     0.53393   0.06443   0.13830   0.00000  Uiso   1.00
O155   O     0.48586   0.04027   0.08725   0.00000  Uiso   1.00
H156   H     0.48991   0.00868   0.10045   0.00000  Uiso   1.00
C157   C     0.36795   0.08631   0.29186   0.00000  Uiso   1.00
O158   O     0.40065   0.06617   0.28758   0.00000  Uiso   1.00
O159   O     0.34198   0.07287   0.32444   0.00000  Uiso   1.00
H160   H     0.35373   0.04633   0.34200   0.00000  Uiso   1.00
C161   C     0.63308   0.24500   0.21151   0.00000  Uiso   1.00
O162   O     0.60116   0.24056   0.18972   0.00000  Uiso   1.00
O163   O     0.65827   0.28281   0.20410   0.00000  Uiso   1.00
H164   H     0.64633   0.30378   0.18087   0.00000  Uiso   1.00
C165   C     0.63069   0.07913   0.22663   0.00000  Uiso   1.00
O166   O     0.64167   0.04159   0.24059   0.00000  Uiso   1.00
O167   O     0.60560   0.08028   0.18879   0.00000  Uiso   1.00
H168   H     0.59990   0.04784   0.17610   0.00000  Uiso   1.00
C169   C     0.36872   0.25016   0.28720   0.00000  Uiso   1.00
O170   O     0.35109   0.28765   0.28515   0.00000  Uiso   1.00
O171   O     0.40122   0.24524   0.31785   0.00000  Uiso   1.00
H172   H     0.40734   0.27523   0.33516   0.00000  Uiso   1.00
O173   O     0.77321   0.20625   0.24999   0.00000  Uiso   1.00
O174   O     0.89345   0.12709   0.25000   0.00000  Uiso   1.00
O175   O     0.89345   0.20625   0.25000   0.00000  Uiso   1.00
O176   O     0.77321   0.12709   0.24999   0.00000  Uiso   1.00
N177   N     0.83333   0.28402   0.25000   0.00000  Uiso   1.00
N178   N     0.83333   0.04931   0.25000   0.00000  Uiso   1.00
C179   C     0.75443   0.16680   0.25544   0.00000  Uiso   1.00
C180   C     0.91264   0.16634   0.24611   0.00000  Uiso   1.00
O181   O     0.83333   0.20626   0.18573   0.00000  Uiso   1.00
O182   O     0.83334   0.12707   0.31427   0.00000  Uiso   1.00
O183   O     0.83334   0.20626   0.31427   0.00000  Uiso   1.00
O184   O     0.83333   0.12707   0.18573   0.00000  Uiso   1.00
C185   C     0.83763   0.16596   0.16529   0.00000  Uiso   1.00
C186   C     0.83184   0.16775   0.33511   0.00000  Uiso   1.00
Cu187  Cu    0.83333   0.21355   0.25000   0.00000  Uiso   1.00
Cu188  Cu    0.83333   0.11978   0.25000   0.00000  Uiso   1.00
C189   C     0.80485   0.02383   0.22474   0.00000  Uiso   1.00
C190   C     0.86246   0.30978   0.27406   0.00000  Uiso   1.00
C191   C     0.86019   0.02573   0.27660   0.00000  Uiso   1.00
C192   C     0.80522   0.30768   0.22455   0.00000  Uiso   1.00
C193   C     0.68763   0.12444   0.26283   0.00000  Uiso   1.00
C194   C     0.98025   0.20780   0.24187   0.00000  Uiso   1.00
C195   C     0.97998   0.12343   0.24726   0.00000  Uiso   1.00
C196   C     0.68729   0.20884   0.26004   0.00000  Uiso   1.00
C197   C     0.84977   0.20688   0.04988   0.00000  Uiso   1.00
C198   C     0.81946   0.13152   0.45194   0.00000  Uiso   1.00
C199   C     0.85573   0.20425   0.45351   0.00000  Uiso   1.00
C200   C     0.84346   0.12382   0.04571   0.00000  Uiso   1.00
H201   H     0.85186   0.24020   0.03489   0.00000  Uiso   1.00
H202   H     0.80434   0.10422   0.46863   0.00000  Uiso   1.00
H203   H     0.87219   0.23211   0.47082   0.00000  Uiso   1.00
H204   H     0.84368   0.09139   0.02668   0.00000  Uiso   1.00
C205   C     0.85384   0.20642   0.09529   0.00000  Uiso   1.00
C206   C     0.81418   0.13291   0.40658   0.00000  Uiso   1.00
C207   C     0.84670   0.20894   0.40902   0.00000  Uiso   1.00
C208   C     0.84328   0.12227   0.09122   0.00000  Uiso   1.00
C209   C     0.84525   0.16466   0.11727   0.00000  Uiso   1.00
C210   C     0.83017   0.17045   0.38387   0.00000  Uiso   1.00
C211   C     0.84447   0.16587   0.02446   0.00000  Uiso   1.00
C212   C     0.84110   0.16650   0.47589   0.00000  Uiso   1.00
C213   C     0.95811   0.16563   0.24245   0.00000  Uiso   1.00
C214   C     0.70952   0.16671   0.26213   0.00000  Uiso   1.00
N215   N     0.77182   0.04636   0.20097   0.00000  Uiso   1.00
O216   O     0.77895   0.06751   0.16545   0.00000  Uiso   1.00
O217   O     0.73410   0.03432   0.20698   0.00000  Uiso   1.00
N218   N     0.89888   0.28858   0.29234   0.00000  Uiso   1.00
O219   O     0.89725   0.25683   0.32115   0.00000  Uiso   1.00
O220   O     0.93448   0.30589   0.28461   0.00000  Uiso   1.00
N221   N     0.88223   0.04991   0.31168   0.00000  Uiso   1.00
O222   O     0.91902   0.06522   0.30640   0.00000  Uiso   1.00
O223   O     0.86990   0.04617   0.35125   0.00000  Uiso   1.00
N224   N     0.77732   0.28287   0.19505   0.00000  Uiso   1.00
O225   O     0.74105   0.27332   0.20806   0.00000  Uiso   1.00
O226   O     0.78173   0.28562   0.15326   0.00000  Uiso   1.00
C227   C     0.87537   0.24774   0.11548   0.00000  Uiso   1.00
O228   O     0.86048   0.27164   0.14446   0.00000  Uiso   1.00
O229   O     0.91240   0.26133   0.09817   0.00000  Uiso   1.00
H230   H     0.92385   0.29090   0.11280   0.00000  Uiso   1.00
C231   C     0.78534   0.09933   0.38529   0.00000  Uiso   1.00
O232   O     0.75910   0.11330   0.35949   0.00000  Uiso   1.00
O233   O     0.78605   0.05274   0.39688   0.00000  Uiso   1.00
H234   H     0.76393   0.03366   0.38059   0.00000  Uiso   1.00
C235   C     0.84873   0.25686   0.39304   0.00000  Uiso   1.00
O236   O     0.87733   0.28225   0.40492   0.00000  Uiso   1.00
O237   O     0.81608   0.27450   0.36769   0.00000  Uiso   1.00
H238   H     0.82061   0.30777   0.35930   0.00000  Uiso   1.00
C239   C     0.84371   0.07469   0.10827   0.00000  Uiso   1.00
O240   O     0.86726   0.06443   0.13830   0.00000  Uiso   1.00
O241   O     0.81919   0.04027   0.08725   0.00000  Uiso   1.00
H242   H     0.82325   0.00868   0.10045   0.00000  Uiso   1.00
C243   C     0.70129   0.08631   0.29186   0.00000  Uiso   1.00
O244   O     0.73398   0.06617   0.28758   0.00000  Uiso   1.00
O245   O     0.67532   0.07287   0.32444   0.00000  Uiso   1.00
H246   H     0.68707   0.04633   0.34200   0.00000  Uiso   1.00
C247   C     0.96641   0.24500   0.21151   0.00000  Uiso   1.00
O248   O     0.93450   0.24056   0.18972   0.00000  Uiso   1.00
O249   O     0.99161   0.28281   0.20410   0.00000  Uiso   1.00
H250   H     0.97967   0.30378   0.18087   0.00000  Uiso   1.00
C251   C     0.96403   0.07913   0.22663   0.00000  Uiso   1.00
O252   O     0.97500   0.04159   0.24059   0.00000  Uiso   1.00
O253   O     0.93894   0.08028   0.18879   0.00000  Uiso   1.00
H254   H     0.93323   0.04784   0.17610   0.00000  Uiso   1.00
C255   C     0.70205   0.25016   0.28720   0.00000  Uiso   1.00
O256   O     0.68442   0.28765   0.28515   0.00000  Uiso   1.00
O257   O     0.73456   0.24524   0.31785   0.00000  Uiso   1.00
H258   H     0.74067   0.27523   0.33516   0.00000  Uiso   1.00
O259   O     0.10655   0.53958   0.24999   0.00000  Uiso   1.00
O260   O     0.22679   0.46042   0.25000   0.00000  Uiso   1.00
O261   O     0.22679   0.53958   0.25000   0.00000  Uiso   1.00
O262   O     0.10655   0.46042   0.24999   0.00000  Uiso   1.00
N263   N     0.16667   0.61736   0.25000   0.00000  Uiso   1.00
N264   N     0.16667   0.38264   0.25000   0.00000  Uiso   1.00
C265   C     0.08776   0.50013   0.25544   0.00000  Uiso   1.00
C266   C     0.24598   0.49967   0.24611   0.00000  Uiso   1.00
O267   O     0.16666   0.53959   0.18573   0.00000  Uiso   1.00
O268   O     0.16667   0.46041   0.31427   0.00000  Uiso   1.00
O269   O     0.16667   0.53959   0.31427   0.00000  Uiso   1.00
O270   O     0.16666   0.46041   0.18573   0.00000  Uiso   1.00
C271   C     0.17097   0.49929   0.16529   0.00000  Uiso   1.00
C272   C     0.16518   0.50108   0.33511   0.00000  Uiso   1.00
Cu273  Cu    0.16667   0.54689   0.25000   0.00000  Uiso   1.00
Cu274  Cu    0.16667   0.45311   0.25000   0.00000  Uiso   1.00
C275   C     0.13818   0.35716   0.22474   0.00000  Uiso   1.00
C276   C     0.19579   0.64312   0.27406   0.00000  Uiso   1.00
C277   C     0.19353   0.35906   0.27660   0.00000  Uiso   1.00
C278   C     0.13855   0.64102   0.22455   0.00000  Uiso   1.00
C279   C     0.02096   0.45778   0.26283   0.00000  Uiso   1.00
C280   C     0.31358   0.54113   0.24187   0.00000  Uiso   1.00
C281   C     0.31332   0.45676   0.24726   0.00000  Uiso   1.00
C282   C     0.02062   0.54217   0.26004   0.00000  Uiso   1.00
C283   C     0.18310   0.54022   0.04988   0.00000  Uiso   1.00
C284   C     0.15279   0.46486   0.45194   0.00000  Uiso   1.00
C285   C     0.18907   0.53759   0.45351   0.00000  Uiso   1.00
C286   C     0.17679   0.45715   0.04571   0.00000  Uiso   1.00
H287   H     0.18519   0.57353   0.03489   0.00000  Uiso   1.00
H288   H     0.13768   0.43755   0.46863   0.00000  Uiso   1.00
H289   H     0.20553   0.56545   0.47082   0.00000  Uiso   1.00
H290   H     0.17701   0.42473   0.02668   0.00000  Uiso   1.00
C291   C     0.18717   0.53976   0.09529   0.00000  Uiso   1.00
C292   C     0.14752   0.46624   0.40658   0.00000  Uiso   1.00
C293   C     0.18003   0.54228   0.40902   0.00000  Uiso   1.00
C294   C     0.17661   0.45560   0.09122   0.00000  Uiso   1.00
C295   C     0.17859   0.49800   0.11727   0.00000  Uiso   1.00
C296   C     0.16351   0.50378   0.38387   0.00000  Uiso   1.00
C297   C     0.17780   0.49921   0.02446   0.00000  Uiso   1.00
C298   C     0.17443   0.49984   0.47589   0.00000  Uiso   1.00
C299   C     0.29144   0.49896   0.24245   0.00000  Uiso   1.00
C300   C     0.04285   0.50004   0.26213   0.00000  Uiso   1.00
N301   N     0.10516   0.37969   0.20097   0.00000  Uiso   1.00
O302   O     0.11229   0.40084   0.16545   0.00000  Uiso   1.00
O303   O     0.06744   0.36765   0.20698   0.00000  Uiso   1.00
N304   N     0.23222   0.62191   0.29234   0.00000  Uiso   1.00
O305   O     0.23059   0.59017   0.32115   0.00000  Uiso   1.00
O306   O     0.26781   0.63922   0.28461   0.00000  Uiso   1.00
N307   N     0.21556   0.38325   0.31168   0.00000  Uiso   1.00
O308   O     0.25236   0.39856   0.30640   0.00000  Uiso   1.00
O309   O     0.20323   0.37950   0.35125   0.00000  Uiso   1.00
N310   N     0.11065   0.61620   0.19505   0.00000  Uiso   1.00
O311   O     0.07438   0.60665   0.20806   0.00000  Uiso   1.00
O312   O     0.11506   0.61896   0.15326   0.00000  Uiso   1.00
C313   C     0.20871   0.58108   0.11548   0.00000  Uiso   1.00
O314   O     0.19382   0.60497   0.14446   0.00000  Uiso   1.00
O315   O     0.24573   0.59466   0.09817   0.00000  Uiso   1.00
H316   H     0.25719   0.62423   0.11280   0.00000  Uiso   1.00
C317   C     0.11867   0.43266   0.38529   0.00000  Uiso   1.00
O318   O     0.09243   0.44664   0.35949   0.00000  Uiso   1.00
O319   O     0.11939   0.38608   0.39688   0.00000  Uiso   1.00
H320   H     0.09727   0.36700   0.38059   0.00000  Uiso   1.00
C321   C     0.18206   0.59019   0.39304   0.00000  Uiso   1.00
O322   O     0.21067   0.61558   0.40492   0.00000  Uiso   1.00
O323   O     0.14941   0.60783   0.36769   0.00000  Uiso   1.00
H324   H     0.15394   0.64110   0.35930   0.00000  Uiso   1.00
C325   C     0.17704   0.40802   0.10827   0.00000  Uiso   1.00
O326   O     0.20059   0.39777   0.13830   0.00000  Uiso   1.00
O327   O     0.15252   0.37360   0.08725   0.00000  Uiso   1.00
H328   H     0.15658   0.34202   0.10045   0.00000  Uiso   1.00
C329   C     0.03462   0.41964   0.29186   0.00000  Uiso   1.00
O330   O     0.06732   0.39950   0.28758   0.00000  Uiso   1.00
O331   O     0.00865   0.40621   0.32444   0.00000  Uiso   1.00
H332   H     0.02040   0.37966   0.34200   0.00000  Uiso   1.00
C333   C     0.29975   0.57833   0.21151   0.00000  Uiso   1.00
O334   O     0.26783   0.57390   0.18972   0.00000  Uiso   1.00
O335   O     0.32494   0.61614   0.20410   0.00000  Uiso   1.00
H336   H     0.31300   0.63712   0.18087   0.00000  Uiso   1.00
C337   C     0.29736   0.41246   0.22663   0.00000  Uiso   1.00
O338   O     0.30833   0.37492   0.24059   0.00000  Uiso   1.00
O339   O     0.27227   0.41362   0.18879   0.00000  Uiso   1.00
H340   H     0.26657   0.38118   0.17610   0.00000  Uiso   1.00
C341   C     0.03538   0.58349   0.28720   0.00000  Uiso   1.00
O342   O     0.01776   0.62098   0.28515   0.00000  Uiso   1.00
O343   O     0.06789   0.57858   0.31785   0.00000  Uiso   1.00
H344   H     0.07401   0.60857   0.33516   0.00000  Uiso   1.00
O345   O     0.43988   0.53958   0.24999   0.00000  Uiso   1.00
O346   O     0.56012   0.46042   0.25000   0.00000  Uiso   1.00
O347   O     0.56012   0.53958   0.25000   0.00000  Uiso   1.00
O348   O     0.43988   0.46042   0.24999   0.00000  Uiso   1.00
N349   N     0.50000   0.61736   0.25000   0.00000  Uiso   1.00
N350   N     0.50000   0.38264   0.25000   0.00000  Uiso   1.00
C351   C     0.42109   0.50013   0.25544   0.00000  Uiso   1.00
C352   C     0.57931   0.49967   0.24611   0.00000  Uiso   1.00
O353   O     0.50000   0.53959   0.18573   0.00000  Uiso   1.00
O354   O     0.50000   0.46041   0.31427   0.00000  Uiso   1.00
O355   O     0.50000   0.53959   0.31427   0.00000  Uiso   1.00
O356   O     0.50000   0.46041   0.18573   0.00000  Uiso   1.00
C357   C     0.50430   0.49929   0.16529   0.00000  Uiso   1.00
C358   C     0.49851   0.50108   0.33511   0.00000  Uiso   1.00
Cu359  Cu    0.50000   0.54689   0.25000   0.00000  Uiso   1.00
Cu360  Cu    0.50000   0.45311   0.25000   0.00000  Uiso   1.00
C361   C     0.47151   0.35716   0.22474   0.00000  Uiso   1.00
C362   C     0.52912   0.64312   0.27406   0.00000  Uiso   1.00
C363   C     0.52686   0.35906   0.27660   0.00000  Uiso   1.00
C364   C     0.47189   0.64102   0.22455   0.00000  Uiso   1.00
C365   C     0.35430   0.45778   0.26283   0.00000  Uiso   1.00
C366   C     0.64691   0.54113   0.24187   0.00000  Uiso   1.00
C367   C     0.64665   0.45676   0.24726   0.00000  Uiso   1.00
C368   C     0.35396   0.54217   0.26004   0.00000  Uiso   1.00
C369   C     0.51644   0.54022   0.04988   0.00000  Uiso   1.00
C370   C     0.48612   0.46486   0.45194   0.00000  Uiso   1.00
C371   C     0.52240   0.53759   0.45351   0.00000  Uiso   1.00
C372   C     0.51013   0.45715   0.04571   0.00000  Uiso   1.00
H373   H     0.51853   0.57353   0.03489   0.00000  Uiso   1.00
H374   H     0.47101   0.43755   0.46863   0.00000  Uiso   1.00
H375   H     0.53886   0.56545   0.47082   0.00000  Uiso   1.00
H376   H     0.51034   0.42473   0.02668   0.00000  Uiso   1.00
C377   C     0.52051   0.53976   0.09529   0.00000  Uiso   1.00
C378   C     0.48085   0.46624   0.40658   0.00000  Uiso   1.00
C379   C     0.51336   0.54228   0.40902   0.00000  Uiso   1.00
C380   C     0.50995   0.45560   0.09122   0.00000  Uiso   1.00
C381   C     0.51192   0.49800   0.11727   0.00000  Uiso   1.00
C382   C     0.49684   0.50378   0.38387   0.00000  Uiso   1.00
C383   C     0.51113   0.49921   0.02446   0.00000  Uiso   1.00
C384   C     0.50777   0.49984   0.47589   0.00000  Uiso   1.00
C385   C     0.62477   0.49896   0.24245   0.00000  Uiso   1.00
C386   C     0.37619   0.50004   0.26213   0.00000  Uiso   1.00
N387   N     0.43849   0.37969   0.20097   0.00000  Uiso   1.00
O388   O     0.44562   0.40084   0.16545   0.00000  Uiso   1.00
O389   O     0.40077   0.36765   0.20698   0.00000  Uiso   1.00
N390   N     0.56555   0.62191   0.29234   0.00000  Uiso   1.00
O391   O     0.56392   0.59017   0.32115   0.00000  Uiso   1.00
O392   O     0.60115   0.63922   0.28461   0.00000  Uiso   1.00
N393   N     0.54890   0.38325   0.31168   0.00000  Uiso   1.00
O394   O     0.58569   0.39856   0.30640   0.00000  Uiso   1.00
O395   O     0.53657   0.37950   0.35125   0.00000  Uiso   1.00
N396   N     0.44399   0.61620   0.19505   0.00000  Uiso   1.00
O397   O     0.40771   0.60665   0.20806   0.00000  Uiso   1.00
O398   O     0.44840   0.61896   0.15326   0.00000  Uiso   1.00
C399   C     0.54204   0.58108   0.11548   0.00000  Uiso   1.00
O400   O     0.52715   0.60497   0.14446   0.00000  Uiso   1.00
O401   O     0.57906   0.59466   0.09817   0.00000  Uiso   1.00
H402   H     0.59052   0.62423   0.11280   0.00000  Uiso   1.00
C403   C     0.45201   0.43266   0.38529   0.00000  Uiso   1.00
O404   O     0.42577   0.44664   0.35949   0.00000  Uiso   1.00
O405   O     0.45272   0.38608   0.39688   0.00000  Uiso   1.00
H406   H     0.43060   0.36700   0.38059   0.00000  Uiso   1.00
C407   C     0.51539   0.59019   0.39304   0.00000  Uiso   1.00
O408   O     0.54400   0.61558   0.40492   0.00000  Uiso   1.00
O409   O     0.48274   0.60783   0.36769   0.00000  Uiso   1.00
H410   H     0.48728   0.64110   0.35930   0.00000  Uiso   1.00
C411   C     0.51037   0.40802   0.10827   0.00000  Uiso   1.00
O412   O     0.53393   0.39777   0.13830   0.00000  Uiso   1.00
O413   O     0.48586   0.37360   0.08725   0.00000  Uiso   1.00
H414   H     0.48991   0.34202   0.10045   0.00000  Uiso   1.00
C415   C     0.36795   0.41964   0.29186   0.00000  Uiso   1.00
O416   O     0.40065   0.39950   0.28758   0.00000  Uiso   1.00
O417   O     0.34198   0.40621   0.32444   0.00000  Uiso   1.00
H418   H     0.35373   0.37966   0.34200   0.00000  Uiso   1.00
C419   C     0.63308   0.57833   0.21151   0.00000  Uiso   1.00
O420   O     0.60116   0.57390   0.18972   0.00000  Uiso   1.00
O421   O     0.65827   0.61614   0.20410   0.00000  Uiso   1.00
H422   H     0.64633   0.63712   0.18087   0.00000  Uiso   1.00
C423   C     0.63069   0.41246   0.22663   0.00000  Uiso   1.00
O424   O     0.64167   0.37492   0.24059   0.00000  Uiso   1.00
O425   O     0.60560   0.41362   0.18879   0.00000  Uiso   1.00
H426   H     0.59990   0.38118   0.17610   0.00000  Uiso   1.00
C427   C     0.36872   0.58349   0.28720   0.00000  Uiso   1.00
O428   O     0.35109   0.62098   0.28515   0.00000  Uiso   1.00
O429   O     0.40122   0.57858   0.31785   0.00000  Uiso   1.00
H430   H     0.40734   0.60857   0.33516   0.00000  Uiso   1.00
O431   O     0.77321   0.53958   0.24999   0.00000  Uiso   1.00
O432   O     0.89345   0.46042   0.25000   0.00000  Uiso   1.00
O433   O     0.89345   0.53958   0.25000   0.00000  Uiso   1.00
O434   O     0.77321   0.46042   0.24999   0.00000  Uiso   1.00
N435   N     0.83333   0.61736   0.25000   0.00000  Uiso   1.00
N436   N     0.83333   0.38264   0.25000   0.00000  Uiso   1.00
C437   C     0.75443   0.50013   0.25544   0.00000  Uiso   1.00
C438   C     0.91264   0.49967   0.24611   0.00000  Uiso   1.00
O439   O     0.83333   0.53959   0.18573   0.00000  Uiso   1.00
O440   O     0.83334   0.46041   0.31427   0.00000  Uiso   1.00
O441   O     0.83334   0.53959   0.31427   0.00000  Uiso   1.00
O442   O     0.83333   0.46041   0.18573   0.00000  Uiso   1.00
C443   C     0.83763   0.49929   0.16529   0.00000  Uiso   1.00
C444   C     0.83184   0.50108   0.33511   0.00000  Uiso   1.00
Cu445  Cu    0.83333   0.54689   0.25000   0.00000  Uiso   1.00
Cu446  Cu    0.83333   0.45311   0.25000   0.00000  Uiso   1.00
C447   C     0.80485   0.35716   0.22474   0.00000  Uiso   1.00
C448   C     0.86246   0.64312   0.27406   0.00000  Uiso   1.00
C449   C     0.86019   0.35906   0.27660   0.00000  Uiso   1.00
C450   C     0.80522   0.64102   0.22455   0.00000  Uiso   1.00
C451   C     0.68763   0.45778   0.26283   0.00000  Uiso   1.00
C452   C     0.98025   0.54113   0.24187   0.00000  Uiso   1.00
C453   C     0.97998   0.45676   0.24726   0.00000  Uiso   1.00
C454   C     0.68729   0.54217   0.26004   0.00000  Uiso   1.00
C455   C     0.84977   0.54022   0.04988   0.00000  Uiso   1.00
C456   C     0.81946   0.46486   0.45194   0.00000  Uiso   1.00
C457   C     0.85573   0.53759   0.45351   0.00000  Uiso   1.00
C458   C     0.84346   0.45715   0.04571   0.00000  Uiso   1.00
H459   H     0.85186   0.57353   0.03489   0.00000  Uiso   1.00
H460   H     0.80434   0.43755   0.46863   0.00000  Uiso   1.00
H461   H     0.87219   0.56545   0.47082   0.00000  Uiso   1.00
H462   H     0.84368   0.42473   0.02668   0.00000  Uiso   1.00
C463   C     0.85384   0.53976   0.09529   0.00000  Uiso   1.00
C464   C     0.81418   0.46624   0.40658   0.00000  Uiso   1.00
C465   C     0.84670   0.54228   0.40902   0.00000  Uiso   1.00
C466   C     0.84328   0.45560   0.09122   0.00000  Uiso   1.00
C467   C     0.84525   0.49800   0.11727   0.00000  Uiso   1.00
C468   C     0.83017   0.50378   0.38387   0.00000  Uiso   1.00
C469   C     0.84447   0.49921   0.02446   0.00000  Uiso   1.00
C470   C     0.84110   0.49984   0.47589   0.00000  Uiso   1.00
C471   C     0.95811   0.49896   0.24245   0.00000  Uiso   1.00
C472   C     0.70952   0.50004   0.26213   0.00000  Uiso   1.00
N473   N     0.77182   0.37969   0.20097   0.00000  Uiso   1.00
O474   O     0.77895   0.40084   0.16545   0.00000  Uiso   1.00
O475   O     0.73410   0.36765   0.20698   0.00000  Uiso   1.00
N476   N     0.89888   0.62191   0.29234   0.00000  Uiso   1.00
O477   O     0.89725   0.59017   0.32115   0.00000  Uiso   1.00
O478   O     0.93448   0.63922   0.28461   0.00000  Uiso   1.00
N479   N     0.88223   0.38325   0.31168   0.00000  Uiso   1.00
O480   O     0.91902   0.39856   0.30640   0.00000  Uiso   1.00
O481   O     0.86990   0.37950   0.35125   0.00000  Uiso   1.00
N482   N     0.77732   0.61620   0.19505   0.00000  Uiso   1.00
O483   O     0.74105   0.60665   0.20806   0.00000  Uiso   1.00
O484   O     0.78173   0.61896   0.15326   0.00000  Uiso   1.00
C485   C     0.87537   0.58108   0.11548   0.00000  Uiso   1.00
O486   O     0.86048   0.60497   0.14446   0.00000  Uiso   1.00
O487   O     0.91240   0.59466   0.09817   0.00000  Uiso   1.00
H488   H     0.92385   0.62423   0.11280   0.00000  Uiso   1.00
C489   C     0.78534   0.43266   0.38529   0.00000  Uiso   1.00
O490   O     0.75910   0.44664   0.35949   0.00000  Uiso   1.00
O491   O     0.78605   0.38608   0.39688   0.00000  Uiso   1.00
H492   H     0.76393   0.36700   0.38059   0.00000  Uiso   1.00
C493   C     0.84873   0.59019   0.39304   0.00000  Uiso   1.00
O494   O     0.87733   0.61558   0.40492   0.00000  Uiso   1.00
O495   O     0.81608   0.60783   0.36769   0.00000  Uiso   1.00
H496   H     0.82061   0.64110   0.35930   0.00000  Uiso   1.00
C497   C     0.84371   0.40802   0.10827   0.00000  Uiso   1.00
O498   O     0.86726   0.39777   0.13830   0.00000  Uiso   1.00
O499   O     0.81919   0.37360   0.08725   0.00000  Uiso   1.00
H500   H     0.82325   0.34202   0.10045   0.00000  Uiso   1.00
C501   C     0.70129   0.41964   0.29186   0.00000  Uiso   1.00
O502   O     0.73398   0.39950   0.28758   0.00000  Uiso   1.00
O503   O     0.67532   0.40621   0.32444   0.00000  Uiso   1.00
H504   H     0.68707   0.37966   0.34200   0.00000  Uiso   1.00
C505   C     0.96641   0.57833   0.21151   0.00000  Uiso   1.00
O506   O     0.93450   0.57390   0.18972   0.00000  Uiso   1.00
O507   O     0.99161   0.61614   0.20410   0.00000  Uiso   1.00
H508   H     0.97967   0.63712   0.18087   0.00000  Uiso   1.00
C509   C     0.96403   0.41246   0.22663   0.00000  Uiso   1.00
O510   O     0.97500   0.37492   0.24059   0.00000  Uiso   1.00
O511   O     0.93894   0.41362   0.18879   0.00000  Uiso   1.00
H512   H     0.93323   0.38118   0.17610   0.00000  Uiso   1.00
C513   C     0.70205   0.58349   0.28720   0.00000  Uiso   1.00
O514   O     0.68442   0.62098   0.28515   0.00000  Uiso   1.00
O515   O     0.73456   0.57858   0.31785   0.00000  Uiso   1.00
H516   H     0.74067   0.60857   0.33516   0.00000  Uiso   1.00
O517   O     0.10655   0.87291   0.24999   0.00000  Uiso   1.00
O518   O     0.22679   0.79375   0.25000   0.00000  Uiso   1.00
O519   O     0.22679   0.87291   0.25000   0.00000  Uiso   1.00
O520   O     0.10655   0.79375   0.24999   0.00000  Uiso   1.00
N521   N     0.16667   0.95069   0.25000   0.00000  Uiso   1.00
N522   N     0.16667   0.71598   0.25000   0.00000  Uiso   1.00
C523   C     0.08776   0.83346   0.25544   0.00000  Uiso   1.00
C524   C     0.24598   0.83301   0.24611   0.00000  Uiso   1.00
O525   O     0.16666   0.87293   0.18573   0.00000  Uiso   1.00
O526   O     0.16667   0.79374   0.31427   0.00000  Uiso   1.00
O527   O     0.16667   0.87293   0.31427   0.00000  Uiso   1.00
O528   O     0.16666   0.79374   0.18573   0.00000  Uiso   1.00
C529   C     0.17097   0.83262   0.16529   0.00000  Uiso   1.00
C530   C     0.16518   0.83441   0.33511   0.00000  Uiso   1.00
Cu531  Cu    0.16667   0.88022   0.25000   0.00000  Uiso   1.00
Cu532  Cu    0.16667   0.78645   0.25000   0.00000  Uiso   1.00
C533   C     0.13818   0.69050   0.22474   0.00000  Uiso   1.00
C534   C     0.19579   0.97645   0.27406   0.00000  Uiso   1.00
C535   C     0.19353   0.69240   0.27660   0.00000  Uiso   1.00
C536   C     0.13855   0.97435   0.22455   0.00000  Uiso   1.00
C537   C     0.02096   0.79111   0.26283   0.00000  Uiso   1.00
C538   C     0.31358   0.87447   0.24187   0.00000  Uiso   1.00
C539   C     0.31332   0.79009   0.24726   0.00000  Uiso   1.00
C540   C     0.02062   0.87551   0.26004   0.00000  Uiso   1.00
C541   C     0.18310   0.87355   0.04988   0.00000  Uiso   1.00
C542   C     0.15279   0.79819   0.45194   0.00000  Uiso   1.00
C543   C     0.18907   0.87092   0.45351   0.00000  Uiso   1.00
C544   C     0.17679   0.79049   0.04571   0.00000  Uiso   1.00
H545   H     0.18519   0.90686   0.03489   0.00000  Uiso   1.00
H546   H     0.13768   0.77088   0.46863   0.00000  Uiso   1.00
H547   H     0.20553   0.89878   0.47082   0.00000  Uiso   1.00
H548   H     0.17701   0.75806   0.02668   0.00000  Uiso   1.00
C549   C     0.18717   0.87309   0.09529   0.00000  Uiso   1.00
C550   C     0.14752   0.79958   0.40658   0.00000  Uiso   1.00
C551   C     0.18003   0.87561   0.40902   0.00000  Uiso   1.00
C552   C     0.17661   0.78894   0.09122   0.00000  Uiso   1.00
C553   C     0.17859   0.83133   0.11727   0.00000  Uiso   1.00
C554   C     0.16351   0.83712   0.38387   0.00000  Uiso   1.00
C555   C     0.17780   0.83254   0.02446   0.00000  Uiso   1.00
C556   C     0.17443   0.83317   0.47589   0.00000  Uiso   1.00
C557   C     0.29144   0.83230   0.24245   0.00000  Uiso   1.00
C558   C     0.04285   0.83338   0.26213   0.00000  Uiso   1.00
N559   N     0.10516   0.71302   0.20097   0.00000  Uiso   1.00
O560   O     0.11229   0.73417   0.16545   0.00000  Uiso   1.00
O561   O     0.06744   0.70099   0.20698   0.00000  Uiso   1.00
N562   N     0.23222   0.95525   0.29234   0.00000  Uiso   1.00
O563   O     0.23059   0.92350   0.32115   0.00000  Uiso   1.00
O564   O     0.26781   0.97256   0.28461   0.00000  Uiso   1.00
N565   N     0.21556   0.71658   0.31168   0.00000  Uiso   1.00
O566   O     0.25236   0.73189   0.30640   0.00000  Uiso   1.00
O567   O     0.20323   0.71283   0.35125   0.00000  Uiso   1.00
N568   N     0.11065   0.94954   0.19505   0.00000  Uiso   1.00
O569   O     0.07438   0.93998   0.20806   0.00000  Uiso   1.00
O570   O     0.11506   0.95229   0.15326   0.00000  Uiso   1.00
C571   C     0.20871   0.91441   0.11548   0.00000  Uiso   1.00
O572   O     0.19382   0.93831   0.14446   0.00000  Uiso   1.00
O573   O     0.24573   0.92799   0.09817   0.00000  Uiso   1.00
H574   H     0.25719   0.95756   0.11280   0.00000  Uiso   1.00
C575   C     0.11867   0.76600   0.38529   0.00000  Uiso   1.00
O576   O     0.09243   0.77997   0.35949   0.00000  Uiso   1.00
O577   O     0.11939   0.71941   0.39688   0.00000  Uiso   1.00
H578   H     0.09727   0.70033   0.38059   0.00000  Uiso   1.00
C579   C     0.18206   0.92353   0.39304   0.00000  Uiso   1.00
O580   O     0.21067   0.94892   0.40492   0.00000  Uiso   1.00
O581   O     0.14941   0.94117   0.36769   0.00000  Uiso   1.00
H582   H     0.15394   0.97443   0.35930   0.00000  Uiso   1.00
C583   C     0.17704   0.74135   0.10827   0.00000  Uiso   1.00
O584   O     0.20059   0.73110   0.13830   0.00000  Uiso   1.00
O585   O     0.15252   0.70694   0.08725   0.00000  Uiso   1.00
H586   H     0.15658   0.67535   0.10045   0.00000  Uiso   1.00
C587   C     0.03462   0.75298   0.29186   0.00000  Uiso   1.00
O588   O     0.06732   0.73283   0.28758   0.00000  Uiso   1.00
O589   O     0.00865   0.73954   0.32444   0.00000  Uiso   1.00
H590   H     0.02040   0.71299   0.34200   0.00000  Uiso   1.00
C591   C     0.29975   0.91167   0.21151   0.00000  Uiso   1.00
O592   O     0.26783   0.90723   0.18972   0.00000  Uiso   1.00
O593   O     0.32494   0.94947   0.20410   0.00000  Uiso   1.00
H594   H     0.31300   0.97045   0.18087   0.00000  Uiso   1.00
C595   C     0.29736   0.74580   0.22663   0.00000  Uiso   1.00
O596   O     0.30833   0.70826   0.24059   0.00000  Uiso   1.00
O597   O     0.27227   0.74695   0.18879   0.00000  Uiso   1.00
H598   H     0.26657   0.71451   0.17610   0.00000  Uiso   1.00
C599   C     0.03538   0.91682   0.28720   0.00000  Uiso   1.00
O600   O     0.01776   0.95431   0.28515   0.00000  Uiso   1.00
O601   O     0.06789   0.91191   0.31785   0.00000  Uiso   1.00
H602   H     0.07401   0.94190   0.33516   0.00000  Uiso   1.00
O603   O     0.43988   0.87291   0.24999   0.00000  Uiso   1.00
O604   O     0.56012   0.79375   0.25000   0.00000  Uiso   1.00
O605   O     0.56012   0.87291   0.25000   0.00000  Uiso   1.00
O606   O     0.43988   0.79375   0.24999   0.00000  Uiso   1.00
N607   N     0.50000   0.95069   0.25000   0.00000  Uiso   1.00
N608   N     0.50000   0.71598   0.25000   0.00000  Uiso   1.00
C609   C     0.42109   0.83346   0.25544   0.00000  Uiso   1.00
C610   C     0.57931   0.83301   0.24611   0.00000  Uiso   1.00
O611   O     0.50000   0.87293   0.18573   0.00000  Uiso   1.00
O612   O     0.50000   0.79374   0.31427   0.00000  Uiso   1.00
O613   O     0.50000   0.87293   0.31427   0.00000  Uiso   1.00
O614   O     0.50000   0.79374   0.18573   0.00000  Uiso   1.00
C615   C     0.50430   0.83262   0.16529   0.00000  Uiso   1.00
C616   C     0.49851   0.83441   0.33511   0.00000  Uiso   1.00
Cu617  Cu    0.50000   0.88022   0.25000   0.00000  Uiso   1.00
Cu618  Cu    0.50000   0.78645   0.25000   0.00000  Uiso   1.00
C619   C     0.47151   0.69050   0.22474   0.00000  Uiso   1.00
C620   C     0.52912   0.97645   0.27406   0.00000  Uiso   1.00
C621   C     0.52686   0.69240   0.27660   0.00000  Uiso   1.00
C622   C     0.47189   0.97435   0.22455   0.00000  Uiso   1.00
C623   C     0.35430   0.79111   0.26283   0.00000  Uiso   1.00
C624   C     0.64691   0.87447   0.24187   0.00000  Uiso   1.00
C625   C     0.64665   0.79009   0.24726   0.00000  Uiso   1.00
C626   C     0.35396   0.87551   0.26004   0.00000  Uiso   1.00
C627   C     0.51644   0.87355   0.04988   0.00000  Uiso   1.00
C628   C     0.48612   0.79819   0.45194   0.00000  Uiso   1.00
C629   C     0.52240   0.87092   0.45351   0.00000  Uiso   1.00
C630   C     0.51013   0.79049   0.04571   0.00000  Uiso   1.00
H631   H     0.51853   0.90686   0.03489   0.00000  Uiso   1.00
H632   H     0.47101   0.77088   0.46863   0.00000  Uiso   1.00
H633   H     0.53886   0.89878   0.47082   0.00000  Uiso   1.00
H634   H     0.51034   0.75806   0.02668   0.00000  Uiso   1.00
C635   C     0.52051   0.87309   0.09529   0.00000  Uiso   1.00
C636   C     0.48085   0.79958   0.40658   0.00000  Uiso   1.00
C637   C     0.51336   0.87561   0.40902   0.00000  Uiso   1.00
C638   C     0.50995   0.78894   0.09122   0.00000  Uiso   1.00
C639   C     0.51192   0.83133   0.11727   0.00000  Uiso   1.00
C640   C     0.49684   0.83712   0.38387   0.00000  Uiso   1.00
C641   C     0.51113   0.83254   0.02446   0.00000  Uiso   1.00
C642   C     0.50777   0.83317   0.47589   0.00000  Uiso   1.00
C643   C     0.62477   0.83230   0.24245   0.00000  Uiso   1.00
C644   C     0.37619   0.83338   0.26213   0.00000  Uiso   1.00
N645   N     0.43849   0.71302   0.20097   0.00000  Uiso   1.00
O646   O     0.44562   0.73417   0.16545   0.00000  Uiso   1.00
O647   O     0.40077   0.70099   0.20698   0.00000  Uiso   1.00
N648   N     0.56555   0.95525   0.29234   0.00000  Uiso   1.00
O649   O     0.56392   0.92350   0.32115   0.00000  Uiso   1.00
O650   O     0.60115   0.97256   0.28461   0.00000  Uiso   1.00
N651   N     0.54890   0.71658   0.31168   0.00000  Uiso   1.00
O652   O     0.58569   0.73189   0.30640   0.00000  Uiso   1.00
O653   O     0.53657   0.71283   0.35125   0.00000  Uiso   1.00
N654   N     0.44399   0.94954   0.19505   0.00000  Uiso   1.00
O655   O     0.40771   0.93998   0.20806   0.00000  Uiso   1.00
O656   O     0.44840   0.95229   0.15326   0.00000  Uiso   1.00
C657   C     0.54204   0.91441   0.11548   0.00000  Uiso   1.00
O658   O     0.52715   0.93831   0.14446   0.00000  Uiso   1.00
O659   O     0.57906   0.92799   0.09817   0.00000  Uiso   1.00
H660   H     0.59052   0.95756   0.11280   0.00000  Uiso   1.00
C661   C     0.45201   0.76600   0.38529   0.00000  Uiso   1.00
O662   O     0.42577   0.77997   0.35949   0.00000  Uiso   1.00
O663   O     0.45272   0.71941   0.39688   0.00000  Uiso   1.00
H664   H     0.43060   0.70033   0.38059   0.00000  Uiso   1.00
C665   C     0.51539   0.92353   0.39304   0.00000  Uiso   1.00
O666   O     0.54400   0.94892   0.40492   0.00000  Uiso   1.00
O667   O     0.48274   0.94117   0.36769   0.00000  Uiso   1.00
H668   H     0.48728   0.97443   0.35930   0.00000  Uiso   1.00
C669   C     0.51037   0.74135   0.10827   0.00000  Uiso   1.00
O670   O     0.53393   0.73110   0.13830   0.00000  Uiso   1.00
O671   O     0.48586   0.70694   0.08725   0.00000  Uiso   1.00
H672   H     0.48991   0.67535   0.10045   0.00000  Uiso   1.00
C673   C     0.36795   0.75298   0.29186   0.00000  Uiso   1.00
O674   O     0.40065   0.73283   0.28758   0.00000  Uiso   1.00
O675   O     0.34198   0.73954   0.32444   0.00000  Uiso   1.00
H676   H     0.35373   0.71299   0.34200   0.00000  Uiso   1.00
C677   C     0.63308   0.91167   0.21151   0.00000  Uiso   1.00
O678   O     0.60116   0.90723   0.18972   0.00000  Uiso   1.00
O679   O     0.65827   0.94947   0.20410   0.00000  Uiso   1.00
H680   H     0.64633   0.97045   0.18087   0.00000  Uiso   1.00
C681   C     0.63069   0.74580   0.22663   0.00000  Uiso   1.00
O682   O     0.64167   0.70826   0.24059   0.00000  Uiso   1.00
O683   O     0.60560   0.74695   0.18879   0.00000  Uiso   1.00
H684   H     0.59990   0.71451   0.17610   0.00000  Uiso   1.00
C685   C     0.36872   0.91682   0.28720   0.00000  Uiso   1.00
O686   O     0.35109   0.95431   0.28515   0.00000  Uiso   1.00
O687   O     0.40122   0.91191   0.31785   0.00000  Uiso   1.00
H688   H     0.40734   0.94190   0.33516   0.00000  Uiso   1.00
O689   O     0.77321   0.87291   0.24999   0.00000  Uiso   1.00
O690   O     0.89345   0.79375   0.25000   0.00000  Uiso   1.00
O691   O     0.89345   0.87291   0.25000   0.00000  Uiso   1.00
O692   O     0.77321   0.79375   0.24999   0.00000  Uiso   1.00
N693   N     0.83333   0.95069   0.25000   0.00000  Uiso   1.00
N694   N     0.83333   0.71598   0.25000   0.00000  Uiso   1.00
C695   C     0.75443   0.83346   0.25544   0.00000  Uiso   1.00
C696   C     0.91264   0.83301   0.24611   0.00000  Uiso   1.00
O697   O     0.83333   0.87293   0.18573   0.00000  Uiso   1.00
O698   O     0.83334   0.79374   0.31427   0.00000  Uiso   1.00
O699   O     0.83334   0.87293   0.31427   0.00000  Uiso   1.00
O700   O     0.83333   0.79374   0.18573   0.00000  Uiso   1.00
C701   C     0.83763   0.83262   0.16529   0.00000  Uiso   1.00
C702   C     0.83184   0.83441   0.33511   0.00000  Uiso   1.00
Cu703  Cu    0.83333   0.88022   0.25000   0.00000  Uiso   1.00
Cu704  Cu    0.83333   0.78645   0.25000   0.00000  Uiso   1.00
C705   C     0.80485   0.69050   0.22474   0.00000  Uiso   1.00
C706   C     0.86246   0.97645   0.27406   0.00000  Uiso   1.00
C707   C     0.86019   0.69240   0.27660   0.00000  Uiso   1.00
C708   C     0.80522   0.97435   0.22455   0.00000  Uiso   1.00
C709   C     0.68763   0.79111   0.26283   0.00000  Uiso   1.00
C710   C     0.98025   0.87447   0.24187   0.00000  Uiso   1.00
C711   C     0.97998   0.79009   0.24726   0.00000  Uiso   1.00
C712   C     0.68729   0.87551   0.26004   0.00000  Uiso   1.00
C713   C     0.84977   0.87355   0.04988   0.00000  Uiso   1.00
C714   C     0.81946   0.79819   0.45194   0.00000  Uiso   1.00
C715   C     0.85573   0.87092   0.45351   0.00000  Uiso   1.00
C716   C     0.84346   0.79049   0.04571   0.00000  Uiso   1.00
H717   H     0.85186   0.90686   0.03489   0.00000  Uiso   1.00
H718   H     0.80434   0.77088   0.46863   0.00000  Uiso   1.00
H719   H     0.87219   0.89878   0.47082   0.00000  Uiso   1.00
H720   H     0.84368   0.75806   0.02668   0.00000  Uiso   1.00
C721   C     0.85384   0.87309   0.09529   0.00000  Uiso   1.00
C722   C     0.81418   0.79958   0.40658   0.00000  Uiso   1.00
C723   C     0.84670   0.87561   0.40902   0.00000  Uiso   1.00
C724   C     0.84328   0.78894   0.09122   0.00000  Uiso   1.00
C725   C     0.84525   0.83133   0.11727   0.00000  Uiso   1.00
C726   C     0.83017   0.83712   0.38387   0.00000  Uiso   1.00
C727   C     0.84447   0.83254   0.02446   0.00000  Uiso   1.00
C728   C     0.84110   0.83317   0.47589   0.00000  Uiso   1.00
C729   C     0.95811   0.83230   0.24245   0.00000  Uiso   1.00
C730   C     0.70952   0.83338   0.26213   0.00000  Uiso   1.00
N731   N     0.77182   0.71302   0.20097   0.00000  Uiso   1.00
O732   O     0.77895   0.73417   0.16545   0.00000  Uiso   1.00
O733   O     0.73410   0.70099   0.20698   0.00000  Uiso   1.00
N734   N     0.89888   0.95525   0.29234   0.00000  Uiso   1.00
O735   O     0.89725   0.92350   0.32115   0.00000  Uiso   1.00
O736   O     0.93448   0.97256   0.28461   0.00000  Uiso   1.00
N737   N     0.88223   0.71658   0.31168   0.00000  Uiso   1.00
O738   O     0.91902   0.73189   0.30640   0.00000  Uiso   1.00
O739   O     0.86990   0.71283   0.35125   0.00000  Uiso   1.00
N740   N     0.77732   0.94954   0.19505   0.00000  Uiso   1.00
O741   O     0.74105   0.93998   0.20806   0.00000  Uiso   1.00
O742   O     0.78173   0.95229   0.15326   0.00000  Uiso   1.00
C743   C     0.87537   0.91441   0.11548   0.00000  Uiso   1.00
O744   O     0.86048   0.93831   0.14446   0.00000  Uiso   1.00
O745   O     0.91240   0.92799   0.09817   0.00000  Uiso   1.00
H746   H     0.92385   0.95756   0.11280   0.00000  Uiso   1.00
C747   C     0.78534   0.76600   0.38529   0.00000  Uiso   1.00
O748   O     0.75910   0.77997   0.35949   0.00000  Uiso   1.00
O749   O     0.78605   0.71941   0.39688   0.00000  Uiso   1.00
H750   H     0.76393   0.70033   0.38059   0.00000  Uiso   1.00
C751   C     0.84873   0.92353   0.39304   0.00000  Uiso   1.00
O752   O     0.87733   0.94892   0.40492   0.00000  Uiso   1.00
O753   O     0.81608   0.94117   0.36769   0.00000  Uiso   1.00
H754   H     0.82061   0.97443   0.35930   0.00000  Uiso   1.00
C755   C     0.84371   0.74135   0.10827   0.00000  Uiso   1.00
O756   O     0.86726   0.73110   0.13830   0.00000  Uiso   1.00
O757   O     0.81919   0.70694   0.08725   0.00000  Uiso   1.00
H758   H     0.82325   0.67535   0.10045   0.00000  Uiso   1.00
C759   C     0.70129   0.75298   0.29186   0.00000  Uiso   1.00
O760   O     0.73398   0.73283   0.28758   0.00000  Uiso   1.00
O761   O     0.67532   0.73954   0.32444   0.00000  Uiso   1.00
H762   H     0.68707   0.71299   0.34200   0.00000  Uiso   1.00
C763   C     0.96641   0.91167   0.21151   0.00000  Uiso   1.00
O764   O     0.93450   0.90723   0.18972   0.00000  Uiso   1.00
O765   O     0.99161   0.94947   0.20410   0.00000  Uiso   1.00
H766   H     0.97967   0.97045   0.18087   0.00000  Uiso   1.00
C767   C     0.96403   0.74580   0.22663   0.00000  Uiso   1.00
O768   O     0.97500   0.70826   0.24059   0.00000  Uiso   1.00
O769   O     0.93894   0.74695   0.18879   0.00000  Uiso   1.00
H770   H     0.93323   0.71451   0.17610   0.00000  Uiso   1.00
C771   C     0.70205   0.91682   0.28720   0.00000  Uiso   1.00
O772   O     0.68442   0.95431   0.28515   0.00000  Uiso   1.00
O773   O     0.73456   0.91191   0.31785   0.00000  Uiso   1.00
H774   H     0.74067   0.94190   0.33516   0.00000  Uiso   1.00
O775   O     0.10655   0.20625   0.74999   0.00000  Uiso   1.00
O776   O     0.22679   0.12709   0.75000   0.00000  Uiso   1.00
O777   O     0.22679   0.20625   0.75000   0.00000  Uiso   1.00
O778   O     0.10655   0.12709   0.74999   0.00000  Uiso   1.00
N779   N     0.16667   0.28402   0.75000   0.00000  Uiso   1.00
N780   N     0.16667   0.04931   0.75000   0.00000  Uiso   1.00
C781   C     0.08776   0.16680   0.75544   0.00000  Uiso   1.00
C782   C     0.24598   0.16634   0.74611   0.00000  Uiso   1.00
O783   O     0.16666   0.20626   0.68573   0.00000  Uiso   1.00
O784   O     0.16667   0.12707   0.81427   0.00000  Uiso   1.00
O785   O     0.16667   0.20626   0.81427   0.00000  Uiso   1.00
O786   O     0.16666   0.12707   0.68573   0.00000  Uiso   1.00
C787   C     0.17097   0.16596   0.66529   0.00000  Uiso   1.00
C788   C     0.16518   0.16775   0.83511   0.00000  Uiso   1.00
Cu789  Cu    0.16667   0.21355   0.75000   0.00000  Uiso   1.00
Cu790  Cu    0.16667   0.11978   0.75000   0.00000  Uiso   1.00
C791   C     0.13818   0.02383   0.72474   0.00000  Uiso   1.00
C792   C     0.19579   0.30978   0.77406   0.00000  Uiso   1.00
C793   C     0.19353   0.02573   0.77660   0.00000  Uiso   1.00
C794   C     0.13855   0.30768   0.72455   0.00000  Uiso   1.00
C795   C     0.02096   0.12444   0.76283   0.00000  Uiso   1.00
C796   C     0.31358   0.20780   0.74187   0.00000  Uiso   1.00
C797   C     0.31332   0.12343   0.74726   0.00000  Uiso   1.00
C798   C     0.02062   0.20884   0.76004   0.00000  Uiso   1.00
C799   C     0.18310   0.20688   0.54988   0.00000  Uiso   1.00
C800   C     0.15279   0.13152   0.95194   0.00000  Uiso   1.00
C801   C     0.18907   0.20425   0.95351   0.00000  Uiso   1.00
C802   C     0.17679   0.12382   0.54571   0.00000  Uiso   1.00
H803   H     0.18519   0.24020   0.53489   0.00000  Uiso   1.00
H804   H     0.13768   0.10422   0.96863   0.00000  Uiso   1.00
H805   H     0.20553   0.23211   0.97082   0.00000  Uiso   1.00
H806   H     0.17701   0.09139   0.52668   0.00000  Uiso   1.00
C807   C     0.18717   0.20642   0.59529   0.00000  Uiso   1.00
C808   C     0.14752   0.13291   0.90658   0.00000  Uiso   1.00
C809   C     0.18003   0.20894   0.90902   0.00000  Uiso   1.00
C810   C     0.17661   0.12227   0.59122   0.00000  Uiso   1.00
C811   C     0.17859   0.16466   0.61727   0.00000  Uiso   1.00
C812   C     0.16351   0.17045   0.88387   0.00000  Uiso   1.00
C813   C     0.17780   0.16587   0.52446   0.00000  Uiso   1.00
C814   C     0.17443   0.16650   0.97589   0.00000  Uiso   1.00
C815   C     0.29144   0.16563   0.74245   0.00000  Uiso   1.00
C816   C     0.04285   0.16671   0.76213   0.00000  Uiso   1.00
N817   N     0.10516   0.04636   0.70097   0.00000  Uiso   1.00
O818   O     0.11229   0.06751   0.66545   0.00000  Uiso   1.00
O819   O     0.06744   0.03432   0.70698   0.00000  Uiso   1.00
N820   N     0.23222   0.28858   0.79234   0.00000  Uiso   1.00
O821   O     0.23059   0.25683   0.82115   0.00000  Uiso   1.00
O822   O     0.26781   0.30589   0.78461   0.00000  Uiso   1.00
N823   N     0.21556   0.04991   0.81168   0.00000  Uiso   1.00
O824   O     0.25236   0.06522   0.80640   0.00000  Uiso   1.00
O825   O     0.20323   0.04617   0.85125   0.00000  Uiso   1.00
N826   N     0.11065   0.28287   0.69505   0.00000  Uiso   1.00
O827   O     0.07438   0.27332   0.70806   0.00000  Uiso   1.00
O828   O     0.11506   0.28562   0.65326   0.00000  Uiso   1.00
C829   C     0.20871   0.24774   0.61548   0.00000  Uiso   1.00
O830   O     0.19382   0.27164   0.64446   0.00000  Uiso   1.00
O831   O     0.24573   0.26133   0.59817   0.00000  Uiso   1.00
H832   H     0.25719   0.29090   0.61280   0.00000  Uiso   1.00
C833   C     0.11867   0.09933   0.88529   0.00000  Uiso   1.00
O834   O     0.09243   0.11330   0.85949   0.00000  Uiso   1.00
O835   O     0.11939   0.05274   0.89688   0.00000  Uiso   1.00
H836   H     0.09727   0.03366   0.88059   0.00000  Uiso   1.00
C837   C     0.18206   0.25686   0.89304   0.00000  Uiso   1.00
O838   O     0.21067   0.28225   0.90492   0.00000  Uiso   1.00
O839   O     0.14941   0.27450   0.86769   0.00000  Uiso   1.00
H840   H     0.15394   0.30777   0.85930   0.00000  Uiso   1.00
C841   C     0.17704   0.07469   0.60827   0.00000  Uiso   1.00
O842   O     0.20059   0.06443   0.63830   0.00000  Uiso   1.00
O843   O     0.15252   0.04027   0.58725   0.00000  Uiso   1.00
H844   H     0.15658   0.00868   0.60045   0.00000  Uiso   1.00
C845   C     0.03462   0.08631   0.79186   0.00000  Uiso   1.00
O846   O     0.06732   0.06617   0.78758   0.00000  Uiso   1.00
O847   O     0.00865   0.07287   0.82444   0.00000  Uiso   1.00
H848   H     0.02040   0.04633   0.84200   0.00000  Uiso   1.00
C849   C     0.29975   0.24500   0.71151   0.00000  Uiso   1.00
O850   O     0.26783   0.24056   0.68972   0.00000  Uiso   1.00
O851   O     0.32494   0.28281   0.70410   0.00000  Uiso   1.00
H852   H     0.31300   0.30378   0.68087   0.00000  Uiso   1.00
C853   C     0.29736   0.07913   0.72663   0.00000  Uiso   1.00
O854   O     0.30833   0.04159   0.74059   0.00000  Uiso   1.00
O855   O     0.27227   0.08028   0.68879   0.00000  Uiso   1.00
H856   H     0.26657   0.04784   0.67610   0.00000  Uiso   1.00
C857   C     0.03538   0.25016   0.78720   0.00000  Uiso   1.00
O858   O     0.01776   0.28765   0.78515   0.00000  Uiso   1.00
O859   O     0.06789   0.24524   0.81785   0.00000  Uiso   1.00
H860   H     0.07401   0.27523   0.83516   0.00000  Uiso   1.00
O861   O     0.43988   0.20625   0.74999   0.00000  Uiso   1.00
O862   O     0.56012   0.12709   0.75000   0.00000  Uiso   1.00
O863   O     0.56012   0.20625   0.75000   0.00000  Uiso   1.00
O864   O     0.43988   0.12709   0.74999   0.00000  Uiso   1.00
N865   N     0.50000   0.28402   0.75000   0.00000  Uiso   1.00
N866   N     0.50000   0.04931   0.75000   0.00000  Uiso   1.00
C867   C     0.42109   0.16680   0.75544   0.00000  Uiso   1.00
C868   C     0.57931   0.16634   0.74611   0.00000  Uiso   1.00
O869   O     0.50000   0.20626   0.68573   0.00000  Uiso   1.00
O870   O     0.50000   0.12707   0.81427   0.00000  Uiso   1.00
O871   O     0.50000   0.20626   0.81427   0.00000  Uiso   1.00
O872   O     0.50000   0.12707   0.68573   0.00000  Uiso   1.00
C873   C     0.50430   0.16596   0.66529   0.00000  Uiso   1.00
C874   C     0.49851   0.16775   0.83511   0.00000  Uiso   1.00
Cu875  Cu    0.50000   0.21355   0.75000   0.00000  Uiso   1.00
Cu876  Cu    0.50000   0.11978   0.75000   0.00000  Uiso   1.00
C877   C     0.47151   0.02383   0.72474   0.00000  Uiso   1.00
C878   C     0.52912   0.30978   0.77406   0.00000  Uiso   1.00
C879   C     0.52686   0.02573   0.77660   0.00000  Uiso   1.00
C880   C     0.47189   0.30768   0.72455   0.00000  Uiso   1.00
C881   C     0.35430   0.12444   0.76283   0.00000  Uiso   1.00
C882   C     0.64691   0.20780   0.74187   0.00000  Uiso   1.00
C883   C     0.64665   0.12343   0.74726   0.00000  Uiso   1.00
C884   C     0.35396   0.20884   0.76004   0.00000  Uiso   1.00
C885   C     0.51644   0.20688   0.54988   0.00000  Uiso   1.00
C886   C     0.48612   0.13152   0.95194   0.00000  Uiso   1.00
C887   C     0.52240   0.20425   0.95351   0.00000  Uiso   1.00
C888   C     0.51013   0.12382   0.54571   0.00000  Uiso   1.00
H889   H     0.51853   0.24020   0.53489   0.00000  Uiso   1.00
H890   H     0.47101   0.10422   0.96863   0.00000  Uiso   1.00
H891   H     0.53886   0.23211   0.97082   0.00000  Uiso   1.00
H892   H     0.51034   0.09139   0.52668   0.00000  Uiso   1.00
C893   C     0.52051   0.20642   0.59529   0.00000  Uiso   1.00
C894   C     0.48085   0.13291   0.90658   0.00000  Uiso   1.00
C895   C     0.51336   0.20894   0.90902   0.00000  Uiso   1.00
C896   C     0.50995   0.12227   0.59122   0.00000  Uiso   1.00
C897   C     0.51192   0.16466   0.61727   0.00000  Uiso   1.00
C898   C     0.49684   0.17045   0.88387   0.00000  Uiso   1.00
C899   C     0.51113   0.16587   0.52446   0.00000  Uiso   1.00
C900   C     0.50777   0.16650   0.97589   0.00000  Uiso   1.00
C901   C     0.62477   0.16563   0.74245   0.00000  Uiso   1.00
C902   C     0.37619   0.16671   0.76213   0.00000  Uiso   1.00
N903   N     0.43849   0.04636   0.70097   0.00000  Uiso   1.00
O904   O     0.44562   0.06751   0.66545   0.00000  Uiso   1.00
O905   O     0.40077   0.03432   0.70698   0.00000  Uiso   1.00
N906   N     0.56555   0.28858   0.79234   0.00000  Uiso   1.00
O907   O     0.56392   0.25683   0.82115   0.00000  Uiso   1.00
O908   O     0.60115   0.30589   0.78461   0.00000  Uiso   1.00
N909   N     0.54890   0.04991   0.81168   0.00000  Uiso   1.00
O910   O     0.58569   0.06522   0.80640   0.00000  Uiso   1.00
O911   O     0.53657   0.04617   0.85125   0.00000  Uiso   1.00
N912   N     0.44399   0.28287   0.69505   0.00000  Uiso   1.00
O913   O     0.40771   0.27332   0.70806   0.00000  Uiso   1.00
O914   O     0.44840   0.28562   0.65326   0.00000  Uiso   1.00
C915   C     0.54204   0.24774   0.61548   0.00000  Uiso   1.00
O916   O     0.52715   0.27164   0.64446   0.00000  Uiso   1.00
O917   O     0.57906   0.26133   0.59817   0.00000  Uiso   1.00
H918   H     0.59052   0.29090   0.61280   0.00000  Uiso   1.00
C919   C     0.45201   0.09933   0.88529   0.00000  Uiso   1.00
O920   O     0.42577   0.11330   0.85949   0.00000  Uiso   1.00
O921   O     0.45272   0.05274   0.89688   0.00000  Uiso   1.00
H922   H     0.43060   0.03366   0.88059   0.00000  Uiso   1.00
C923   C     0.51539   0.25686   0.89304   0.00000  Uiso   1.00
O924   O     0.54400   0.28225   0.90492   0.00000  Uiso   1.00
O925   O     0.48274   0.27450   0.86769   0.00000  Uiso   1.00
H926   H     0.48728   0.30777   0.85930   0.00000  Uiso   1.00
C927   C     0.51037   0.07469   0.60827   0.00000  Uiso   1.00
O928   O     0.53393   0.06443   0.63830   0.00000  Uiso   1.00
O929   O     0.48586   0.04027   0.58725   0.00000  Uiso   1.00
H930   H     0.48991   0.00868   0.60045   0.00000  Uiso   1.00
C931   C     0.36795   0.08631   0.79186   0.00000  Uiso   1.00
O932   O     0.40065   0.06617   0.78758   0.00000  Uiso   1.00
O933   O     0.34198   0.07287   0.82444   0.00000  Uiso   1.00
H934   H     0.35373   0.04633   0.84200   0.00000  Uiso   1.00
C935   C     0.63308   0.24500   0.71151   0.00000  Uiso   1.00
O936   O     0.60116   0.24056   0.68972   0.00000  Uiso   1.00
O937   O     0.65827   0.28281   0.70410   0.00000  Uiso   1.00
H938   H     0.64633   0.30378   0.68087   0.00000  Uiso   1.00
C939   C     0.63069   0.07913   0.72663   0.00000  Uiso   1.00
O940   O     0.64167   0.04159   0.74059   0.00000  Uiso   1.00
O941   O     0.60560   0.08028   0.68879   0.00000  Uiso   1.00
H942   H     0.59990   0.04784   0.67610   0.00000  Uiso   1.00
C943   C     0.36872   0.25016   0.78720   0.00000  Uiso   1.00
O944   O     0.35109   0.28765   0.78515   0.00000  Uiso   1.00
O945   O     0.40122   0.24524   0.81785   0.00000  Uiso   1.00
H946   H     0.40734   0.27523   0.83516   0.00000  Uiso   1.00
O947   O     0.77321   0.20625   0.74999   0.00000  Uiso   1.00
O948   O     0.89345   0.12709   0.75000   0.00000  Uiso   1.00
O949   O     0.89345   0.20625   0.75000   0.00000  Uiso   1.00
O950   O     0.77321   0.12709   0.74999   0.00000  Uiso   1.00
N951   N     0.83333   0.28402   0.75000   0.00000  Uiso   1.00
N952   N     0.83333   0.04931   0.75000   0.00000  Uiso   1.00
C953   C     0.75443   0.16680   0.75544   0.00000  Uiso   1.00
C954   C     0.91264   0.16634   0.74611   0.00000  Uiso   1.00
O955   O     0.83333   0.20626   0.68573   0.00000  Uiso   1.00
O956   O     0.83334   0.12707   0.81427   0.00000  Uiso   1.00
O957   O     0.83334   0.20626   0.81427   0.00000  Uiso   1.00
O958   O     0.83333   0.12707   0.68573   0.00000  Uiso   1.00
C959   C     0.83763   0.16596   0.66529   0.00000  Uiso   1.00
C960   C     0.83184   0.16775   0.83511   0.00000  Uiso   1.00
Cu961  Cu    0.83333   0.21355   0.75000   0.00000  Uiso   1.00
Cu962  Cu    0.83333   0.11978   0.75000   0.00000  Uiso   1.00
C963   C     0.80485   0.02383   0.72474   0.00000  Uiso   1.00
C964   C     0.86246   0.30978   0.77406   0.00000  Uiso   1.00
C965   C     0.86019   0.02573   0.77660   0.00000  Uiso   1.00
C966   C     0.80522   0.30768   0.72455   0.00000  Uiso   1.00
C967   C     0.68763   0.12444   0.76283   0.00000  Uiso   1.00
C968   C     0.98025   0.20780   0.74187   0.00000  Uiso   1.00
C969   C     0.97998   0.12343   0.74726   0.00000  Uiso   1.00
C970   C     0.68729   0.20884   0.76004   0.00000  Uiso   1.00
C971   C     0.84977   0.20688   0.54988   0.00000  Uiso   1.00
C972   C     0.81946   0.13152   0.95194   0.00000  Uiso   1.00
C973   C     0.85573   0.20425   0.95351   0.00000  Uiso   1.00
C974   C     0.84346   0.12382   0.54571   0.00000  Uiso   1.00
H975   H     0.85186   0.24020   0.53489   0.00000  Uiso   1.00
H976   H     0.80434   0.10422   0.96863   0.00000  Uiso   1.00
H977   H     0.87219   0.23211   0.97082   0.00000  Uiso   1.00
H978   H     0.84368   0.09139   0.52668   0.00000  Uiso   1.00
C979   C     0.85384   0.20642   0.59529   0.00000  Uiso   1.00
C980   C     0.81418   0.13291   0.90658   0.00000  Uiso   1.00
C981   C     0.84670   0.20894   0.90902   0.00000  Uiso   1.00
C982   C     0.84328   0.12227   0.59122   0.00000  Uiso   1.00
C983   C     0.84525   0.16466   0.61727   0.00000  Uiso   1.00
C984   C     0.83017   0.17045   0.88387   0.00000  Uiso   1.00
C985   C     0.84447   0.16587   0.52446   0.00000  Uiso   1.00
C986   C     0.84110   0.16650   0.97589   0.00000  Uiso   1.00
C987   C     0.95811   0.16563   0.74245   0.00000  Uiso   1.00
C988   C     0.70952   0.16671   0.76213   0.00000  Uiso   1.00
N989   N     0.77182   0.04636   0.70097   0.00000  Uiso   1.00
O990   O     0.77895   0.06751   0.66545   0.00000  Uiso   1.00
O991   O     0.73410   0.03432   0.70698   0.00000  Uiso   1.00
N992   N     0.89888   0.28858   0.79234   0.00000  Uiso   1.00
O993   O     0.89725   0.25683   0.82115   0.00000  Uiso   1.00
O994   O     0.93448   0.30589   0.78461   0.00000  Uiso   1.00
N995   N     0.88223   0.04991   0.81168   0.00000  Uiso   1.00
O996   O     0.91902   0.06522   0.80640   0.00000  Uiso   1.00
O997   O     0.86990   0.04617   0.85125   0.00000  Uiso   1.00
N998   N     0.77732   0.28287   0.69505   0.00000  Uiso   1.00
O999   O     0.74105   0.27332   0.70806   0.00000  Uiso   1.00
O1000  O     0.78173   0.28562   0.65326   0.00000  Uiso   1.00
C1001  C     0.87537   0.24774   0.61548   0.00000  Uiso   1.00
O1002  O     0.86048   0.27164   0.64446   0.00000  Uiso   1.00
O1003  O     0.91240   0.26133   0.59817   0.00000  Uiso   1.00
H1004  H     0.92385   0.29090   0.61280   0.00000  Uiso   1.00
C1005  C     0.78534   0.09933   0.88529   0.00000  Uiso   1.00
O1006  O     0.75910   0.11330   0.85949   0.00000  Uiso   1.00
O1007  O     0.78605   0.05274   0.89688   0.00000  Uiso   1.00
H1008  H     0.76393   0.03366   0.88059   0.00000  Uiso   1.00
C1009  C     0.84873   0.25686   0.89304   0.00000  Uiso   1.00
O1010  O     0.87733   0.28225   0.90492   0.00000  Uiso   1.00
O1011  O     0.81608   0.27450   0.86769   0.00000  Uiso   1.00
H1012  H     0.82061   0.30777   0.85930   0.00000  Uiso   1.00
C1013  C     0.84371   0.07469   0.60827   0.00000  Uiso   1.00
O1014  O     0.86726   0.06443   0.63830   0.00000  Uiso   1.00
O1015  O     0.81919   0.04027   0.58725   0.00000  Uiso   1.00
H1016  H     0.82325   0.00868   0.60045   0.00000  Uiso   1.00
C1017  C     0.70129   0.08631   0.79186   0.00000  Uiso   1.00
O1018  O     0.73398   0.06617   0.78758   0.00000  Uiso   1.00
O1019  O     0.67532   0.07287   0.82444   0.00000  Uiso   1.00
H1020  H     0.68707   0.04633   0.84200   0.00000  Uiso   1.00
C1021  C     0.96641   0.24500   0.71151   0.00000  Uiso   1.00
O1022  O     0.93450   0.24056   0.68972   0.00000  Uiso   1.00
O1023  O     0.99161   0.28281   0.70410   0.00000  Uiso   1.00
H1024  H     0.97967   0.30378   0.68087   0.00000  Uiso   1.00
C1025  C     0.96403   0.07913   0.72663   0.00000  Uiso   1.00
O1026  O     0.97500   0.04159   0.74059   0.00000  Uiso   1.00
O1027  O     0.93894   0.08028   0.68879   0.00000  Uiso   1.00
H1028  H     0.93323   0.04784   0.67610   0.00000  Uiso   1.00
C1029  C     0.70205   0.25016   0.78720   0.00000  Uiso   1.00
O1030  O     0.68442   0.28765   0.78515   0.00000  Uiso   1.00
O1031  O     0.73456   0.24524   0.81785   0.00000  Uiso   1.00
H1032  H     0.74067   0.27523   0.83516   0.00000  Uiso   1.00
O1033  O     0.10655   0.53958   0.74999   0.00000  Uiso   1.00
O1034  O     0.22679   0.46042   0.75000   0.00000  Uiso   1.00
O1035  O     0.22679   0.53958   0.75000   0.00000  Uiso   1.00
O1036  O     0.10655   0.46042   0.74999   0.00000  Uiso   1.00
N1037  N     0.16667   0.61736   0.75000   0.00000  Uiso   1.00
N1038  N     0.16667   0.38264   0.75000   0.00000  Uiso   1.00
C1039  C     0.08776   0.50013   0.75544   0.00000  Uiso   1.00
C1040  C     0.24598   0.49967   0.74611   0.00000  Uiso   1.00
O1041  O     0.16666   0.53959   0.68573   0.00000  Uiso   1.00
O1042  O     0.16667   0.46041   0.81427   0.00000  Uiso   1.00
O1043  O     0.16667   0.53959   0.81427   0.00000  Uiso   1.00
O1044  O     0.16666   0.46041   0.68573   0.00000  Uiso   1.00
C1045  C     0.17097   0.49929   0.66529   0.00000  Uiso   1.00
C1046  C     0.16518   0.50108   0.83511   0.00000  Uiso   1.00
Cu1047 Cu    0.16667   0.54689   0.75000   0.00000  Uiso   1.00
Cu1048 Cu    0.16667   0.45311   0.75000   0.00000  Uiso   1.00
C1049  C     0.13818   0.35716   0.72474   0.00000  Uiso   1.00
C1050  C     0.19579   0.64312   0.77406   0.00000  Uiso   1.00
C1051  C     0.19353   0.35906   0.77660   0.00000  Uiso   1.00
C1052  C     0.13855   0.64102   0.72455   0.00000  Uiso   1.00
C1053  C     0.02096   0.45778   0.76283   0.00000  Uiso   1.00
C1054  C     0.31358   0.54113   0.74187   0.00000  Uiso   1.00
C1055  C     0.31332   0.45676   0.74726   0.00000  Uiso   1.00
C1056  C     0.02062   0.54217   0.76004   0.00000  Uiso   1.00
C1057  C     0.18310   0.54022   0.54988   0.00000  Uiso   1.00
C1058  C     0.15279   0.46486   0.95194   0.00000  Uiso   1.00
C1059  C     0.18907   0.53759   0.95351   0.00000  Uiso   1.00
C1060  C     0.17679   0.45715   0.54571   0.00000  Uiso   1.00
H1061  H     0.18519   0.57353   0.53489   0.00000  Uiso   1.00
H1062  H     0.13768   0.43755   0.96863   0.00000  Uiso   1.00
H1063  H     0.20553   0.56545   0.97082   0.00000  Uiso   1.00
H1064  H     0.17701   0.42473   0.52668   0.00000  Uiso   1.00
C1065  C     0.18717   0.53976   0.59529   0.00000  Uiso   1.00
C1066  C     0.14752   0.46624   0.90658   0.00000  Uiso   1.00
C1067  C     0.18003   0.54228   0.90902   0.00000  Uiso   1.00
C1068  C     0.17661   0.45560   0.59122   0.00000  Uiso   1.00
C1069  C     0.17859   0.49800   0.61727   0.00000  Uiso   1.00
C1070  C     0.16351   0.50378   0.88387   0.00000  Uiso   1.00
C1071  C     0.17780   0.49921   0.52446   0.00000  Uiso   1.00
C1072  C     0.17443   0.49984   0.97589   0.00000  Uiso   1.00
C1073  C     0.29144   0.49896   0.74245   0.00000  Uiso   1.00
C1074  C     0.04285   0.50004   0.76213   0.00000  Uiso   1.00
N1075  N     0.10516   0.37969   0.70097   0.00000  Uiso   1.00
O1076  O     0.11229   0.40084   0.66545   0.00000  Uiso   1.00
O1077  O     0.06744   0.36765   0.70698   0.00000  Uiso   1.00
N1078  N     0.23222   0.62191   0.79234   0.00000  Uiso   1.00
O1079  O     0.23059   0.59017   0.82115   0.00000  Uiso   1.00
O1080  O     0.26781   0.63922   0.78461   0.00000  Uiso   1.00
N1081  N     0.21556   0.38325   0.81168   0.00000  Uiso   1.00
O1082  O     0.25236   0.39856   0.80640   0.00000  Uiso   1.00
O1083  O     0.20323   0.37950   0.85125   0.00000  Uiso   1.00
N1084  N     0.11065   0.61620   0.69505   0.00000  Uiso   1.00
O1085  O     0.07438   0.60665   0.70806   0.00000  Uiso   1.00
O1086  O     0.11506   0.61896   0.65326   0.00000  Uiso   1.00
C1087  C     0.20871   0.58108   0.61548   0.00000  Uiso   1.00
O1088  O     0.19382   0.60497   0.64446   0.00000  Uiso   1.00
O1089  O     0.24573   0.59466   0.59817   0.00000  Uiso   1.00
H1090  H     0.25719   0.62423   0.61280   0.00000  Uiso   1.00
C1091  C     0.11867   0.43266   0.88529   0.00000  Uiso   1.00
O1092  O     0.09243   0.44664   0.85949   0.00000  Uiso   1.00
O1093  O     0.11939   0.38608   0.89688   0.00000  Uiso   1.00
H1094  H     0.09727   0.36700   0.88059   0.00000  Uiso   1.00
C1095  C     0.18206   0.59019   0.89304   0.00000  Uiso   1.00
O1096  O     0.21067   0.61558   0.90492   0.00000  Uiso   1.00
O1097  O     0.14941   0.60783   0.86769   0.00000  Uiso   1.00
H1098  H     0.15394   0.64110   0.85930   0.00000  Uiso   1.00
C1099  C     0.17704   0.40802   0.60827   0.00000  Uiso   1.00
O1100  O     0.20059   0.39777   0.63830   0.00000  Uiso   1.00
O1101  O     0.15252   0.37360   0.58725   0.00000  Uiso   1.00
H1102  H     0.15658   0.34202   0.60045   0.00000  Uiso   1.00
C1103  C     0.03462   0.41964   0.79186   0.00000  Uiso   1.00
O1104  O     0.06732   0.39950   0.78758   0.00000  Uiso   1.00
O1105  O     0.00865   0.40621   0.82444   0.00000  Uiso   1.00
H1106  H     0.02040   0.37966   0.84200   0.00000  Uiso   1.00
C1107  C     0.29975   0.57833   0.71151   0.00000  Uiso   1.00
O1108  O     0.26783   0.57390   0.68972   0.00000  Uiso   1.00
O1109  O     0.32494   0.61614   0.70410   0.00000  Uiso   1.00
H1110  H     0.31300   0.63712   0.68087   0.00000  Uiso   1.00
C1111  C     0.29736   0.41246   0.72663   0.00000  Uiso   1.00
O1112  O     0.30833   0.37492   0.74059   0.00000  Uiso   1.00
O1113  O     0.27227   0.41362   0.68879   0.00000  Uiso   1.00
H1114  H     0.26657   0.38118   0.67610   0.00000  Uiso   1.00
C1115  C     0.03538   0.58349   0.78720   0.00000  Uiso   1.00
O1116  O     0.01776   0.62098   0.78515   0.00000  Uiso   1.00
O1117  O     0.06789   0.57858   0.81785   0.00000  Uiso   1.00
H1118  H     0.07401   0.60857   0.83516   0.00000  Uiso   1.00
O1119  O     0.43988   0.53958   0.74999   0.00000  Uiso   1.00
O1120  O     0.56012   0.46042   0.75000   0.00000  Uiso   1.00
O1121  O     0.56012   0.53958   0.75000   0.00000  Uiso   1.00
O1122  O     0.43988   0.46042   0.74999   0.00000  Uiso   1.00
N1123  N     0.50000   0.61736   0.75000   0.00000  Uiso   1.00
N1124  N     0.50000   0.38264   0.75000   0.00000  Uiso   1.00
C1125  C     0.42109   0.50013   0.75544   0.00000  Uiso   1.00
C1126  C     0.57931   0.49967   0.74611   0.00000  Uiso   1.00
O1127  O     0.50000   0.53959   0.68573   0.00000  Uiso   1.00
O1128  O     0.50000   0.46041   0.81427   0.00000  Uiso   1.00
O1129  O     0.50000   0.53959   0.81427   0.00000  Uiso   1.00
O1130  O     0.50000   0.46041   0.68573   0.00000  Uiso   1.00
C1131  C     0.50430   0.49929   0.66529   0.00000  Uiso   1.00
C1132  C     0.49851   0.50108   0.83511   0.00000  Uiso   1.00
Cu1133 Cu    0.50000   0.54689   0.75000   0.00000  Uiso   1.00
Cu1134 Cu    0.50000   0.45311   0.75000   0.00000  Uiso   1.00
C1135  C     0.47151   0.35716   0.72474   0.00000  Uiso   1.00
C1136  C     0.52912   0.64312   0.77406   0.00000  Uiso   1.00
C1137  C     0.52686   0.35906   0.77660   0.00000  Uiso   1.00
C1138  C     0.47189   0.64102   0.72455   0.00000  Uiso   1.00
C1139  C     0.35430   0.45778   0.76283   0.00000  Uiso   1.00
C1140  C     0.64691   0.54113   0.74187   0.00000  Uiso   1.00
C1141  C     0.64665   0.45676   0.74726   0.00000  Uiso   1.00
C1142  C     0.35396   0.54217   0.76004   0.00000  Uiso   1.00
C1143  C     0.51644   0.54022   0.54988   0.00000  Uiso   1.00
C1144  C     0.48612   0.46486   0.95194   0.00000  Uiso   1.00
C1145  C     0.52240   0.53759   0.95351   0.00000  Uiso   1.00
C1146  C     0.51013   0.45715   0.54571   0.00000  Uiso   1.00
H1147  H     0.51853   0.57353   0.53489   0.00000  Uiso   1.00
H1148  H     0.47101   0.43755   0.96863   0.00000  Uiso   1.00
H1149  H     0.53886   0.56545   0.97082   0.00000  Uiso   1.00
H1150  H     0.51034   0.42473   0.52668   0.00000  Uiso   1.00
C1151  C     0.52051   0.53976   0.59529   0.00000  Uiso   1.00
C1152  C     0.48085   0.46624   0.90658   0.00000  Uiso   1.00
C1153  C     0.51336   0.54228   0.90902   0.00000  Uiso   1.00
C1154  C     0.50995   0.45560   0.59122   0.00000  Uiso   1.00
C1155  C     0.51192   0.49800   0.61727   0.00000  Uiso   1.00
C1156  C     0.49684   0.50378   0.88387   0.00000  Uiso   1.00
C1157  C     0.51113   0.49921   0.52446   0.00000  Uiso   1.00
C1158  C     0.50777   0.49984   0.97589   0.00000  Uiso   1.00
C1159  C     0.62477   0.49896   0.74245   0.00000  Uiso   1.00
C1160  C     0.37619   0.50004   0.76213   0.00000  Uiso   1.00
N1161  N     0.43849   0.37969   0.70097   0.00000  Uiso   1.00
O1162  O     0.44562   0.40084   0.66545   0.00000  Uiso   1.00
O1163  O     0.40077   0.36765   0.70698   0.00000  Uiso   1.00
N1164  N     0.56555   0.62191   0.79234   0.00000  Uiso   1.00
O1165  O     0.56392   0.59017   0.82115   0.00000  Uiso   1.00
O1166  O     0.60115   0.63922   0.78461   0.00000  Uiso   1.00
N1167  N     0.54890   0.38325   0.81168   0.00000  Uiso   1.00
O1168  O     0.58569   0.39856   0.80640   0.00000  Uiso   1.00
O1169  O     0.53657   0.37950   0.85125   0.00000  Uiso   1.00
N1170  N     0.44399   0.61620   0.69505   0.00000  Uiso   1.00
O1171  O     0.40771   0.60665   0.70806   0.00000  Uiso   1.00
O1172  O     0.44840   0.61896   0.65326   0.00000  Uiso   1.00
C1173  C     0.54204   0.58108   0.61548   0.00000  Uiso   1.00
O1174  O     0.52715   0.60497   0.64446   0.00000  Uiso   1.00
O1175  O     0.57906   0.59466   0.59817   0.00000  Uiso   1.00
H1176  H     0.59052   0.62423   0.61280   0.00000  Uiso   1.00
C1177  C     0.45201   0.43266   0.88529   0.00000  Uiso   1.00
O1178  O     0.42577   0.44664   0.85949   0.00000  Uiso   1.00
O1179  O     0.45272   0.38608   0.89688   0.00000  Uiso   1.00
H1180  H     0.43060   0.36700   0.88059   0.00000  Uiso   1.00
C1181  C     0.51539   0.59019   0.89304   0.00000  Uiso   1.00
O1182  O     0.54400   0.61558   0.90492   0.00000  Uiso   1.00
O1183  O     0.48274   0.60783   0.86769   0.00000  Uiso   1.00
H1184  H     0.48728   0.64110   0.85930   0.00000  Uiso   1.00
C1185  C     0.51037   0.40802   0.60827   0.00000  Uiso   1.00
O1186  O     0.53393   0.39777   0.63830   0.00000  Uiso   1.00
O1187  O     0.48586   0.37360   0.58725   0.00000  Uiso   1.00
H1188  H     0.48991   0.34202   0.60045   0.00000  Uiso   1.00
C1189  C     0.36795   0.41964   0.79186   0.00000  Uiso   1.00
O1190  O     0.40065   0.39950   0.78758   0.00000  Uiso   1.00
O1191  O     0.34198   0.40621   0.82444   0.00000  Uiso   1.00
H1192  H     0.35373   0.37966   0.84200   0.00000  Uiso   1.00
C1193  C     0.63308   0.57833   0.71151   0.00000  Uiso   1.00
O1194  O     0.60116   0.57390   0.68972   0.00000  Uiso   1.00
O1195  O     0.65827   0.61614   0.70410   0.00000  Uiso   1.00
H1196  H     0.64633   0.63712   0.68087   0.00000  Uiso   1.00
C1197  C     0.63069   0.41246   0.72663   0.00000  Uiso   1.00
O1198  O     0.64167   0.37492   0.74059   0.00000  Uiso   1.00
O1199  O     0.60560   0.41362   0.68879   0.00000  Uiso   1.00
H1200  H     0.59990   0.38118   0.67610   0.00000  Uiso   1.00
C1201  C     0.36872   0.58349   0.78720   0.00000  Uiso   1.00
O1202  O     0.35109   0.62098   0.78515   0.00000  Uiso   1.00
O1203  O     0.40122   0.57858   0.81785   0.00000  Uiso   1.00
H1204  H     0.40734   0.60857   0.83516   0.00000  Uiso   1.00
O1205  O     0.77321   0.53958   0.74999   0.00000  Uiso   1.00
O1206  O     0.89345   0.46042   0.75000   0.00000  Uiso   1.00
O1207  O     0.89345   0.53958   0.75000   0.00000  Uiso   1.00
O1208  O     0.77321   0.46042   0.74999   0.00000  Uiso   1.00
N1209  N     0.83333   0.61736   0.75000   0.00000  Uiso   1.00
N1210  N     0.83333   0.38264   0.75000   0.00000  Uiso   1.00
C1211  C     0.75443   0.50013   0.75544   0.00000  Uiso   1.00
C1212  C     0.91264   0.49967   0.74611   0.00000  Uiso   1.00
O1213  O     0.83333   0.53959   0.68573   0.00000  Uiso   1.00
O1214  O     0.83334   0.46041   0.81427   0.00000  Uiso   1.00
O1215  O     0.83334   0.53959   0.81427   0.00000  Uiso   1.00
O1216  O     0.83333   0.46041   0.68573   0.00000  Uiso   1.00
C1217  C     0.83763   0.49929   0.66529   0.00000  Uiso   1.00
C1218  C     0.83184   0.50108   0.83511   0.00000  Uiso   1.00
Cu1219 Cu    0.83333   0.54689   0.75000   0.00000  Uiso   1.00
Cu1220 Cu    0.83333   0.45311   0.75000   0.00000  Uiso   1.00
C1221  C     0.80485   0.35716   0.72474   0.00000  Uiso   1.00
C1222  C     0.86246   0.64312   0.77406   0.00000  Uiso   1.00
C1223  C     0.86019   0.35906   0.77660   0.00000  Uiso   1.00
C1224  C     0.80522   0.64102   0.72455   0.00000  Uiso   1.00
C1225  C     0.68763   0.45778   0.76283   0.00000  Uiso   1.00
C1226  C     0.98025   0.54113   0.74187   0.00000  Uiso   1.00
C1227  C     0.97998   0.45676   0.74726   0.00000  Uiso   1.00
C1228  C     0.68729   0.54217   0.76004   0.00000  Uiso   1.00
C1229  C     0.84977   0.54022   0.54988   0.00000  Uiso   1.00
C1230  C     0.81946   0.46486   0.95194   0.00000  Uiso   1.00
C1231  C     0.85573   0.53759   0.95351   0.00000  Uiso   1.00
C1232  C     0.84346   0.45715   0.54571   0.00000  Uiso   1.00
H1233  H     0.85186   0.57353   0.53489   0.00000  Uiso   1.00
H1234  H     0.80434   0.43755   0.96863   0.00000  Uiso   1.00
H1235  H     0.87219   0.56545   0.97082   0.00000  Uiso   1.00
H1236  H     0.84368   0.42473   0.52668   0.00000  Uiso   1.00
C1237  C     0.85384   0.53976   0.59529   0.00000  Uiso   1.00
C1238  C     0.81418   0.46624   0.90658   0.00000  Uiso   1.00
C1239  C     0.84670   0.54228   0.90902   0.00000  Uiso   1.00
C1240  C     0.84328   0.45560   0.59122   0.00000  Uiso   1.00
C1241  C     0.84525   0.49800   0.61727   0.00000  Uiso   1.00
C1242  C     0.83017   0.50378   0.88387   0.00000  Uiso   1.00
C1243  C     0.84447   0.49921   0.52446   0.00000  Uiso   1.00
C1244  C     0.84110   0.49984   0.97589   0.00000  Uiso   1.00
C1245  C     0.95811   0.49896   0.74245   0.00000  Uiso   1.00
C1246  C     0.70952   0.50004   0.76213   0.00000  Uiso   1.00
N1247  N     0.77182   0.37969   0.70097   0.00000  Uiso   1.00
O1248  O     0.77895   0.40084   0.66545   0.00000  Uiso   1.00
O1249  O     0.73410   0.36765   0.70698   0.00000  Uiso   1.00
N1250  N     0.89888   0.62191   0.79234   0.00000  Uiso   1.00
O1251  O     0.89725   0.59017   0.82115   0.00000  Uiso   1.00
O1252  O     0.93448   0.63922   0.78461   0.00000  Uiso   1.00
N1253  N     0.88223   0.38325   0.81168   0.00000  Uiso   1.00
O1254  O     0.91902   0.39856   0.80640   0.00000  Uiso   1.00
O1255  O     0.86990   0.37950   0.85125   0.00000  Uiso   1.00
N1256  N     0.77732   0.61620   0.69505   0.00000  Uiso   1.00
O1257  O     0.74105   0.60665   0.70806   0.00000  Uiso   1.00
O1258  O     0.78173   0.61896   0.65326   0.00000  Uiso   1.00
C1259  C     0.87537   0.58108   0.61548   0.00000  Uiso   1.00
O1260  O     0.86048   0.60497   0.64446   0.00000  Uiso   1.00
O1261  O     0.91240   0.59466   0.59817   0.00000  Uiso   1.00
H1262  H     0.92385   0.62423   0.61280   0.00000  Uiso   1.00
C1263  C     0.78534   0.43266   0.88529   0.00000  Uiso   1.00
O1264  O     0.75910   0.44664   0.85949   0.00000  Uiso   1.00
O1265  O     0.78605   0.38608   0.89688   0.00000  Uiso   1.00
H1266  H     0.76393   0.36700   0.88059   0.00000  Uiso   1.00
C1267  C     0.84873   0.59019   0.89304   0.00000  Uiso   1.00
O1268  O     0.87733   0.61558   0.90492   0.00000  Uiso   1.00
O1269  O     0.81608   0.60783   0.86769   0.00000  Uiso   1.00
H1270  H     0.82061   0.64110   0.85930   0.00000  Uiso   1.00
C1271  C     0.84371   0.40802   0.60827   0.00000  Uiso   1.00
O1272  O     0.86726   0.39777   0.63830   0.00000  Uiso   1.00
O1273  O     0.81919   0.37360   0.58725   0.00000  Uiso   1.00
H1274  H     0.82325   0.34202   0.60045   0.00000  Uiso   1.00
C1275  C     0.70129   0.41964   0.79186   0.00000  Uiso   1.00
O1276  O     0.73398   0.39950   0.78758   0.00000  Uiso   1.00
O1277  O     0.67532   0.40621   0.82444   0.00000  Uiso   1.00
H1278  H     0.68707   0.37966   0.84200   0.00000  Uiso   1.00
C1279  C     0.96641   0.57833   0.71151   0.00000  Uiso   1.00
O1280  O     0.93450   0.57390   0.68972   0.00000  Uiso   1.00
O1281  O     0.99161   0.61614   0.70410   0.00000  Uiso   1.00
H1282  H     0.97967   0.63712   0.68087   0.00000  Uiso   1.00
C1283  C     0.96403   0.41246   0.72663   0.00000  Uiso   1.00
O1284  O     0.97500   0.37492   0.74059   0.00000  Uiso   1.00
O1285  O     0.93894   0.41362   0.68879   0.00000  Uiso   1.00
H1286  H     0.93323   0.38118   0.67610   0.00000  Uiso   1.00
C1287  C     0.70205   0.58349   0.78720   0.00000  Uiso   1.00
O1288  O     0.68442   0.62098   0.78515   0.00000  Uiso   1.00
O1289  O     0.73456   0.57858   0.81785   0.00000  Uiso   1.00
H1290  H     0.74067   0.60857   0.83516   0.00000  Uiso   1.00
O1291  O     0.10655   0.87291   0.74999   0.00000  Uiso   1.00
O1292  O     0.22679   0.79375   0.75000   0.00000  Uiso   1.00
O1293  O     0.22679   0.87291   0.75000   0.00000  Uiso   1.00
O1294  O     0.10655   0.79375   0.74999   0.00000  Uiso   1.00
N1295  N     0.16667   0.95069   0.75000   0.00000  Uiso   1.00
N1296  N     0.16667   0.71598   0.75000   0.00000  Uiso   1.00
C1297  C     0.08776   0.83346   0.75544   0.00000  Uiso   1.00
C1298  C     0.24598   0.83301   0.74611   0.00000  Uiso   1.00
O1299  O     0.16666   0.87293   0.68573   0.00000  Uiso   1.00
O1300  O     0.16667   0.79374   0.81427   0.00000  Uiso   1.00
O1301  O     0.16667   0.87293   0.81427   0.00000  Uiso   1.00
O1302  O     0.16666   0.79374   0.68573   0.00000  Uiso   1.00
C1303  C     0.17097   0.83262   0.66529   0.00000  Uiso   1.00
C1304  C     0.16518   0.83441   0.83511   0.00000  Uiso   1.00
Cu1305 Cu    0.16667   0.88022   0.75000   0.00000  Uiso   1.00
Cu1306 Cu    0.16667   0.78645   0.75000   0.00000  Uiso   1.00
C1307  C     0.13818   0.69050   0.72474   0.00000  Uiso   1.00
C1308  C     0.19579   0.97645   0.77406   0.00000  Uiso   1.00
C1309  C     0.19353   0.69240   0.77660   0.00000  Uiso   1.00
C1310  C     0.13855   0.97435   0.72455   0.00000  Uiso   1.00
C1311  C     0.02096   0.79111   0.76283   0.00000  Uiso   1.00
C1312  C     0.31358   0.87447   0.74187   0.00000  Uiso   1.00
C1313  C     0.31332   0.79009   0.74726   0.00000  Uiso   1.00
C1314  C     0.02062   0.87551   0.76004   0.00000  Uiso   1.00
C1315  C     0.18310   0.87355   0.54988   0.00000  Uiso   1.00
C1316  C     0.15279   0.79819   0.95194   0.00000  Uiso   1.00
C1317  C     0.18907   0.87092   0.95351   0.00000  Uiso   1.00
C1318  C     0.17679   0.79049   0.54571   0.00000  Uiso   1.00
H1319  H     0.18519   0.90686   0.53489   0.00000  Uiso   1.00
H1320  H     0.13768   0.77088   0.96863   0.00000  Uiso   1.00
H1321  H     0.20553   0.89878   0.97082   0.00000  Uiso   1.00
H1322  H     0.17701   0.75806   0.52668   0.00000  Uiso   1.00
C1323  C     0.18717   0.87309   0.59529   0.00000  Uiso   1.00
C1324  C     0.14752   0.79958   0.90658   0.00000  Uiso   1.00
C1325  C     0.18003   0.87561   0.90902   0.00000  Uiso   1.00
C1326  C     0.17661   0.78894   0.59122   0.00000  Uiso   1.00
C1327  C     0.17859   0.83133   0.61727   0.00000  Uiso   1.00
C1328  C     0.16351   0.83712   0.88387   0.00000  Uiso   1.00
C1329  C     0.17780   0.83254   0.52446   0.00000  Uiso   1.00
C1330  C     0.17443   0.83317   0.97589   0.00000  Uiso   1.00
C1331  C     0.29144   0.83230   0.74245   0.00000  Uiso   1.00
C1332  C     0.04285   0.83338   0.76213   0.00000  Uiso   1.00
N1333  N     0.10516   0.71302   0.70097   0.00000  Uiso   1.00
O1334  O     0.11229   0.73417   0.66545   0.00000  Uiso   1.00
O1335  O     0.06744   0.70099   0.70698   0.00000  Uiso   1.00
N1336  N     0.23222   0.95525   0.79234   0.00000  Uiso   1.00
O1337  O     0.23059   0.92350   0.82115   0.00000  Uiso   1.00
O1338  O     0.26781   0.97256   0.78461   0.00000  Uiso   1.00
N1339  N     0.21556   0.71658   0.81168   0.00000  Uiso   1.00
O1340  O     0.25236   0.73189   0.80640   0.00000  Uiso   1.00
O1341  O     0.20323   0.71283   0.85125   0.00000  Uiso   1.00
N1342  N     0.11065   0.94954   0.69505   0.00000  Uiso   1.00
O1343  O     0.07438   0.93998   0.70806   0.00000  Uiso   1.00
O1344  O     0.11506   0.95229   0.65326   0.00000  Uiso   1.00
C1345  C     0.20871   0.91441   0.61548   0.00000  Uiso   1.00
O1346  O     0.19382   0.93831   0.64446   0.00000  Uiso   1.00
O1347  O     0.24573   0.92799   0.59817   0.00000  Uiso   1.00
H1348  H     0.25719   0.95756   0.61280   0.00000  Uiso   1.00
C1349  C     0.11867   0.76600   0.88529   0.00000  Uiso   1.00
O1350  O     0.09243   0.77997   0.85949   0.00000  Uiso   1.00
O1351  O     0.11939   0.71941   0.89688   0.00000  Uiso   1.00
H1352  H     0.09727   0.70033   0.88059   0.00000  Uiso   1.00
C1353  C     0.18206   0.92353   0.89304   0.00000  Uiso   1.00
O1354  O     0.21067   0.94892   0.90492   0.00000  Uiso   1.00
O1355  O     0.14941   0.94117   0.86769   0.00000  Uiso   1.00
H1356  H     0.15394   0.97443   0.85930   0.00000  Uiso   1.00
C1357  C     0.17704   0.74135   0.60827   0.00000  Uiso   1.00
O1358  O     0.20059   0.73110   0.63830   0.00000  Uiso   1.00
O1359  O     0.15252   0.70694   0.58725   0.00000  Uiso   1.00
H1360  H     0.15658   0.67535   0.60045   0.00000  Uiso   1.00
C1361  C     0.03462   0.75298   0.79186   0.00000  Uiso   1.00
O1362  O     0.06732   0.73283   0.78758   0.00000  Uiso   1.00
O1363  O     0.00865   0.73954   0.82444   0.00000  Uiso   1.00
H1364  H     0.02040   0.71299   0.84200   0.00000  Uiso   1.00
C1365  C     0.29975   0.91167   0.71151   0.00000  Uiso   1.00
O1366  O     0.26783   0.90723   0.68972   0.00000  Uiso   1.00
O1367  O     0.32494   0.94947   0.70410   0.00000  Uiso   1.00
H1368  H     0.31300   0.97045   0.68087   0.00000  Uiso   1.00
C1369  C     0.29736   0.74580   0.72663   0.00000  Uiso   1.00
O1370  O     0.30833   0.70826   0.74059   0.00000  Uiso   1.00
O1371  O     0.27227   0.74695   0.68879   0.00000  Uiso   1.00
H1372  H     0.26657   0.71451   0.67610   0.00000  Uiso   1.00
C1373  C     0.03538   0.91682   0.78720   0.00000  Uiso   1.00
O1374  O     0.01776   0.95431   0.78515   0.00000  Uiso   1.00
O1375  O     0.06789   0.91191   0.81785   0.00000  Uiso   1.00
H1376  H     0.07401   0.94190   0.83516   0.00000  Uiso   1.00
O1377  O     0.43988   0.87291   0.74999   0.00000  Uiso   1.00
O1378  O     0.56012   0.79375   0.75000   0.00000  Uiso   1.00
O1379  O     0.56012   0.87291   0.75000   0.00000  Uiso   1.00
O1380  O     0.43988   0.79375   0.74999   0.00000  Uiso   1.00
N1381  N     0.50000   0.95069   0.75000   0.00000  Uiso   1.00
N1382  N     0.50000   0.71598   0.75000   0.00000  Uiso   1.00
C1383  C     0.42109   0.83346   0.75544   0.00000  Uiso   1.00
C1384  C     0.57931   0.83301   0.74611   0.00000  Uiso   1.00
O1385  O     0.50000   0.87293   0.68573   0.00000  Uiso   1.00
O1386  O     0.50000   0.79374   0.81427   0.00000  Uiso   1.00
O1387  O     0.50000   0.87293   0.81427   0.00000  Uiso   1.00
O1388  O     0.50000   0.79374   0.68573   0.00000  Uiso   1.00
C1389  C     0.50430   0.83262   0.66529   0.00000  Uiso   1.00
C1390  C     0.49851   0.83441   0.83511   0.00000  Uiso   1.00
Cu1391 Cu    0.50000   0.88022   0.75000   0.00000  Uiso   1.00
Cu1392 Cu    0.50000   0.78645   0.75000   0.00000  Uiso   1.00
C1393  C     0.47151   0.69050   0.72474   0.00000  Uiso   1.00
C1394  C     0.52912   0.97645   0.77406   0.00000  Uiso   1.00
C1395  C     0.52686   0.69240   0.77660   0.00000  Uiso   1.00
C1396  C     0.47189   0.97435   0.72455   0.00000  Uiso   1.00
C1397  C     0.35430   0.79111   0.76283   0.00000  Uiso   1.00
C1398  C     0.64691   0.87447   0.74187   0.00000  Uiso   1.00
C1399  C     0.64665   0.79009   0.74726   0.00000  Uiso   1.00
C1400  C     0.35396   0.87551   0.76004   0.00000  Uiso   1.00
C1401  C     0.51644   0.87355   0.54988   0.00000  Uiso   1.00
C1402  C     0.48612   0.79819   0.95194   0.00000  Uiso   1.00
C1403  C     0.52240   0.87092   0.95351   0.00000  Uiso   1.00
C1404  C     0.51013   0.79049   0.54571   0.00000  Uiso   1.00
H1405  H     0.51853   0.90686   0.53489   0.00000  Uiso   1.00
H1406  H     0.47101   0.77088   0.96863   0.00000  Uiso   1.00
H1407  H     0.53886   0.89878   0.97082   0.00000  Uiso   1.00
H1408  H     0.51034   0.75806   0.52668   0.00000  Uiso   1.00
C1409  C     0.52051   0.87309   0.59529   0.00000  Uiso   1.00
C1410  C     0.48085   0.79958   0.90658   0.00000  Uiso   1.00
C1411  C     0.51336   0.87561   0.90902   0.00000  Uiso   1.00
C1412  C     0.50995   0.78894   0.59122   0.00000  Uiso   1.00
C1413  C     0.51192   0.83133   0.61727   0.00000  Uiso   1.00
C1414  C     0.49684   0.83712   0.88387   0.00000  Uiso   1.00
C1415  C     0.51113   0.83254   0.52446   0.00000  Uiso   1.00
C1416  C     0.50777   0.83317   0.97589   0.00000  Uiso   1.00
C1417  C     0.62477   0.83230   0.74245   0.00000  Uiso   1.00
C1418  C     0.37619   0.83338   0.76213   0.00000  Uiso   1.00
N1419  N     0.43849   0.71302   0.70097   0.00000  Uiso   1.00
O1420  O     0.44562   0.73417   0.66545   0.00000  Uiso   1.00
O1421  O     0.40077   0.70099   0.70698   0.00000  Uiso   1.00
N1422  N     0.56555   0.95525   0.79234   0.00000  Uiso   1.00
O1423  O     0.56392   0.92350   0.82115   0.00000  Uiso   1.00
O1424  O     0.60115   0.97256   0.78461   0.00000  Uiso   1.00
N1425  N     0.54890   0.71658   0.81168   0.00000  Uiso   1.00
O1426  O     0.58569   0.73189   0.80640   0.00000  Uiso   1.00
O1427  O     0.53657   0.71283   0.85125   0.00000  Uiso   1.00
N1428  N     0.44399   0.94954   0.69505   0.00000  Uiso   1.00
O1429  O     0.40771   0.93998   0.70806   0.00000  Uiso   1.00
O1430  O     0.44840   0.95229   0.65326   0.00000  Uiso   1.00
C1431  C     0.54204   0.91441   0.61548   0.00000  Uiso   1.00
O1432  O     0.52715   0.93831   0.64446   0.00000  Uiso   1.00
O1433  O     0.57906   0.92799   0.59817   0.00000  Uiso   1.00
H1434  H     0.59052   0.95756   0.61280   0.00000  Uiso   1.00
C1435  C     0.45201   0.76600   0.88529   0.00000  Uiso   1.00
O1436  O     0.42577   0.77997   0.85949   0.00000  Uiso   1.00
O1437  O     0.45272   0.71941   0.89688   0.00000  Uiso   1.00
H1438  H     0.43060   0.70033   0.88059   0.00000  Uiso   1.00
C1439  C     0.51539   0.92353   0.89304   0.00000  Uiso   1.00
O1440  O     0.54400   0.94892   0.90492   0.00000  Uiso   1.00
O1441  O     0.48274   0.94117   0.86769   0.00000  Uiso   1.00
H1442  H     0.48728   0.97443   0.85930   0.00000  Uiso   1.00
C1443  C     0.51037   0.74135   0.60827   0.00000  Uiso   1.00
O1444  O     0.53393   0.73110   0.63830   0.00000  Uiso   1.00
O1445  O     0.48586   0.70694   0.58725   0.00000  Uiso   1.00
H1446  H     0.48991   0.67535   0.60045   0.00000  Uiso   1.00
C1447  C     0.36795   0.75298   0.79186   0.00000  Uiso   1.00
O1448  O     0.40065   0.73283   0.78758   0.00000  Uiso   1.00
O1449  O     0.34198   0.73954   0.82444   0.00000  Uiso   1.00
H1450  H     0.35373   0.71299   0.84200   0.00000  Uiso   1.00
C1451  C     0.63308   0.91167   0.71151   0.00000  Uiso   1.00
O1452  O     0.60116   0.90723   0.68972   0.00000  Uiso   1.00
O1453  O     0.65827   0.94947   0.70410   0.00000  Uiso   1.00
H1454  H     0.64633   0.97045   0.68087   0.00000  Uiso   1.00
C1455  C     0.63069   0.74580   0.72663   0.00000  Uiso   1.00
O1456  O     0.64167   0.70826   0.74059   0.00000  Uiso   1.00
O1457  O     0.60560   0.74695   0.68879   0.00000  Uiso   1.00
H1458  H     0.59990   0.71451   0.67610   0.00000  Uiso   1.00
C1459  C     0.36872   0.91682   0.78720   0.00000  Uiso   1.00
O1460  O     0.35109   0.95431   0.78515   0.00000  Uiso   1.00
O1461  O     0.40122   0.91191   0.81785   0.00000  Uiso   1.00
H1462  H     0.40734   0.94190   0.83516   0.00000  Uiso   1.00
O1463  O     0.77321   0.87291   0.74999   0.00000  Uiso   1.00
O1464  O     0.89345   0.79375   0.75000   0.00000  Uiso   1.00
O1465  O     0.89345   0.87291   0.75000   0.00000  Uiso   1.00
O1466  O     0.77321   0.79375   0.74999   0.00000  Uiso   1.00
N1467  N     0.83333   0.95069   0.75000   0.00000  Uiso   1.00
N1468  N     0.83333   0.71598   0.75000   0.00000  Uiso   1.00
C1469  C     0.75443   0.83346   0.75544   0.00000  Uiso   1.00
C1470  C     0.91264   0.83301   0.74611   0.00000  Uiso   1.00
O1471  O     0.83333   0.87293   0.68573   0.00000  Uiso   1.00
O1472  O     0.83334   0.79374   0.81427   0.00000  Uiso   1.00
O1473  O     0.83334   0.87293   0.81427   0.00000  Uiso   1.00
O1474  O     0.83333   0.79374   0.68573   0.00000  Uiso   1.00
C1475  C     0.83763   0.83262   0.66529   0.00000  Uiso   1.00
C1476  C     0.83184   0.83441   0.83511   0.00000  Uiso   1.00
Cu1477 Cu    0.83333   0.88022   0.75000   0.00000  Uiso   1.00
Cu1478 Cu    0.83333   0.78645   0.75000   0.00000  Uiso   1.00
C1479  C     0.80485   0.69050   0.72474   0.00000  Uiso   1.00
C1480  C     0.86246   0.97645   0.77406   0.00000  Uiso   1.00
C1481  C     0.86019   0.69240   0.77660   0.00000  Uiso   1.00
C1482  C     0.80522   0.97435   0.72455   0.00000  Uiso   1.00
C1483  C     0.68763   0.79111   0.76283   0.00000  Uiso   1.00
C1484  C     0.98025   0.87447   0.74187   0.00000  Uiso   1.00
C1485  C     0.97998   0.79009   0.74726   0.00000  Uiso   1.00
C1486  C     0.68729   0.87551   0.76004   0.00000  Uiso   1.00
C1487  C     0.84977   0.87355   0.54988   0.00000  Uiso   1.00
C1488  C     0.81946   0.79819   0.95194   0.00000  Uiso   1.00
C1489  C     0.85573   0.87092   0.95351   0.00000  Uiso   1.00
C1490  C     0.84346   0.79049   0.54571   0.00000  Uiso   1.00
H1491  H     0.85186   0.90686   0.53489   0.00000  Uiso   1.00
H1492  H     0.80434   0.77088   0.96863   0.00000  Uiso   1.00
H1493  H     0.87219   0.89878   0.97082   0.00000  Uiso   1.00
H1494  H     0.84368   0.75806   0.52668   0.00000  Uiso   1.00
C1495  C     0.85384   0.87309   0.59529   0.00000  Uiso   1.00
C1496  C     0.81418   0.79958   0.90658   0.00000  Uiso   1.00
C1497  C     0.84670   0.87561   0.90902   0.00000  Uiso   1.00
C1498  C     0.84328   0.78894   0.59122   0.00000  Uiso   1.00
C1499  C     0.84525   0.83133   0.61727   0.00000  Uiso   1.00
C1500  C     0.83017   0.83712   0.88387   0.00000  Uiso   1.00
C1501  C     0.84447   0.83254   0.52446   0.00000  Uiso   1.00
C1502  C     0.84110   0.83317   0.97589   0.00000  Uiso   1.00
C1503  C     0.95811   0.83230   0.74245   0.00000  Uiso   1.00
C1504  C     0.70952   0.83338   0.76213   0.00000  Uiso   1.00
N1505  N     0.77182   0.71302   0.70097   0.00000  Uiso   1.00
O1506  O     0.77895   0.73417   0.66545   0.00000  Uiso   1.00
O1507  O     0.73410   0.70099   0.70698   0.00000  Uiso   1.00
N1508  N     0.89888   0.95525   0.79234   0.00000  Uiso   1.00
O1509  O     0.89725   0.92350   0.82115   0.00000  Uiso   1.00
O1510  O     0.93448   0.97256   0.78461   0.00000  Uiso   1.00
N1511  N     0.88223   0.71658   0.81168   0.00000  Uiso   1.00
O1512  O     0.91902   0.73189   0.80640   0.00000  Uiso   1.00
O1513  O     0.86990   0.71283   0.85125   0.00000  Uiso   1.00
N1514  N     0.77732   0.94954   0.69505   0.00000  Uiso   1.00
O1515  O     0.74105   0.93998   0.70806   0.00000  Uiso   1.00
O1516  O     0.78173   0.95229   0.65326   0.00000  Uiso   1.00
C1517  C     0.87537   0.91441   0.61548   0.00000  Uiso   1.00
O1518  O     0.86048   0.93831   0.64446   0.00000  Uiso   1.00
O1519  O     0.91240   0.92799   0.59817   0.00000  Uiso   1.00
H1520  H     0.92385   0.95756   0.61280   0.00000  Uiso   1.00
C1521  C     0.78534   0.76600   0.88529   0.00000  Uiso   1.00
O1522  O     0.75910   0.77997   0.85949   0.00000  Uiso   1.00
O1523  O     0.78605   0.71941   0.89688   0.00000  Uiso   1.00
H1524  H     0.76393   0.70033   0.88059   0.00000  Uiso   1.00
C1525  C     0.84873   0.92353   0.89304   0.00000  Uiso   1.00
O1526  O     0.87733   0.94892   0.90492   0.00000  Uiso   1.00
O1527  O     0.81608   0.94117   0.86769   0.00000  Uiso   1.00
H1528  H     0.82061   0.97443   0.85930   0.00000  Uiso   1.00
C1529  C     0.84371   0.74135   0.60827   0.00000  Uiso   1.00
O1530  O     0.86726   0.73110   0.63830   0.00000  Uiso   1.00
O1531  O     0.81919   0.70694   0.58725   0.00000  Uiso   1.00
H1532  H     0.82325   0.67535   0.60045   0.00000  Uiso   1.00
C1533  C     0.70129   0.75298   0.79186   0.00000  Uiso   1.00
O1534  O     0.73398   0.73283   0.78758   0.00000  Uiso   1.00
O1535  O     0.67532   0.73954   0.82444   0.00000  Uiso   1.00
H1536  H     0.68707   0.71299   0.84200   0.00000  Uiso   1.00
C1537  C     0.96641   0.91167   0.71151   0.00000  Uiso   1.00
O1538  O     0.93450   0.90723   0.68972   0.00000  Uiso   1.00
O1539  O     0.99161   0.94947   0.70410   0.00000  Uiso   1.00
H1540  H     0.97967   0.97045   0.68087   0.00000  Uiso   1.00
C1541  C     0.96403   0.74580   0.72663   0.00000  Uiso   1.00
O1542  O     0.97500   0.70826   0.74059   0.00000  Uiso   1.00
O1543  O     0.93894   0.74695   0.68879   0.00000  Uiso   1.00
H1544  H     0.93323   0.71451   0.67610   0.00000  Uiso   1.00
C1545  C     0.70205   0.91682   0.78720   0.00000  Uiso   1.00
O1546  O     0.68442   0.95431   0.78515   0.00000  Uiso   1.00
O1547  O     0.73456   0.91191   0.81785   0.00000  Uiso   1.00
H1548  H     0.74067   0.94190   0.83516   0.00000  Uiso   1.00
loop_
_geom_bond_atom_site_label_1
_geom_bond_atom_site_label_2
_geom_bond_distance
_geom_bond_site_symmetry_2
_ccdc_geom_bond_type
O1     Cu15    1.971   .     S
O1     C7      1.311   .     A
O2     Cu16    1.971   .     S
O2     C8      1.305   .     A
O3     C8      1.308   .     A
O3     Cu15    1.969   .     S
O4     C7      1.301   .     A
O4     Cu16    1.969   .     S
N5     C20     1.373   .     A
N5     C18     1.382   .     A
N5     Cu15    2.027   .     S
N6     C19     1.367   .     A
N6     C17     1.383   .     A
N6     Cu16    2.027   .     S
C7     C42     1.485   .     S
C8     C41     1.490   .     S
O9     C13     1.308   .     A
O9     Cu15    1.974   .     S
O10    C14     1.315   .     A
O10    Cu16    1.974   .     S
O11    C14     1.299   .     A
O11    Cu15    1.988   .     S
O12    Cu16    1.988   .     S
O12    C13     1.311   .     A
C13    C37     1.501   .     S
C14    C38     1.497   .     S
Cu15   Cu16    2.697   .     S
C17    N43     1.440   .     S
C17    C536    1.423   1_545 S
C18    N46     1.435   .     S
C18    C277    1.418   .     S
C19    N49     1.432   .     S
C19    C534    1.418   1_545 S
C20    N52     1.433   .     S
C20    C275    1.423   .     S
C21    C71     1.491   .     S
C21    C42     1.414   .     A
C21    C195    1.401   1_455 S
C22    C41     1.416   .     A
C22    C75     1.498   .     S
C22    C110    1.409   .     S
C23    C41     1.413   .     A
C23    C79     1.490   .     S
C23    C107    1.401   .     S
C24    C42     1.410   .     A
C24    C83     1.498   .     S
C24    C194    1.409   1_455 S
C25    H29     1.080   .     S
C25    C39     1.399   .     A
C25    C33     1.394   .     A
C26    C34     1.396   .     A
C26    H30     1.082   .     S
C26    C40     1.402   .     A
C27    H31     1.080   .     S
C27    C35     1.395   .     A
C27    C40     1.399   .     A
C28    H32     1.083   .     S
C28    C39     1.394   .     A
C28    C36     1.397   .     A
C33    C55     1.488   .     S
C33    C37     1.431   .     A
C34    C38     1.417   .     A
C34    C59     1.470   .     S
C35    C38     1.423   .     A
C35    C63     1.481   .     S
C36    C67     1.481   .     S
C36    C37     1.435   .     A
C39    C814    1.489   1_554 S
C40    C813    1.489   .     S
N43    O44     1.294   .     A
N43    O45     1.300   .     A
N46    O48     1.298   .     A
N46    O47     1.294   .     A
N49    O51     1.300   .     A
N49    O50     1.297   .     A
N52    O54     1.300   .     A
N52    O53     1.295   .     A
C55    O56     1.218   .     D
C55    O57     1.399   .     S
O57    H58     1.014   .     S
C59    O60     1.218   .     D
C59    O61     1.398   .     S
O61    H62     1.014   .     S
C63    O65     1.397   .     S
C63    O64     1.224   .     D
O65    H66     1.012   .     S
C67    O68     1.219   .     D
C67    O69     1.399   .     S
O69    H70     1.013   .     S
C71    O73     1.399   .     S
C71    O72     1.219   .     D
O73    H74     1.014   .     S
C75    O76     1.219   .     D
C75    O77     1.396   .     S
O77    H78     1.014   .     S
C79    O80     1.221   .     D
C79    O81     1.395   .     S
O81    H82     1.014   .     S
C83    O84     1.221   .     D
C83    O85     1.399   .     S
O85    H86     1.014   .     S
O87    Cu101   1.971   .     S
O87    C93     1.311   .     A
O88    Cu102   1.971   .     S
O88    C94     1.305   .     A
O89    C94     1.308   .     A
O89    Cu101   1.969   .     S
O90    C93     1.301   .     A
O90    Cu102   1.969   .     S
N91    C106    1.373   .     A
N91    C104    1.382   .     A
N91    Cu101   2.027   .     S
N92    C105    1.367   .     A
N92    C103    1.383   .     A
N92    Cu102   2.027   .     S
C93    C128    1.485   .     S
C94    C127    1.490   .     S
O95    C99     1.308   .     A
O95    Cu101   1.974   .     S
O96    C100    1.315   .     A
O96    Cu102   1.974   .     S
O97    C100    1.299   .     A
O97    Cu101   1.988   .     S
O98    Cu102   1.988   .     S
O98    C99     1.311   .     A
C99    C123    1.501   .     S
C100   C124    1.497   .     S
Cu101  Cu102   2.697   .     S
C103   N129    1.440   .     S
C103   C622    1.423   1_545 S
C104   N132    1.435   .     S
C104   C363    1.418   .     S
C105   N135    1.432   .     S
C105   C620    1.418   1_545 S
C106   N138    1.433   .     S
C106   C361    1.423   .     S
C107   C157    1.491   .     S
C107   C128    1.414   .     A
C108   C127    1.416   .     A
C108   C161    1.498   .     S
C108   C196    1.409   .     S
C109   C127    1.413   .     A
C109   C165    1.490   .     S
C109   C193    1.401   .     S
C110   C128    1.410   .     A
C110   C169    1.498   .     S
C111   H115    1.080   .     S
C111   C125    1.399   .     A
C111   C119    1.394   .     A
C112   C120    1.396   .     A
C112   H116    1.082   .     S
C112   C126    1.402   .     A
C113   H117    1.080   .     S
C113   C121    1.395   .     A
C113   C126    1.399   .     A
C114   H118    1.083   .     S
C114   C125    1.394   .     A
C114   C122    1.397   .     A
C119   C141    1.488   .     S
C119   C123    1.431   .     A
C120   C124    1.417   .     A
C120   C145    1.470   .     S
C121   C124    1.423   .     A
C121   C149    1.481   .     S
C122   C153    1.481   .     S
C122   C123    1.435   .     A
C125   C900    1.489   1_554 S
C126   C899    1.489   .     S
N129   O130    1.294   .     A
N129   O131    1.300   .     A
N132   O134    1.298   .     A
N132   O133    1.294   .     A
N135   O137    1.300   .     A
N135   O136    1.297   .     A
N138   O140    1.300   .     A
N138   O139    1.295   .     A
C141   O142    1.218   .     D
C141   O143    1.399   .     S
O143   H144    1.014   .     S
C145   O146    1.218   .     D
C145   O147    1.398   .     S
O147   H148    1.014   .     S
C149   O151    1.397   .     S
C149   O150    1.224   .     D
O151   H152    1.012   .     S
C153   O154    1.219   .     D
C153   O155    1.399   .     S
O155   H156    1.013   .     S
C157   O159    1.399   .     S
C157   O158    1.219   .     D
O159   H160    1.014   .     S
C161   O162    1.219   .     D
C161   O163    1.396   .     S
O163   H164    1.014   .     S
C165   O166    1.221   .     D
C165   O167    1.395   .     S
O167   H168    1.014   .     S
C169   O170    1.221   .     D
C169   O171    1.399   .     S
O171   H172    1.014   .     S
O173   Cu187   1.971   .     S
O173   C179    1.311   .     A
O174   Cu188   1.971   .     S
O174   C180    1.305   .     A
O175   C180    1.308   .     A
O175   Cu187   1.969   .     S
O176   C179    1.301   .     A
O176   Cu188   1.969   .     S
N177   C192    1.373   .     A
N177   C190    1.382   .     A
N177   Cu187   2.027   .     S
N178   C191    1.367   .     A
N178   C189    1.383   .     A
N178   Cu188   2.027   .     S
C179   C214    1.485   .     S
C180   C213    1.490   .     S
O181   C185    1.308   .     A
O181   Cu187   1.974   .     S
O182   C186    1.315   .     A
O182   Cu188   1.974   .     S
O183   C186    1.299   .     A
O183   Cu187   1.988   .     S
O184   Cu188   1.988   .     S
O184   C185    1.311   .     A
C185   C209    1.501   .     S
C186   C210    1.497   .     S
Cu187  Cu188   2.697   .     S
C189   N215    1.440   .     S
C189   C708    1.423   1_545 S
C190   N218    1.435   .     S
C190   C449    1.418   .     S
C191   N221    1.432   .     S
C191   C706    1.418   1_545 S
C192   N224    1.433   .     S
C192   C447    1.423   .     S
C193   C243    1.491   .     S
C193   C214    1.414   .     A
C194   C213    1.416   .     A
C194   C247    1.498   .     S
C194   C24     1.409   1_655 S
C195   C213    1.413   .     A
C195   C251    1.490   .     S
C195   C21     1.401   1_655 S
C196   C214    1.410   .     A
C196   C255    1.498   .     S
C197   H201    1.080   .     S
C197   C211    1.399   .     A
C197   C205    1.394   .     A
C198   C206    1.396   .     A
C198   H202    1.082   .     S
C198   C212    1.402   .     A
C199   H203    1.080   .     S
C199   C207    1.395   .     A
C199   C212    1.399   .     A
C200   H204    1.083   .     S
C200   C211    1.394   .     A
C200   C208    1.397   .     A
C205   C227    1.488   .     S
C205   C209    1.431   .     A
C206   C210    1.417   .     A
C206   C231    1.470   .     S
C207   C210    1.423   .     A
C207   C235    1.481   .     S
C208   C239    1.481   .     S
C208   C209    1.435   .     A
C211   C986    1.489   1_554 S
C212   C985    1.489   .     S
N215   O216    1.294   .     A
N215   O217    1.300   .     A
N218   O220    1.298   .     A
N218   O219    1.294   .     A
N221   O223    1.300   .     A
N221   O222    1.297   .     A
N224   O226    1.300   .     A
N224   O225    1.295   .     A
C227   O228    1.218   .     D
C227   O229    1.399   .     S
O229   H230    1.014   .     S
C231   O232    1.218   .     D
C231   O233    1.398   .     S
O233   H234    1.014   .     S
C235   O237    1.397   .     S
C235   O236    1.224   .     D
O237   H238    1.012   .     S
C239   O240    1.219   .     D
C239   O241    1.399   .     S
O241   H242    1.013   .     S
C243   O245    1.399   .     S
C243   O244    1.219   .     D
O245   H246    1.014   .     S
C247   O248    1.219   .     D
C247   O249    1.396   .     S
O249   H250    1.014   .     S
C251   O252    1.221   .     D
C251   O253    1.395   .     S
O253   H254    1.014   .     S
C255   O256    1.221   .     D
C255   O257    1.399   .     S
O257   H258    1.014   .     S
O259   Cu273   1.971   .     S
O259   C265    1.311   .     A
O260   Cu274   1.971   .     S
O260   C266    1.305   .     A
O261   C266    1.308   .     A
O261   Cu273   1.969   .     S
O262   C265    1.301   .     A
O262   Cu274   1.969   .     S
N263   C278    1.373   .     A
N263   C276    1.382   .     A
N263   Cu273   2.027   .     S
N264   C277    1.367   .     A
N264   C275    1.383   .     A
N264   Cu274   2.027   .     S
C265   C300    1.485   .     S
C266   C299    1.490   .     S
O267   C271    1.308   .     A
O267   Cu273   1.974   .     S
O268   C272    1.315   .     A
O268   Cu274   1.974   .     S
O269   C272    1.299   .     A
O269   Cu273   1.988   .     S
O270   Cu274   1.988   .     S
O270   C271    1.311   .     A
C271   C295    1.501   .     S
C272   C296    1.497   .     S
Cu273  Cu274   2.697   .     S
C275   N301    1.440   .     S
C276   N304    1.435   .     S
C276   C535    1.418   .     S
C277   N307    1.432   .     S
C278   N310    1.433   .     S
C278   C533    1.423   .     S
C279   C329    1.491   .     S
C279   C300    1.414   .     A
C279   C453    1.401   1_455 S
C280   C299    1.416   .     A
C280   C333    1.498   .     S
C280   C368    1.409   .     S
C281   C299    1.413   .     A
C281   C337    1.490   .     S
C281   C365    1.401   .     S
C282   C300    1.410   .     A
C282   C341    1.498   .     S
C282   C452    1.409   1_455 S
C283   H287    1.080   .     S
C283   C297    1.399   .     A
C283   C291    1.394   .     A
C284   C292    1.396   .     A
C284   H288    1.082   .     S
C284   C298    1.402   .     A
C285   H289    1.080   .     S
C285   C293    1.395   .     A
C285   C298    1.399   .     A
C286   H290    1.083   .     S
C286   C297    1.394   .     A
C286   C294    1.397   .     A
C291   C313    1.488   .     S
C291   C295    1.431   .     A
C292   C296    1.417   .     A
C292   C317    1.470   .     S
C293   C296    1.423   .     A
C293   C321    1.481   .     S
C294   C325    1.481   .     S
C294   C295    1.435   .     A
C297   C1072   1.489   1_554 S
C298   C1071   1.489   .     S
N301   O302    1.294   .     A
N301   O303    1.300   .     A
N304   O306    1.298   .     A
N304   O305    1.294   .     A
N307   O309    1.300   .     A
N307   O308    1.297   .     A
N310   O312    1.300   .     A
N310   O311    1.295   .     A
C313   O314    1.218   .     D
C313   O315    1.399   .     S
O315   H316    1.014   .     S
C317   O318    1.218   .     D
C317   O319    1.398   .     S
O319   H320    1.014   .     S
C321   O323    1.397   .     S
C321   O322    1.224   .     D
O323   H324    1.012   .     S
C325   O326    1.219   .     D
C325   O327    1.399   .     S
O327   H328    1.013   .     S
C329   O331    1.399   .     S
C329   O330    1.219   .     D
O331   H332    1.014   .     S
C333   O334    1.219   .     D
C333   O335    1.396   .     S
O335   H336    1.014   .     S
C337   O338    1.221   .     D
C337   O339    1.395   .     S
O339   H340    1.014   .     S
C341   O342    1.221   .     D
C341   O343    1.399   .     S
O343   H344    1.014   .     S
O345   Cu359   1.971   .     S
O345   C351    1.311   .     A
O346   Cu360   1.971   .     S
O346   C352    1.305   .     A
O347   C352    1.308   .     A
O347   Cu359   1.969   .     S
O348   C351    1.301   .     A
O348   Cu360   1.969   .     S
N349   C364    1.373   .     A
N349   C362    1.382   .     A
N349   Cu359   2.027   .     S
N350   C363    1.367   .     A
N350   C361    1.383   .     A
N350   Cu360   2.027   .     S
C351   C386    1.485   .     S
C352   C385    1.490   .     S
O353   C357    1.308   .     A
O353   Cu359   1.974   .     S
O354   C358    1.315   .     A
O354   Cu360   1.974   .     S
O355   C358    1.299   .     A
O355   Cu359   1.988   .     S
O356   Cu360   1.988   .     S
O356   C357    1.311   .     A
C357   C381    1.501   .     S
C358   C382    1.497   .     S
Cu359  Cu360   2.697   .     S
C361   N387    1.440   .     S
C362   N390    1.435   .     S
C362   C621    1.418   .     S
C363   N393    1.432   .     S
C364   N396    1.433   .     S
C364   C619    1.423   .     S
C365   C415    1.491   .     S
C365   C386    1.414   .     A
C366   C385    1.416   .     A
C366   C419    1.498   .     S
C366   C454    1.409   .     S
C367   C385    1.413   .     A
C367   C423    1.490   .     S
C367   C451    1.401   .     S
C368   C386    1.410   .     A
C368   C427    1.498   .     S
C369   H373    1.080   .     S
C369   C383    1.399   .     A
C369   C377    1.394   .     A
C370   C378    1.396   .     A
C370   H374    1.082   .     S
C370   C384    1.402   .     A
C371   H375    1.080   .     S
C371   C379    1.395   .     A
C371   C384    1.399   .     A
C372   H376    1.083   .     S
C372   C383    1.394   .     A
C372   C380    1.397   .     A
C377   C399    1.488   .     S
C377   C381    1.431   .     A
C378   C382    1.417   .     A
C378   C403    1.470   .     S
C379   C382    1.423   .     A
C379   C407    1.481   .     S
C380   C411    1.481   .     S
C380   C381    1.435   .     A
C383   C1158   1.489   1_554 S
C384   C1157   1.489   .     S
N387   O388    1.294   .     A
N387   O389    1.300   .     A
N390   O392    1.298   .     A
N390   O391    1.294   .     A
N393   O395    1.300   .     A
N393   O394    1.297   .     A
N396   O398    1.300   .     A
N396   O397    1.295   .     A
C399   O400    1.218   .     D
C399   O401    1.399   .     S
O401   H402    1.014   .     S
C403   O404    1.218   .     D
C403   O405    1.398   .     S
O405   H406    1.014   .     S
C407   O409    1.397   .     S
C407   O408    1.224   .     D
O409   H410    1.012   .     S
C411   O412    1.219   .     D
C411   O413    1.399   .     S
O413   H414    1.013   .     S
C415   O417    1.399   .     S
C415   O416    1.219   .     D
O417   H418    1.014   .     S
C419   O420    1.219   .     D
C419   O421    1.396   .     S
O421   H422    1.014   .     S
C423   O424    1.221   .     D
C423   O425    1.395   .     S
O425   H426    1.014   .     S
C427   O428    1.221   .     D
C427   O429    1.399   .     S
O429   H430    1.014   .     S
O431   Cu445   1.971   .     S
O431   C437    1.311   .     A
O432   Cu446   1.971   .     S
O432   C438    1.305   .     A
O433   C438    1.308   .     A
O433   Cu445   1.969   .     S
O434   C437    1.301   .     A
O434   Cu446   1.969   .     S
N435   C450    1.373   .     A
N435   C448    1.382   .     A
N435   Cu445   2.027   .     S
N436   C449    1.367   .     A
N436   C447    1.383   .     A
N436   Cu446   2.027   .     S
C437   C472    1.485   .     S
C438   C471    1.490   .     S
O439   C443    1.308   .     A
O439   Cu445   1.974   .     S
O440   C444    1.315   .     A
O440   Cu446   1.974   .     S
O441   C444    1.299   .     A
O441   Cu445   1.988   .     S
O442   Cu446   1.988   .     S
O442   C443    1.311   .     A
C443   C467    1.501   .     S
C444   C468    1.497   .     S
Cu445  Cu446   2.697   .     S
C447   N473    1.440   .     S
C448   N476    1.435   .     S
C448   C707    1.418   .     S
C449   N479    1.432   .     S
C450   N482    1.433   .     S
C450   C705    1.423   .     S
C451   C501    1.491   .     S
C451   C472    1.414   .     A
C452   C471    1.416   .     A
C452   C505    1.498   .     S
C452   C282    1.409   1_655 S
C453   C471    1.413   .     A
C453   C509    1.490   .     S
C453   C279    1.401   1_655 S
C454   C472    1.410   .     A
C454   C513    1.498   .     S
C455   H459    1.080   .     S
C455   C469    1.399   .     A
C455   C463    1.394   .     A
C456   C464    1.396   .     A
C456   H460    1.082   .     S
C456   C470    1.402   .     A
C457   H461    1.080   .     S
C457   C465    1.395   .     A
C457   C470    1.399   .     A
C458   H462    1.083   .     S
C458   C469    1.394   .     A
C458   C466    1.397   .     A
C463   C485    1.488   .     S
C463   C467    1.431   .     A
C464   C468    1.417   .     A
C464   C489    1.470   .     S
C465   C468    1.423   .     A
C465   C493    1.481   .     S
C466   C497    1.481   .     S
C466   C467    1.435   .     A
C469   C1244   1.489   1_554 S
C470   C1243   1.489   .     S
N473   O474    1.294   .     A
N473   O475    1.300   .     A
N476   O478    1.298   .     A
N476   O477    1.294   .     A
N479   O481    1.300   .     A
N479   O480    1.297   .     A
N482   O484    1.300   .     A
N482   O483    1.295   .     A
C485   O486    1.218   .     D
C485   O487    1.399   .     S
O487   H488    1.014   .     S
C489   O490    1.218   .     D
C489   O491    1.398   .     S
O491   H492    1.014   .     S
C493   O495    1.397   .     S
C493   O494    1.224   .     D
O495   H496    1.012   .     S
C497   O498    1.219   .     D
C497   O499    1.399   .     S
O499   H500    1.013   .     S
C501   O503    1.399   .     S
C501   O502    1.219   .     D
O503   H504    1.014   .     S
C505   O506    1.219   .     D
C505   O507    1.396   .     S
O507   H508    1.014   .     S
C509   O510    1.221   .     D
C509   O511    1.395   .     S
O511   H512    1.014   .     S
C513   O514    1.221   .     D
C513   O515    1.399   .     S
O515   H516    1.014   .     S
O517   Cu531   1.971   .     S
O517   C523    1.311   .     A
O518   Cu532   1.971   .     S
O518   C524    1.305   .     A
O519   C524    1.308   .     A
O519   Cu531   1.969   .     S
O520   C523    1.301   .     A
O520   Cu532   1.969   .     S
N521   C536    1.373   .     A
N521   C534    1.382   .     A
N521   Cu531   2.027   .     S
N522   C535    1.367   .     A
N522   C533    1.383   .     A
N522   Cu532   2.027   .     S
C523   C558    1.485   .     S
C524   C557    1.490   .     S
O525   C529    1.308   .     A
O525   Cu531   1.974   .     S
O526   C530    1.315   .     A
O526   Cu532   1.974   .     S
O527   C530    1.299   .     A
O527   Cu531   1.988   .     S
O528   Cu532   1.988   .     S
O528   C529    1.311   .     A
C529   C553    1.501   .     S
C530   C554    1.497   .     S
Cu531  Cu532   2.697   .     S
C533   N559    1.440   .     S
C534   N562    1.435   .     S
C534   C19     1.418   1_565 S
C535   N565    1.432   .     S
C536   N568    1.433   .     S
C536   C17     1.423   1_565 S
C537   C587    1.491   .     S
C537   C558    1.414   .     A
C537   C711    1.401   1_455 S
C538   C557    1.416   .     A
C538   C591    1.498   .     S
C538   C626    1.409   .     S
C539   C557    1.413   .     A
C539   C595    1.490   .     S
C539   C623    1.401   .     S
C540   C558    1.410   .     A
C540   C599    1.498   .     S
C540   C710    1.409   1_455 S
C541   H545    1.080   .     S
C541   C555    1.399   .     A
C541   C549    1.394   .     A
C542   C550    1.396   .     A
C542   H546    1.082   .     S
C542   C556    1.402   .     A
C543   H547    1.080   .     S
C543   C551    1.395   .     A
C543   C556    1.399   .     A
C544   H548    1.083   .     S
C544   C555    1.394   .     A
C544   C552    1.397   .     A
C549   C571    1.488   .     S
C549   C553    1.431   .     A
C550   C554    1.417   .     A
C550   C575    1.470   .     S
C551   C554    1.423   .     A
C551   C579    1.481   .     S
C552   C583    1.481   .     S
C552   C553    1.435   .     A
C555   C1330   1.489   1_554 S
C556   C1329   1.489   .     S
N559   O560    1.294   .     A
N559   O561    1.300   .     A
N562   O564    1.298   .     A
N562   O563    1.294   .     A
N565   O567    1.300   .     A
N565   O566    1.297   .     A
N568   O570    1.300   .     A
N568   O569    1.295   .     A
C571   O572    1.218   .     D
C571   O573    1.399   .     S
O573   H574    1.014   .     S
C575   O576    1.218   .     D
C575   O577    1.398   .     S
O577   H578    1.014   .     S
C579   O581    1.397   .     S
C579   O580    1.224   .     D
O581   H582    1.012   .     S
C583   O584    1.219   .     D
C583   O585    1.399   .     S
O585   H586    1.013   .     S
C587   O589    1.399   .     S
C587   O588    1.219   .     D
O589   H590    1.014   .     S
C591   O592    1.219   .     D
C591   O593    1.396   .     S
O593   H594    1.014   .     S
C595   O596    1.221   .     D
C595   O597    1.395   .     S
O597   H598    1.014   .     S
C599   O600    1.221   .     D
C599   O601    1.399   .     S
O601   H602    1.014   .     S
O603   Cu617   1.971   .     S
O603   C609    1.311   .     A
O604   Cu618   1.971   .     S
O604   C610    1.305   .     A
O605   C610    1.308   .     A
O605   Cu617   1.969   .     S
O606   C609    1.301   .     A
O606   Cu618   1.969   .     S
N607   C622    1.373   .     A
N607   C620    1.382   .     A
N607   Cu617   2.027   .     S
N608   C621    1.367   .     A
N608   C619    1.383   .     A
N608   Cu618   2.027   .     S
C609   C644    1.485   .     S
C610   C643    1.490   .     S
O611   C615    1.308   .     A
O611   Cu617   1.974   .     S
O612   C616    1.315   .     A
O612   Cu618   1.974   .     S
O613   C616    1.299   .     A
O613   Cu617   1.988   .     S
O614   Cu618   1.988   .     S
O614   C615    1.311   .     A
C615   C639    1.501   .     S
C616   C640    1.497   .     S
Cu617  Cu618   2.697   .     S
C619   N645    1.440   .     S
C620   N648    1.435   .     S
C620   C105    1.418   1_565 S
C621   N651    1.432   .     S
C622   N654    1.433   .     S
C622   C103    1.423   1_565 S
C623   C673    1.491   .     S
C623   C644    1.414   .     A
C624   C643    1.416   .     A
C624   C677    1.498   .     S
C624   C712    1.409   .     S
C625   C643    1.413   .     A
C625   C681    1.490   .     S
C625   C709    1.401   .     S
C626   C644    1.410   .     A
C626   C685    1.498   .     S
C627   H631    1.080   .     S
C627   C641    1.399   .     A
C627   C635    1.394   .     A
C628   C636    1.396   .     A
C628   H632    1.082   .     S
C628   C642    1.402   .     A
C629   H633    1.080   .     S
C629   C637    1.395   .     A
C629   C642    1.399   .     A
C630   H634    1.083   .     S
C630   C641    1.394   .     A
C630   C638    1.397   .     A
C635   C657    1.488   .     S
C635   C639    1.431   .     A
C636   C640    1.417   .     A
C636   C661    1.470   .     S
C637   C640    1.423   .     A
C637   C665    1.481   .     S
C638   C669    1.481   .     S
C638   C639    1.435   .     A
C641   C1416   1.489   1_554 S
C642   C1415   1.489   .     S
N645   O646    1.294   .     A
N645   O647    1.300   .     A
N648   O650    1.298   .     A
N648   O649    1.294   .     A
N651   O653    1.300   .     A
N651   O652    1.297   .     A
N654   O656    1.300   .     A
N654   O655    1.295   .     A
C657   O658    1.218   .     D
C657   O659    1.399   .     S
O659   H660    1.014   .     S
C661   O662    1.218   .     D
C661   O663    1.398   .     S
O663   H664    1.014   .     S
C665   O667    1.397   .     S
C665   O666    1.224   .     D
O667   H668    1.012   .     S
C669   O670    1.219   .     D
C669   O671    1.399   .     S
O671   H672    1.013   .     S
C673   O675    1.399   .     S
C673   O674    1.219   .     D
O675   H676    1.014   .     S
C677   O678    1.219   .     D
C677   O679    1.396   .     S
O679   H680    1.014   .     S
C681   O682    1.221   .     D
C681   O683    1.395   .     S
O683   H684    1.014   .     S
C685   O686    1.221   .     D
C685   O687    1.399   .     S
O687   H688    1.014   .     S
O689   Cu703   1.971   .     S
O689   C695    1.311   .     A
O690   Cu704   1.971   .     S
O690   C696    1.305   .     A
O691   C696    1.308   .     A
O691   Cu703   1.969   .     S
O692   C695    1.301   .     A
O692   Cu704   1.969   .     S
N693   C708    1.373   .     A
N693   C706    1.382   .     A
N693   Cu703   2.027   .     S
N694   C707    1.367   .     A
N694   C705    1.383   .     A
N694   Cu704   2.027   .     S
C695   C730    1.485   .     S
C696   C729    1.490   .     S
O697   C701    1.308   .     A
O697   Cu703   1.974   .     S
O698   C702    1.315   .     A
O698   Cu704   1.974   .     S
O699   C702    1.299   .     A
O699   Cu703   1.988   .     S
O700   Cu704   1.988   .     S
O700   C701    1.311   .     A
C701   C725    1.501   .     S
C702   C726    1.497   .     S
Cu703  Cu704   2.697   .     S
C705   N731    1.440   .     S
C706   N734    1.435   .     S
C706   C191    1.418   1_565 S
C707   N737    1.432   .     S
C708   N740    1.433   .     S
C708   C189    1.423   1_565 S
C709   C759    1.491   .     S
C709   C730    1.414   .     A
C710   C729    1.416   .     A
C710   C763    1.498   .     S
C710   C540    1.409   1_655 S
C711   C729    1.413   .     A
C711   C767    1.490   .     S
C711   C537    1.401   1_655 S
C712   C730    1.410   .     A
C712   C771    1.498   .     S
C713   H717    1.080   .     S
C713   C727    1.399   .     A
C713   C721    1.394   .     A
C714   C722    1.396   .     A
C714   H718    1.082   .     S
C714   C728    1.402   .     A
C715   H719    1.080   .     S
C715   C723    1.395   .     A
C715   C728    1.399   .     A
C716   H720    1.083   .     S
C716   C727    1.394   .     A
C716   C724    1.397   .     A
C721   C743    1.488   .     S
C721   C725    1.431   .     A
C722   C726    1.417   .     A
C722   C747    1.470   .     S
C723   C726    1.423   .     A
C723   C751    1.481   .     S
C724   C755    1.481   .     S
C724   C725    1.435   .     A
C727   C1502   1.489   1_554 S
C728   C1501   1.489   .     S
N731   O732    1.294   .     A
N731   O733    1.300   .     A
N734   O736    1.298   .     A
N734   O735    1.294   .     A
N737   O739    1.300   .     A
N737   O738    1.297   .     A
N740   O742    1.300   .     A
N740   O741    1.295   .     A
C743   O744    1.218   .     D
C743   O745    1.399   .     S
O745   H746    1.014   .     S
C747   O748    1.218   .     D
C747   O749    1.398   .     S
O749   H750    1.014   .     S
C751   O753    1.397   .     S
C751   O752    1.224   .     D
O753   H754    1.012   .     S
C755   O756    1.219   .     D
C755   O757    1.399   .     S
O757   H758    1.013   .     S
C759   O761    1.399   .     S
C759   O760    1.219   .     D
O761   H762    1.014   .     S
C763   O764    1.219   .     D
C763   O765    1.396   .     S
O765   H766    1.014   .     S
C767   O768    1.221   .     D
C767   O769    1.395   .     S
O769   H770    1.014   .     S
C771   O772    1.221   .     D
C771   O773    1.399   .     S
O773   H774    1.014   .     S
O775   Cu789   1.971   .     S
O775   C781    1.311   .     A
O776   Cu790   1.971   .     S
O776   C782    1.305   .     A
O777   C782    1.308   .     A
O777   Cu789   1.969   .     S
O778   C781    1.301   .     A
O778   Cu790   1.969   .     S
N779   C794    1.373   .     A
N779   C792    1.382   .     A
N779   Cu789   2.027   .     S
N780   C793    1.367   .     A
N780   C791    1.383   .     A
N780   Cu790   2.027   .     S
C781   C816    1.485   .     S
C782   C815    1.490   .     S
O783   C787    1.308   .     A
O783   Cu789   1.974   .     S
O784   C788    1.315   .     A
O784   Cu790   1.974   .     S
O785   C788    1.299   .     A
O785   Cu789   1.988   .     S
O786   Cu790   1.988   .     S
O786   C787    1.311   .     A
C787   C811    1.501   .     S
C788   C812    1.497   .     S
Cu789  Cu790   2.697   .     S
C791   N817    1.440   .     S
C791   C1310   1.423   1_545 S
C792   N820    1.435   .     S
C792   C1051   1.418   .     S
C793   N823    1.432   .     S
C793   C1308   1.418   1_545 S
C794   N826    1.433   .     S
C794   C1049   1.423   .     S
C795   C845    1.491   .     S
C795   C816    1.414   .     A
C795   C969    1.401   1_455 S
C796   C815    1.416   .     A
C796   C849    1.498   .     S
C796   C884    1.409   .     S
C797   C815    1.413   .     A
C797   C853    1.490   .     S
C797   C881    1.401   .     S
C798   C816    1.410   .     A
C798   C857    1.498   .     S
C798   C968    1.409   1_455 S
C799   H803    1.080   .     S
C799   C813    1.399   .     A
C799   C807    1.394   .     A
C800   C808    1.396   .     A
C800   H804    1.082   .     S
C800   C814    1.402   .     A
C801   H805    1.080   .     S
C801   C809    1.395   .     A
C801   C814    1.399   .     A
C802   H806    1.083   .     S
C802   C813    1.394   .     A
C802   C810    1.397   .     A
C807   C829    1.488   .     S
C807   C811    1.431   .     A
C808   C812    1.417   .     A
C808   C833    1.470   .     S
C809   C812    1.423   .     A
C809   C837    1.481   .     S
C810   C841    1.481   .     S
C810   C811    1.435   .     A
C814   C39     1.489   1_556 S
N817   O818    1.294   .     A
N817   O819    1.300   .     A
N820   O822    1.298   .     A
N820   O821    1.294   .     A
N823   O825    1.300   .     A
N823   O824    1.297   .     A
N826   O828    1.300   .     A
N826   O827    1.295   .     A
C829   O830    1.218   .     D
C829   O831    1.399   .     S
O831   H832    1.014   .     S
C833   O834    1.218   .     D
C833   O835    1.398   .     S
O835   H836    1.014   .     S
C837   O839    1.397   .     S
C837   O838    1.224   .     D
O839   H840    1.012   .     S
C841   O842    1.219   .     D
C841   O843    1.399   .     S
O843   H844    1.013   .     S
C845   O847    1.399   .     S
C845   O846    1.219   .     D
O847   H848    1.014   .     S
C849   O850    1.219   .     D
C849   O851    1.396   .     S
O851   H852    1.014   .     S
C853   O854    1.221   .     D
C853   O855    1.395   .     S
O855   H856    1.014   .     S
C857   O858    1.221   .     D
C857   O859    1.399   .     S
O859   H860    1.014   .     S
O861   Cu875   1.971   .     S
O861   C867    1.311   .     A
O862   Cu876   1.971   .     S
O862   C868    1.305   .     A
O863   C868    1.308   .     A
O863   Cu875   1.969   .     S
O864   C867    1.301   .     A
O864   Cu876   1.969   .     S
N865   C880    1.373   .     A
N865   C878    1.382   .     A
N865   Cu875   2.027   .     S
N866   C879    1.367   .     A
N866   C877    1.383   .     A
N866   Cu876   2.027   .     S
C867   C902    1.485   .     S
C868   C901    1.490   .     S
O869   C873    1.308   .     A
O869   Cu875   1.974   .     S
O870   C874    1.315   .     A
O870   Cu876   1.974   .     S
O871   C874    1.299   .     A
O871   Cu875   1.988   .     S
O872   Cu876   1.988   .     S
O872   C873    1.311   .     A
C873   C897    1.501   .     S
C874   C898    1.497   .     S
Cu875  Cu876   2.697   .     S
C877   N903    1.440   .     S
C877   C1396   1.423   1_545 S
C878   N906    1.435   .     S
C878   C1137   1.418   .     S
C879   N909    1.432   .     S
C879   C1394   1.418   1_545 S
C880   N912    1.433   .     S
C880   C1135   1.423   .     S
C881   C931    1.491   .     S
C881   C902    1.414   .     A
C882   C901    1.416   .     A
C882   C935    1.498   .     S
C882   C970    1.409   .     S
C883   C901    1.413   .     A
C883   C939    1.490   .     S
C883   C967    1.401   .     S
C884   C902    1.410   .     A
C884   C943    1.498   .     S
C885   H889    1.080   .     S
C885   C899    1.399   .     A
C885   C893    1.394   .     A
C886   C894    1.396   .     A
C886   H890    1.082   .     S
C886   C900    1.402   .     A
C887   H891    1.080   .     S
C887   C895    1.395   .     A
C887   C900    1.399   .     A
C888   H892    1.083   .     S
C888   C899    1.394   .     A
C888   C896    1.397   .     A
C893   C915    1.488   .     S
C893   C897    1.431   .     A
C894   C898    1.417   .     A
C894   C919    1.470   .     S
C895   C898    1.423   .     A
C895   C923    1.481   .     S
C896   C927    1.481   .     S
C896   C897    1.435   .     A
C900   C125    1.489   1_556 S
N903   O904    1.294   .     A
N903   O905    1.300   .     A
N906   O908    1.298   .     A
N906   O907    1.294   .     A
N909   O911    1.300   .     A
N909   O910    1.297   .     A
N912   O914    1.300   .     A
N912   O913    1.295   .     A
C915   O916    1.218   .     D
C915   O917    1.399   .     S
O917   H918    1.014   .     S
C919   O920    1.218   .     D
C919   O921    1.398   .     S
O921   H922    1.014   .     S
C923   O925    1.397   .     S
C923   O924    1.224   .     D
O925   H926    1.012   .     S
C927   O928    1.219   .     D
C927   O929    1.399   .     S
O929   H930    1.013   .     S
C931   O933    1.399   .     S
C931   O932    1.219   .     D
O933   H934    1.014   .     S
C935   O936    1.219   .     D
C935   O937    1.396   .     S
O937   H938    1.014   .     S
C939   O940    1.221   .     D
C939   O941    1.395   .     S
O941   H942    1.014   .     S
C943   O944    1.221   .     D
C943   O945    1.399   .     S
O945   H946    1.014   .     S
O947   Cu961   1.971   .     S
O947   C953    1.311   .     A
O948   Cu962   1.971   .     S
O948   C954    1.305   .     A
O949   C954    1.308   .     A
O949   Cu961   1.969   .     S
O950   C953    1.301   .     A
O950   Cu962   1.969   .     S
N951   C966    1.373   .     A
N951   C964    1.382   .     A
N951   Cu961   2.027   .     S
N952   C965    1.367   .     A
N952   C963    1.383   .     A
N952   Cu962   2.027   .     S
C953   C988    1.485   .     S
C954   C987    1.490   .     S
O955   C959    1.308   .     A
O955   Cu961   1.974   .     S
O956   C960    1.315   .     A
O956   Cu962   1.974   .     S
O957   C960    1.299   .     A
O957   Cu961   1.988   .     S
O958   Cu962   1.988   .     S
O958   C959    1.311   .     A
C959   C983    1.501   .     S
C960   C984    1.497   .     S
Cu961  Cu962   2.697   .     S
C963   N989    1.440   .     S
C963   C1482   1.423   1_545 S
C964   N992    1.435   .     S
C964   C1223   1.418   .     S
C965   N995    1.432   .     S
C965   C1480   1.418   1_545 S
C966   N998    1.433   .     S
C966   C1221   1.423   .     S
C967   C1017   1.491   .     S
C967   C988    1.414   .     A
C968   C987    1.416   .     A
C968   C1021   1.498   .     S
C968   C798    1.409   1_655 S
C969   C987    1.413   .     A
C969   C1025   1.490   .     S
C969   C795    1.401   1_655 S
C970   C988    1.410   .     A
C970   C1029   1.498   .     S
C971   H975    1.080   .     S
C971   C985    1.399   .     A
C971   C979    1.394   .     A
C972   C980    1.396   .     A
C972   H976    1.082   .     S
C972   C986    1.402   .     A
C973   H977    1.080   .     S
C973   C981    1.395   .     A
C973   C986    1.399   .     A
C974   H978    1.083   .     S
C974   C985    1.394   .     A
C974   C982    1.397   .     A
C979   C1001   1.488   .     S
C979   C983    1.431   .     A
C980   C984    1.417   .     A
C980   C1005   1.470   .     S
C981   C984    1.423   .     A
C981   C1009   1.481   .     S
C982   C1013   1.481   .     S
C982   C983    1.435   .     A
C986   C211    1.489   1_556 S
N989   O990    1.294   .     A
N989   O991    1.300   .     A
N992   O994    1.298   .     A
N992   O993    1.294   .     A
N995   O997    1.300   .     A
N995   O996    1.297   .     A
N998   O1000   1.300   .     A
N998   O999    1.295   .     A
C1001  O1002   1.218   .     D
C1001  O1003   1.399   .     S
O1003  H1004   1.014   .     S
C1005  O1006   1.218   .     D
C1005  O1007   1.398   .     S
O1007  H1008   1.014   .     S
C1009  O1011   1.397   .     S
C1009  O1010   1.224   .     D
O1011  H1012   1.012   .     S
C1013  O1014   1.219   .     D
C1013  O1015   1.399   .     S
O1015  H1016   1.013   .     S
C1017  O1019   1.399   .     S
C1017  O1018   1.219   .     D
O1019  H1020   1.014   .     S
C1021  O1022   1.219   .     D
C1021  O1023   1.396   .     S
O1023  H1024   1.014   .     S
C1025  O1026   1.221   .     D
C1025  O1027   1.395   .     S
O1027  H1028   1.014   .     S
C1029  O1030   1.221   .     D
C1029  O1031   1.399   .     S
O1031  H1032   1.014   .     S
O1033  Cu1047  1.971   .     S
O1033  C1039   1.311   .     A
O1034  Cu1048  1.971   .     S
O1034  C1040   1.305   .     A
O1035  C1040   1.308   .     A
O1035  Cu1047  1.969   .     S
O1036  C1039   1.301   .     A
O1036  Cu1048  1.969   .     S
N1037  C1052   1.373   .     A
N1037  C1050   1.382   .     A
N1037  Cu1047  2.027   .     S
N1038  C1051   1.367   .     A
N1038  C1049   1.383   .     A
N1038  Cu1048  2.027   .     S
C1039  C1074   1.485   .     S
C1040  C1073   1.490   .     S
O1041  C1045   1.308   .     A
O1041  Cu1047  1.974   .     S
O1042  C1046   1.315   .     A
O1042  Cu1048  1.974   .     S
O1043  C1046   1.299   .     A
O1043  Cu1047  1.988   .     S
O1044  Cu1048  1.988   .     S
O1044  C1045   1.311   .     A
C1045  C1069   1.501   .     S
C1046  C1070   1.497   .     S
Cu1047 Cu1048  2.697   .     S
C1049  N1075   1.440   .     S
C1050  N1078   1.435   .     S
C1050  C1309   1.418   .     S
C1051  N1081   1.432   .     S
C1052  N1084   1.433   .     S
C1052  C1307   1.423   .     S
C1053  C1103   1.491   .     S
C1053  C1074   1.414   .     A
C1053  C1227   1.401   1_455 S
C1054  C1073   1.416   .     A
C1054  C1107   1.498   .     S
C1054  C1142   1.409   .     S
C1055  C1073   1.413   .     A
C1055  C1111   1.490   .     S
C1055  C1139   1.401   .     S
C1056  C1074   1.410   .     A
C1056  C1115   1.498   .     S
C1056  C1226   1.409   1_455 S
C1057  H1061   1.080   .     S
C1057  C1071   1.399   .     A
C1057  C1065   1.394   .     A
C1058  C1066   1.396   .     A
C1058  H1062   1.082   .     S
C1058  C1072   1.402   .     A
C1059  H1063   1.080   .     S
C1059  C1067   1.395   .     A
C1059  C1072   1.399   .     A
C1060  H1064   1.083   .     S
C1060  C1071   1.394   .     A
C1060  C1068   1.397   .     A
C1065  C1087   1.488   .     S
C1065  C1069   1.431   .     A
C1066  C1070   1.417   .     A
C1066  C1091   1.470   .     S
C1067  C1070   1.423   .     A
C1067  C1095   1.481   .     S
C1068  C1099   1.481   .     S
C1068  C1069   1.435   .     A
C1072  C297    1.489   1_556 S
N1075  O1076   1.294   .     A
N1075  O1077   1.300   .     A
N1078  O1080   1.298   .     A
N1078  O1079   1.294   .     A
N1081  O1083   1.300   .     A
N1081  O1082   1.297   .     A
N1084  O1086   1.300   .     A
N1084  O1085   1.295   .     A
C1087  O1088   1.218   .     D
C1087  O1089   1.399   .     S
O1089  H1090   1.014   .     S
C1091  O1092   1.218   .     D
C1091  O1093   1.398   .     S
O1093  H1094   1.014   .     S
C1095  O1097   1.397   .     S
C1095  O1096   1.224   .     D
O1097  H1098   1.012   .     S
C1099  O1100   1.219   .     D
C1099  O1101   1.399   .     S
O1101  H1102   1.013   .     S
C1103  O1105   1.399   .     S
C1103  O1104   1.219   .     D
O1105  H1106   1.014   .     S
C1107  O1108   1.219   .     D
C1107  O1109   1.396   .     S
O1109  H1110   1.014   .     S
C1111  O1112   1.221   .     D
C1111  O1113   1.395   .     S
O1113  H1114   1.014   .     S
C1115  O1116   1.221   .     D
C1115  O1117   1.399   .     S
O1117  H1118   1.014   .     S
O1119  Cu1133  1.971   .     S
O1119  C1125   1.311   .     A
O1120  Cu1134  1.971   .     S
O1120  C1126   1.305   .     A
O1121  C1126   1.308   .     A
O1121  Cu1133  1.969   .     S
O1122  C1125   1.301   .     A
O1122  Cu1134  1.969   .     S
N1123  C1138   1.373   .     A
N1123  C1136   1.382   .     A
N1123  Cu1133  2.027   .     S
N1124  C1137   1.367   .     A
N1124  C1135   1.383   .     A
N1124  Cu1134  2.027   .     S
C1125  C1160   1.485   .     S
C1126  C1159   1.490   .     S
O1127  C1131   1.308   .     A
O1127  Cu1133  1.974   .     S
O1128  C1132   1.315   .     A
O1128  Cu1134  1.974   .     S
O1129  C1132   1.299   .     A
O1129  Cu1133  1.988   .     S
O1130  Cu1134  1.988   .     S
O1130  C1131   1.311   .     A
C1131  C1155   1.501   .     S
C1132  C1156   1.497   .     S
Cu1133 Cu1134  2.697   .     S
C1135  N1161   1.440   .     S
C1136  N1164   1.435   .     S
C1136  C1395   1.418   .     S
C1137  N1167   1.432   .     S
C1138  N1170   1.433   .     S
C1138  C1393   1.423   .     S
C1139  C1189   1.491   .     S
C1139  C1160   1.414   .     A
C1140  C1159   1.416   .     A
C1140  C1193   1.498   .     S
C1140  C1228   1.409   .     S
C1141  C1159   1.413   .     A
C1141  C1197   1.490   .     S
C1141  C1225   1.401   .     S
C1142  C1160   1.410   .     A
C1142  C1201   1.498   .     S
C1143  H1147   1.080   .     S
C1143  C1157   1.399   .     A
C1143  C1151   1.394   .     A
C1144  C1152   1.396   .     A
C1144  H1148   1.082   .     S
C1144  C1158   1.402   .     A
C1145  H1149   1.080   .     S
C1145  C1153   1.395   .     A
C1145  C1158   1.399   .     A
C1146  H1150   1.083   .     S
C1146  C1157   1.394   .     A
C1146  C1154   1.397   .     A
C1151  C1173   1.488   .     S
C1151  C1155   1.431   .     A
C1152  C1156   1.417   .     A
C1152  C1177   1.470   .     S
C1153  C1156   1.423   .     A
C1153  C1181   1.481   .     S
C1154  C1185   1.481   .     S
C1154  C1155   1.435   .     A
C1158  C383    1.489   1_556 S
N1161  O1162   1.294   .     A
N1161  O1163   1.300   .     A
N1164  O1166   1.298   .     A
N1164  O1165   1.294   .     A
N1167  O1169   1.300   .     A
N1167  O1168   1.297   .     A
N1170  O1172   1.300   .     A
N1170  O1171   1.295   .     A
C1173  O1174   1.218   .     D
C1173  O1175   1.399   .     S
O1175  H1176   1.014   .     S
C1177  O1178   1.218   .     D
C1177  O1179   1.398   .     S
O1179  H1180   1.014   .     S
C1181  O1183   1.397   .     S
C1181  O1182   1.224   .     D
O1183  H1184   1.012   .     S
C1185  O1186   1.219   .     D
C1185  O1187   1.399   .     S
O1187  H1188   1.013   .     S
C1189  O1191   1.399   .     S
C1189  O1190   1.219   .     D
O1191  H1192   1.014   .     S
C1193  O1194   1.219   .     D
C1193  O1195   1.396   .     S
O1195  H1196   1.014   .     S
C1197  O1198   1.221   .     D
C1197  O1199   1.395   .     S
O1199  H1200   1.014   .     S
C1201  O1202   1.221   .     D
C1201  O1203   1.399   .     S
O1203  H1204   1.014   .     S
O1205  Cu1219  1.971   .     S
O1205  C1211   1.311   .     A
O1206  Cu1220  1.971   .     S
O1206  C1212   1.305   .     A
O1207  C1212   1.308   .     A
O1207  Cu1219  1.969   .     S
O1208  C1211   1.301   .     A
O1208  Cu1220  1.969   .     S
N1209  C1224   1.373   .     A
N1209  C1222   1.382   .     A
N1209  Cu1219  2.027   .     S
N1210  C1223   1.367   .     A
N1210  C1221   1.383   .     A
N1210  Cu1220  2.027   .     S
C1211  C1246   1.485   .     S
C1212  C1245   1.490   .     S
O1213  C1217   1.308   .     A
O1213  Cu1219  1.974   .     S
O1214  C1218   1.315   .     A
O1214  Cu1220  1.974   .     S
O1215  C1218   1.299   .     A
O1215  Cu1219  1.988   .     S
O1216  Cu1220  1.988   .     S
O1216  C1217   1.311   .     A
C1217  C1241   1.501   .     S
C1218  C1242   1.497   .     S
Cu1219 Cu1220  2.697   .     S
C1221  N1247   1.440   .     S
C1222  N1250   1.435   .     S
C1222  C1481   1.418   .     S
C1223  N1253   1.432   .     S
C1224  N1256   1.433   .     S
C1224  C1479   1.423   .     S
C1225  C1275   1.491   .     S
C1225  C1246   1.414   .     A
C1226  C1245   1.416   .     A
C1226  C1279   1.498   .     S
C1226  C1056   1.409   1_655 S
C1227  C1245   1.413   .     A
C1227  C1283   1.490   .     S
C1227  C1053   1.401   1_655 S
C1228  C1246   1.410   .     A
C1228  C1287   1.498   .     S
C1229  H1233   1.080   .     S
C1229  C1243   1.399   .     A
C1229  C1237   1.394   .     A
C1230  C1238   1.396   .     A
C1230  H1234   1.082   .     S
C1230  C1244   1.402   .     A
C1231  H1235   1.080   .     S
C1231  C1239   1.395   .     A
C1231  C1244   1.399   .     A
C1232  H1236   1.083   .     S
C1232  C1243   1.394   .     A
C1232  C1240   1.397   .     A
C1237  C1259   1.488   .     S
C1237  C1241   1.431   .     A
C1238  C1242   1.417   .     A
C1238  C1263   1.470   .     S
C1239  C1242   1.423   .     A
C1239  C1267   1.481   .     S
C1240  C1271   1.481   .     S
C1240  C1241   1.435   .     A
C1244  C469    1.489   1_556 S
N1247  O1248   1.294   .     A
N1247  O1249   1.300   .     A
N1250  O1252   1.298   .     A
N1250  O1251   1.294   .     A
N1253  O1255   1.300   .     A
N1253  O1254   1.297   .     A
N1256  O1258   1.300   .     A
N1256  O1257   1.295   .     A
C1259  O1260   1.218   .     D
C1259  O1261   1.399   .     S
O1261  H1262   1.014   .     S
C1263  O1264   1.218   .     D
C1263  O1265   1.398   .     S
O1265  H1266   1.014   .     S
C1267  O1269   1.397   .     S
C1267  O1268   1.224   .     D
O1269  H1270   1.012   .     S
C1271  O1272   1.219   .     D
C1271  O1273   1.399   .     S
O1273  H1274   1.013   .     S
C1275  O1277   1.399   .     S
C1275  O1276   1.219   .     D
O1277  H1278   1.014   .     S
C1279  O1280   1.219   .     D
C1279  O1281   1.396   .     S
O1281  H1282   1.014   .     S
C1283  O1284   1.221   .     D
C1283  O1285   1.395   .     S
O1285  H1286   1.014   .     S
C1287  O1288   1.221   .     D
C1287  O1289   1.399   .     S
O1289  H1290   1.014   .     S
O1291  Cu1305  1.971   .     S
O1291  C1297   1.311   .     A
O1292  Cu1306  1.971   .     S
O1292  C1298   1.305   .     A
O1293  C1298   1.308   .     A
O1293  Cu1305  1.969   .     S
O1294  C1297   1.301   .     A
O1294  Cu1306  1.969   .     S
N1295  C1310   1.373   .     A
N1295  C1308   1.382   .     A
N1295  Cu1305  2.027   .     S
N1296  C1309   1.367   .     A
N1296  C1307   1.383   .     A
N1296  Cu1306  2.027   .     S
C1297  C1332   1.485   .     S
C1298  C1331   1.490   .     S
O1299  C1303   1.308   .     A
O1299  Cu1305  1.974   .     S
O1300  C1304   1.315   .     A
O1300  Cu1306  1.974   .     S
O1301  C1304   1.299   .     A
O1301  Cu1305  1.988   .     S
O1302  Cu1306  1.988   .     S
O1302  C1303   1.311   .     A
C1303  C1327   1.501   .     S
C1304  C1328   1.497   .     S
Cu1305 Cu1306  2.697   .     S
C1307  N1333   1.440   .     S
C1308  N1336   1.435   .     S
C1308  C793    1.418   1_565 S
C1309  N1339   1.432   .     S
C1310  N1342   1.433   .     S
C1310  C791    1.423   1_565 S
C1311  C1361   1.491   .     S
C1311  C1332   1.414   .     A
C1311  C1485   1.401   1_455 S
C1312  C1331   1.416   .     A
C1312  C1365   1.498   .     S
C1312  C1400   1.409   .     S
C1313  C1331   1.413   .     A
C1313  C1369   1.490   .     S
C1313  C1397   1.401   .     S
C1314  C1332   1.410   .     A
C1314  C1373   1.498   .     S
C1314  C1484   1.409   1_455 S
C1315  H1319   1.080   .     S
C1315  C1329   1.399   .     A
C1315  C1323   1.394   .     A
C1316  C1324   1.396   .     A
C1316  H1320   1.082   .     S
C1316  C1330   1.402   .     A
C1317  H1321   1.080   .     S
C1317  C1325   1.395   .     A
C1317  C1330   1.399   .     A
C1318  H1322   1.083   .     S
C1318  C1329   1.394   .     A
C1318  C1326   1.397   .     A
C1323  C1345   1.488   .     S
C1323  C1327   1.431   .     A
C1324  C1328   1.417   .     A
C1324  C1349   1.470   .     S
C1325  C1328   1.423   .     A
C1325  C1353   1.481   .     S
C1326  C1357   1.481   .     S
C1326  C1327   1.435   .     A
C1330  C555    1.489   1_556 S
N1333  O1334   1.294   .     A
N1333  O1335   1.300   .     A
N1336  O1338   1.298   .     A
N1336  O1337   1.294   .     A
N1339  O1341   1.300   .     A
N1339  O1340   1.297   .     A
N1342  O1344   1.300   .     A
N1342  O1343   1.295   .     A
C1345  O1346   1.218   .     D
C1345  O1347   1.399   .     S
O1347  H1348   1.014   .     S
C1349  O1350   1.218   .     D
C1349  O1351   1.398   .     S
O1351  H1352   1.014   .     S
C1353  O1355   1.397   .     S
C1353  O1354   1.224   .     D
O1355  H1356   1.012   .     S
C1357  O1358   1.219   .     D
C1357  O1359   1.399   .     S
O1359  H1360   1.013   .     S
C1361  O1363   1.399   .     S
C1361  O1362   1.219   .     D
O1363  H1364   1.014   .     S
C1365  O1366   1.219   .     D
C1365  O1367   1.396   .     S
O1367  H1368   1.014   .     S
C1369  O1370   1.221   .     D
C1369  O1371   1.395   .     S
O1371  H1372   1.014   .     S
C1373  O1374   1.221   .     D
C1373  O1375   1.399   .     S
O1375  H1376   1.014   .     S
O1377  Cu1391  1.971   .     S
O1377  C1383   1.311   .     A
O1378  Cu1392  1.971   .     S
O1378  C1384   1.305   .     A
O1379  C1384   1.308   .     A
O1379  Cu1391  1.969   .     S
O1380  C1383   1.301   .     A
O1380  Cu1392  1.969   .     S
N1381  C1396   1.373   .     A
N1381  C1394   1.382   .     A
N1381  Cu1391  2.027   .     S
N1382  C1395   1.367   .     A
N1382  C1393   1.383   .     A
N1382  Cu1392  2.027   .     S
C1383  C1418   1.485   .     S
C1384  C1417   1.490   .     S
O1385  C1389   1.308   .     A
O1385  Cu1391  1.974   .     S
O1386  C1390   1.315   .     A
O1386  Cu1392  1.974   .     S
O1387  C1390   1.299   .     A
O1387  Cu1391  1.988   .     S
O1388  Cu1392  1.988   .     S
O1388  C1389   1.311   .     A
C1389  C1413   1.501   .     S
C1390  C1414   1.497   .     S
Cu1391 Cu1392  2.697   .     S
C1393  N1419   1.440   .     S
C1394  N1422   1.435   .     S
C1394  C879    1.418   1_565 S
C1395  N1425   1.432   .     S
C1396  N1428   1.433   .     S
C1396  C877    1.423   1_565 S
C1397  C1447   1.491   .     S
C1397  C1418   1.414   .     A
C1398  C1417   1.416   .     A
C1398  C1451   1.498   .     S
C1398  C1486   1.409   .     S
C1399  C1417   1.413   .     A
C1399  C1455   1.490   .     S
C1399  C1483   1.401   .     S
C1400  C1418   1.410   .     A
C1400  C1459   1.498   .     S
C1401  H1405   1.080   .     S
C1401  C1415   1.399   .     A
C1401  C1409   1.394   .     A
C1402  C1410   1.396   .     A
C1402  H1406   1.082   .     S
C1402  C1416   1.402   .     A
C1403  H1407   1.080   .     S
C1403  C1411   1.395   .     A
C1403  C1416   1.399   .     A
C1404  H1408   1.083   .     S
C1404  C1415   1.394   .     A
C1404  C1412   1.397   .     A
C1409  C1431   1.488   .     S
C1409  C1413   1.431   .     A
C1410  C1414   1.417   .     A
C1410  C1435   1.470   .     S
C1411  C1414   1.423   .     A
C1411  C1439   1.481   .     S
C1412  C1443   1.481   .     S
C1412  C1413   1.435   .     A
C1416  C641    1.489   1_556 S
N1419  O1420   1.294   .     A
N1419  O1421   1.300   .     A
N1422  O1424   1.298   .     A
N1422  O1423   1.294   .     A
N1425  O1427   1.300   .     A
N1425  O1426   1.297   .     A
N1428  O1430   1.300   .     A
N1428  O1429   1.295   .     A
C1431  O1432   1.218   .     D
C1431  O1433   1.399   .     S
O1433  H1434   1.014   .     S
C1435  O1436   1.218   .     D
C1435  O1437   1.398   .     S
O1437  H1438   1.014   .     S
C1439  O1441   1.397   .     S
C1439  O1440   1.224   .     D
O1441  H1442   1.012   .     S
C1443  O1444   1.219   .     D
C1443  O1445   1.399   .     S
O1445  H1446   1.013   .     S
C1447  O1449   1.399   .     S
C1447  O1448   1.219   .     D
O1449  H1450   1.014   .     S
C1451  O1452   1.219   .     D
C1451  O1453   1.396   .     S
O1453  H1454   1.014   .     S
C1455  O1456   1.221   .     D
C1455  O1457   1.395   .     S
O1457  H1458   1.014   .     S
C1459  O1460   1.221   .     D
C1459  O1461   1.399   .     S
O1461  H1462   1.014   .     S
O1463  Cu1477  1.971   .     S
O1463  C1469   1.311   .     A
O1464  Cu1478  1.971   .     S
O1464  C1470   1.305   .     A
O1465  C1470   1.308   .     A
O1465  Cu1477  1.969   .     S
O1466  C1469   1.301   .     A
O1466  Cu1478  1.969   .     S
N1467  C1482   1.373   .     A
N1467  C1480   1.382   .     A
N1467  Cu1477  2.027   .     S
N1468  C1481   1.367   .     A
N1468  C1479   1.383   .     A
N1468  Cu1478  2.027   .     S
C1469  C1504   1.485   .     S
C1470  C1503   1.490   .     S
O1471  C1475   1.308   .     A
O1471  Cu1477  1.974   .     S
O1472  C1476   1.315   .     A
O1472  Cu1478  1.974   .     S
O1473  C1476   1.299   .     A
O1473  Cu1477  1.988   .     S
O1474  Cu1478  1.988   .     S
O1474  C1475   1.311   .     A
C1475  C1499   1.501   .     S
C1476  C1500   1.497   .     S
Cu1477 Cu1478  2.697   .     S
C1479  N1505   1.440   .     S
C1480  N1508   1.435   .     S
C1480  C965    1.418   1_565 S
C1481  N1511   1.432   .     S
C1482  N1514   1.433   .     S
C1482  C963    1.423   1_565 S
C1483  C1533   1.491   .     S
C1483  C1504   1.414   .     A
C1484  C1503   1.416   .     A
C1484  C1537   1.498   .     S
C1484  C1314   1.409   1_655 S
C1485  C1503   1.413   .     A
C1485  C1541   1.490   .     S
C1485  C1311   1.401   1_655 S
C1486  C1504   1.410   .     A
C1486  C1545   1.498   .     S
C1487  H1491   1.080   .     S
C1487  C1501   1.399   .     A
C1487  C1495   1.394   .     A
C1488  C1496   1.396   .     A
C1488  H1492   1.082   .     S
C1488  C1502   1.402   .     A
C1489  H1493   1.080   .     S
C1489  C1497   1.395   .     A
C1489  C1502   1.399   .     A
C1490  H1494   1.083   .     S
C1490  C1501   1.394   .     A
C1490  C1498   1.397   .     A
C1495  C1517   1.488   .     S
C1495  C1499   1.431   .     A
C1496  C1500   1.417   .     A
C1496  C1521   1.470   .     S
C1497  C1500   1.423   .     A
C1497  C1525   1.481   .     S
C1498  C1529   1.481   .     S
C1498  C1499   1.435   .     A
C1502  C727    1.489   1_556 S
N1505  O1506   1.294   .     A
N1505  O1507   1.300   .     A
N1508  O1510   1.298   .     A
N1508  O1509   1.294   .     A
N1511  O1513   1.300   .     A
N1511  O1512   1.297   .     A
N1514  O1516   1.300   .     A
N1514  O1515   1.295   .     A
C1517  O1518   1.218   .     D
C1517  O1519   1.399   .     S
O1519  H1520   1.014   .     S
C1521  O1522   1.218   .     D
C1521  O1523   1.398   .     S
O1523  H1524   1.014   .     S
C1525  O1527   1.397   .     S
C1525  O1526   1.224   .     D
O1527  H1528   1.012   .     S
C1529  O1530   1.219   .     D
C1529  O1531   1.399   .     S
O1531  H1532   1.013   .     S
C1533  O1535   1.399   .     S
C1533  O1534   1.219   .     D
O1535  H1536   1.014   .     S
C1537  O1538   1.219   .     D
C1537  O1539   1.396   .     S
O1539  H1540   1.014   .     S
C1541  O1542   1.221   .     D
C1541  O1543   1.395   .     S
O1543  H1544   1.014   .     S
C1545  O1546   1.221   .     D
C1545  O1547   1.399   .     S
O1547  H1548   1.014   .     S
