data_str_m1_o10_o16_pcu_sym.113
_audit_creation_date              2020-01-03
_audit_creation_method            'Materials Studio'
_symmetry_space_group_name_H-M    'P1'
_symmetry_Int_Tables_number       1
_symmetry_cell_setting            triclinic
loop_
_symmetry_equiv_pos_as_xyz
  x,y,z
_cell_length_a                    32.5249
_cell_length_b                    32.4878
_cell_length_c                    31.0401
_cell_angle_alpha                 96.7969
_cell_angle_beta                  74.8530
_cell_angle_gamma                 98.7458
loop_
_atom_site_label
_atom_site_type_symbol
_atom_site_fract_x
_atom_site_fract_y
_atom_site_fract_z
_atom_site_U_iso_or_equiv
_atom_site_adp_type
_atom_site_occupancy
C1     C     0.05263   0.15933   0.26041   0.00000  Uiso   1.00
C2     C     0.18189   0.16726   0.05652   0.00000  Uiso   1.00
C3     C     0.19615   0.09767   0.06331   0.00000  Uiso   1.00
C4     C     0.28084   0.17372   0.23979   0.00000  Uiso   1.00
C5     C     0.14423   0.19516   0.41940   0.00000  Uiso   1.00
C6     C     0.32703   0.17558   0.23457   0.00000  Uiso   1.00
C7     C     0.00745   0.15766   0.26400   0.00000  Uiso   1.00
C8     C     0.18041   0.32248   0.23651   0.00000  Uiso   1.00
C9     C     0.15159   0.01165   0.26359   0.00000  Uiso   1.00
C10    C     0.15602   0.05582   0.26014   0.00000  Uiso   1.00
C11    C     0.17652   0.27789   0.24013   0.00000  Uiso   1.00
C12    C     0.14124   0.25021   0.47990   0.00000  Uiso   1.00
C13    C     0.18511   0.14787   0.12936   0.00000  Uiso   1.00
C14    C     0.14830   0.18443   0.37102   0.00000  Uiso   1.00
C15    C     0.19129   0.08482   0.02038   0.00000  Uiso   1.00
C16    C     0.19112   0.13853   0.08139   0.00000  Uiso   1.00
C17    C     0.13739   0.23608   0.43686   0.00000  Uiso   1.00
C18    C     0.23537   0.03959   0.47606   0.00000  Uiso   1.00
C19    C     0.26520   0.02831   0.00221   0.00000  Uiso   1.00
C20    C     0.09722   0.29237   0.02811   0.00000  Uiso   1.00
C21    C     0.09251   0.00396   0.04693   0.00000  Uiso   1.00
C22    C     0.03129   0.23538   0.20543   0.00000  Uiso   1.00
C23    C     0.15482   0.22426   0.00490   0.00000  Uiso   1.00
C24    C     0.06832   0.25187   0.16745   0.00000  Uiso   1.00
C25    C     0.07950   0.29915   0.17415   0.00000  Uiso   1.00
C26    C     0.16075   0.18231   0.48911   0.00000  Uiso   1.00
C27    C     0.15286   0.16719   0.44674   0.00000  Uiso   1.00
C28    C     0.17406   0.15479   0.01397   0.00000  Uiso   1.00
C29    C     0.17802   0.11254   0.49648   0.00000  Uiso   1.00
C30    C     0.16664   0.09787   0.45656   0.00000  Uiso   1.00
C31    C     0.15346   0.12443   0.43266   0.00000  Uiso   1.00
H32    H     0.20214   0.07513   0.08335   0.00000  Uiso   1.00
H33    H     0.25040   0.06790   0.45782   0.00000  Uiso   1.00
H34    H     0.23185   0.01367   0.45003   0.00000  Uiso   1.00
H35    H     0.25032   0.00007   0.02022   0.00000  Uiso   1.00
H36    H     0.29616   0.02178   0.47880   0.00000  Uiso   1.00
H37    H     0.27171   0.05462   0.02678   0.00000  Uiso   1.00
H38    H     0.09580   0.27375   0.05650   0.00000  Uiso   1.00
H39    H     0.06977   0.28020   0.01298   0.00000  Uiso   1.00
H40    H     0.09468   0.02387   0.01948   0.00000  Uiso   1.00
H41    H     0.06089   0.00527   0.07138   0.00000  Uiso   1.00
H42    H     0.11823   0.01621   0.06431   0.00000  Uiso   1.00
H43    H     0.31877   0.14438   0.29320   0.00000  Uiso   1.00
H44    H     0.04095   0.24377   0.23762   0.00000  Uiso   1.00
H45    H     0.00252   0.25059   0.20660   0.00000  Uiso   1.00
H46    H     0.09712   0.23665   0.16595   0.00000  Uiso   1.00
H47    H     0.05926   0.24387   0.13505   0.00000  Uiso   1.00
H48    H     0.05147   0.31511   0.17470   0.00000  Uiso   1.00
H49    H     0.10659   0.30993   0.14614   0.00000  Uiso   1.00
H50    H     0.08925   0.30783   0.20609   0.00000  Uiso   1.00
H51    H     0.20703   0.00380   0.21167   0.00000  Uiso   1.00
H52    H     0.12449   0.33108   0.28839   0.00000  Uiso   1.00
H53    H     0.16719   0.06538   0.44382   0.00000  Uiso   1.00
H54    H     0.17773   0.19798   0.07295   0.00000  Uiso   1.00
H55    H     0.13060   0.25782   0.41647   0.00000  Uiso   1.00
H56    H     0.16026   0.23818   0.03647   0.00000  Uiso   1.00
H57    H     0.14296   0.11061   0.40330   0.00000  Uiso   1.00
O58    O     0.16667   0.16667   0.25000   0.00000  Uiso   1.00
O59    O     0.15451   0.12637   0.15459   0.00000  Uiso   1.00
O60    O     0.12940   0.20391   0.34968   0.00000  Uiso   1.00
O61    O     0.20824   0.17759   0.14606   0.00000  Uiso   1.00
O62    O     0.17451   0.15880   0.34968   0.00000  Uiso   1.00
O63    O     0.19413   0.04343   0.00458   0.00000  Uiso   1.00
O64    O     0.13654   0.29132   0.49539   0.00000  Uiso   1.00
O65    O     0.02251   0.19166   0.19716   0.00000  Uiso   1.00
O66    O     0.17930   0.08019   0.28214   0.00000  Uiso   1.00
O67    O     0.14632   0.26085   0.27014   0.00000  Uiso   1.00
O68    O     0.07412   0.13291   0.23413   0.00000  Uiso   1.00
O69    O     0.26693   0.19272   0.21361   0.00000  Uiso   1.00
O70    O     0.07071   0.18878   0.28213   0.00000  Uiso   1.00
O71    O     0.25491   0.15226   0.27014   0.00000  Uiso   1.00
O72    O     0.13760   0.06944   0.23413   0.00000  Uiso   1.00
O73    O     0.20345   0.25620   0.21361   0.00000  Uiso   1.00
Zn74   Zn    0.19338   0.13994   0.28734   0.00000  Uiso   1.00
Zn75   Zn    0.13379   0.12458   0.21876   0.00000  Uiso   1.00
Zn76   Zn    0.21056   0.19775   0.20657   0.00000  Uiso   1.00
Zn77   Zn    0.12893   0.20439   0.28734   0.00000  Uiso   1.00
C78    C     0.38596   0.15933   0.26041   0.00000  Uiso   1.00
C79    C     0.51523   0.16726   0.05652   0.00000  Uiso   1.00
C80    C     0.52948   0.09767   0.06331   0.00000  Uiso   1.00
C81    C     0.61417   0.17372   0.23979   0.00000  Uiso   1.00
C82    C     0.47756   0.19516   0.41940   0.00000  Uiso   1.00
C83    C     0.66036   0.17558   0.23457   0.00000  Uiso   1.00
C84    C     0.34079   0.15766   0.26400   0.00000  Uiso   1.00
C85    C     0.51375   0.32248   0.23651   0.00000  Uiso   1.00
C86    C     0.48493   0.01165   0.26359   0.00000  Uiso   1.00
C87    C     0.48936   0.05582   0.26014   0.00000  Uiso   1.00
C88    C     0.50986   0.27789   0.24013   0.00000  Uiso   1.00
C89    C     0.47458   0.25021   0.47990   0.00000  Uiso   1.00
C90    C     0.51844   0.14787   0.12936   0.00000  Uiso   1.00
C91    C     0.48163   0.18443   0.37102   0.00000  Uiso   1.00
C92    C     0.52462   0.08482   0.02038   0.00000  Uiso   1.00
C93    C     0.52445   0.13853   0.08139   0.00000  Uiso   1.00
C94    C     0.47072   0.23608   0.43686   0.00000  Uiso   1.00
C95    C     0.56870   0.03959   0.47606   0.00000  Uiso   1.00
C96    C     0.59853   0.02831   0.00221   0.00000  Uiso   1.00
C97    C     0.43055   0.29237   0.02811   0.00000  Uiso   1.00
C98    C     0.42584   0.00396   0.04693   0.00000  Uiso   1.00
C99    C     0.36462   0.23538   0.20543   0.00000  Uiso   1.00
C100   C     0.48815   0.22426   0.00490   0.00000  Uiso   1.00
C101   C     0.40165   0.25187   0.16745   0.00000  Uiso   1.00
C102   C     0.41283   0.29915   0.17415   0.00000  Uiso   1.00
C103   C     0.49408   0.18231   0.48911   0.00000  Uiso   1.00
C104   C     0.48620   0.16719   0.44674   0.00000  Uiso   1.00
C105   C     0.50740   0.15479   0.01397   0.00000  Uiso   1.00
C106   C     0.51136   0.11254   0.49648   0.00000  Uiso   1.00
C107   C     0.49998   0.09787   0.45656   0.00000  Uiso   1.00
C108   C     0.48680   0.12443   0.43266   0.00000  Uiso   1.00
H109   H     0.53547   0.07513   0.08335   0.00000  Uiso   1.00
H110   H     0.58374   0.06790   0.45782   0.00000  Uiso   1.00
H111   H     0.56518   0.01367   0.45003   0.00000  Uiso   1.00
H112   H     0.58365   0.00007   0.02022   0.00000  Uiso   1.00
H113   H     0.62949   0.02178   0.47880   0.00000  Uiso   1.00
H114   H     0.60505   0.05462   0.02678   0.00000  Uiso   1.00
H115   H     0.42913   0.27375   0.05650   0.00000  Uiso   1.00
H116   H     0.40310   0.28020   0.01298   0.00000  Uiso   1.00
H117   H     0.42802   0.02387   0.01948   0.00000  Uiso   1.00
H118   H     0.39422   0.00527   0.07138   0.00000  Uiso   1.00
H119   H     0.45156   0.01621   0.06431   0.00000  Uiso   1.00
H120   H     0.65211   0.14438   0.29320   0.00000  Uiso   1.00
H121   H     0.37429   0.24377   0.23762   0.00000  Uiso   1.00
H122   H     0.33585   0.25059   0.20660   0.00000  Uiso   1.00
H123   H     0.43046   0.23665   0.16595   0.00000  Uiso   1.00
H124   H     0.39259   0.24387   0.13505   0.00000  Uiso   1.00
H125   H     0.38480   0.31511   0.17470   0.00000  Uiso   1.00
H126   H     0.43993   0.30993   0.14614   0.00000  Uiso   1.00
H127   H     0.42259   0.30783   0.20609   0.00000  Uiso   1.00
H128   H     0.54037   0.00380   0.21167   0.00000  Uiso   1.00
H129   H     0.45782   0.33108   0.28839   0.00000  Uiso   1.00
H130   H     0.50053   0.06538   0.44382   0.00000  Uiso   1.00
H131   H     0.51107   0.19798   0.07295   0.00000  Uiso   1.00
H132   H     0.46394   0.25782   0.41647   0.00000  Uiso   1.00
H133   H     0.49359   0.23818   0.03647   0.00000  Uiso   1.00
H134   H     0.47629   0.11061   0.40330   0.00000  Uiso   1.00
O135   O     0.50000   0.16667   0.25000   0.00000  Uiso   1.00
O136   O     0.48784   0.12637   0.15459   0.00000  Uiso   1.00
O137   O     0.46274   0.20391   0.34968   0.00000  Uiso   1.00
O138   O     0.54157   0.17759   0.14606   0.00000  Uiso   1.00
O139   O     0.50785   0.15880   0.34968   0.00000  Uiso   1.00
O140   O     0.52747   0.04343   0.00458   0.00000  Uiso   1.00
O141   O     0.46987   0.29132   0.49539   0.00000  Uiso   1.00
O142   O     0.35584   0.19166   0.19716   0.00000  Uiso   1.00
O143   O     0.51264   0.08019   0.28214   0.00000  Uiso   1.00
O144   O     0.47965   0.26085   0.27014   0.00000  Uiso   1.00
O145   O     0.40745   0.13291   0.23413   0.00000  Uiso   1.00
O146   O     0.60026   0.19272   0.21361   0.00000  Uiso   1.00
O147   O     0.40405   0.18878   0.28213   0.00000  Uiso   1.00
O148   O     0.58824   0.15226   0.27014   0.00000  Uiso   1.00
O149   O     0.47093   0.06944   0.23413   0.00000  Uiso   1.00
O150   O     0.53678   0.25620   0.21361   0.00000  Uiso   1.00
Zn151  Zn    0.52672   0.13994   0.28734   0.00000  Uiso   1.00
Zn152  Zn    0.46713   0.12458   0.21876   0.00000  Uiso   1.00
Zn153  Zn    0.54389   0.19775   0.20657   0.00000  Uiso   1.00
Zn154  Zn    0.46226   0.20439   0.28734   0.00000  Uiso   1.00
C155   C     0.71929   0.15933   0.26041   0.00000  Uiso   1.00
C156   C     0.84856   0.16726   0.05652   0.00000  Uiso   1.00
C157   C     0.86282   0.09767   0.06331   0.00000  Uiso   1.00
C158   C     0.94751   0.17372   0.23979   0.00000  Uiso   1.00
C159   C     0.81089   0.19516   0.41940   0.00000  Uiso   1.00
C160   C     0.99369   0.17558   0.23457   0.00000  Uiso   1.00
C161   C     0.67412   0.15766   0.26400   0.00000  Uiso   1.00
C162   C     0.84708   0.32248   0.23651   0.00000  Uiso   1.00
C163   C     0.81826   0.01165   0.26359   0.00000  Uiso   1.00
C164   C     0.82269   0.05582   0.26014   0.00000  Uiso   1.00
C165   C     0.84319   0.27789   0.24013   0.00000  Uiso   1.00
C166   C     0.80791   0.25021   0.47990   0.00000  Uiso   1.00
C167   C     0.85177   0.14787   0.12936   0.00000  Uiso   1.00
C168   C     0.81497   0.18443   0.37102   0.00000  Uiso   1.00
C169   C     0.85796   0.08482   0.02038   0.00000  Uiso   1.00
C170   C     0.85779   0.13853   0.08139   0.00000  Uiso   1.00
C171   C     0.80406   0.23608   0.43686   0.00000  Uiso   1.00
C172   C     0.90203   0.03959   0.47606   0.00000  Uiso   1.00
C173   C     0.93187   0.02831   0.00221   0.00000  Uiso   1.00
C174   C     0.76388   0.29237   0.02811   0.00000  Uiso   1.00
C175   C     0.75917   0.00396   0.04693   0.00000  Uiso   1.00
C176   C     0.69796   0.23538   0.20543   0.00000  Uiso   1.00
C177   C     0.82148   0.22426   0.00490   0.00000  Uiso   1.00
C178   C     0.73499   0.25187   0.16745   0.00000  Uiso   1.00
C179   C     0.74616   0.29915   0.17415   0.00000  Uiso   1.00
C180   C     0.82741   0.18231   0.48911   0.00000  Uiso   1.00
C181   C     0.81953   0.16719   0.44674   0.00000  Uiso   1.00
C182   C     0.84073   0.15479   0.01397   0.00000  Uiso   1.00
C183   C     0.84469   0.11254   0.49648   0.00000  Uiso   1.00
C184   C     0.83331   0.09787   0.45656   0.00000  Uiso   1.00
C185   C     0.82013   0.12443   0.43266   0.00000  Uiso   1.00
H186   H     0.86881   0.07513   0.08335   0.00000  Uiso   1.00
H187   H     0.91707   0.06790   0.45782   0.00000  Uiso   1.00
H188   H     0.89851   0.01367   0.45003   0.00000  Uiso   1.00
H189   H     0.91699   0.00007   0.02022   0.00000  Uiso   1.00
H190   H     0.96282   0.02178   0.47880   0.00000  Uiso   1.00
H191   H     0.93838   0.05462   0.02678   0.00000  Uiso   1.00
H192   H     0.76247   0.27375   0.05650   0.00000  Uiso   1.00
H193   H     0.73643   0.28020   0.01298   0.00000  Uiso   1.00
H194   H     0.76135   0.02387   0.01948   0.00000  Uiso   1.00
H195   H     0.72755   0.00527   0.07138   0.00000  Uiso   1.00
H196   H     0.78489   0.01621   0.06431   0.00000  Uiso   1.00
H197   H     0.98544   0.14438   0.29320   0.00000  Uiso   1.00
H198   H     0.70762   0.24377   0.23762   0.00000  Uiso   1.00
H199   H     0.66919   0.25059   0.20660   0.00000  Uiso   1.00
H200   H     0.76379   0.23665   0.16595   0.00000  Uiso   1.00
H201   H     0.72592   0.24387   0.13505   0.00000  Uiso   1.00
H202   H     0.71813   0.31511   0.17470   0.00000  Uiso   1.00
H203   H     0.77326   0.30993   0.14614   0.00000  Uiso   1.00
H204   H     0.75592   0.30783   0.20609   0.00000  Uiso   1.00
H205   H     0.87370   0.00380   0.21167   0.00000  Uiso   1.00
H206   H     0.79116   0.33108   0.28839   0.00000  Uiso   1.00
H207   H     0.83386   0.06538   0.44382   0.00000  Uiso   1.00
H208   H     0.84440   0.19798   0.07295   0.00000  Uiso   1.00
H209   H     0.79727   0.25782   0.41647   0.00000  Uiso   1.00
H210   H     0.82692   0.23818   0.03647   0.00000  Uiso   1.00
H211   H     0.80963   0.11061   0.40330   0.00000  Uiso   1.00
O212   O     0.83333   0.16667   0.25000   0.00000  Uiso   1.00
O213   O     0.82118   0.12637   0.15459   0.00000  Uiso   1.00
O214   O     0.79607   0.20391   0.34968   0.00000  Uiso   1.00
O215   O     0.87491   0.17759   0.14606   0.00000  Uiso   1.00
O216   O     0.84118   0.15880   0.34968   0.00000  Uiso   1.00
O217   O     0.86080   0.04343   0.00458   0.00000  Uiso   1.00
O218   O     0.80320   0.29132   0.49539   0.00000  Uiso   1.00
O219   O     0.68917   0.19166   0.19716   0.00000  Uiso   1.00
O220   O     0.84597   0.08019   0.28214   0.00000  Uiso   1.00
O221   O     0.81298   0.26085   0.27014   0.00000  Uiso   1.00
O222   O     0.74078   0.13291   0.23413   0.00000  Uiso   1.00
O223   O     0.93360   0.19272   0.21361   0.00000  Uiso   1.00
O224   O     0.73738   0.18878   0.28213   0.00000  Uiso   1.00
O225   O     0.92158   0.15226   0.27014   0.00000  Uiso   1.00
O226   O     0.80426   0.06944   0.23413   0.00000  Uiso   1.00
O227   O     0.87012   0.25620   0.21361   0.00000  Uiso   1.00
Zn228  Zn    0.86005   0.13994   0.28734   0.00000  Uiso   1.00
Zn229  Zn    0.80046   0.12458   0.21876   0.00000  Uiso   1.00
Zn230  Zn    0.87723   0.19775   0.20657   0.00000  Uiso   1.00
Zn231  Zn    0.79560   0.20439   0.28734   0.00000  Uiso   1.00
C232   C     0.05263   0.49266   0.26041   0.00000  Uiso   1.00
C233   C     0.18189   0.50059   0.05652   0.00000  Uiso   1.00
C234   C     0.19615   0.43100   0.06331   0.00000  Uiso   1.00
C235   C     0.28084   0.50705   0.23979   0.00000  Uiso   1.00
C236   C     0.14423   0.52849   0.41940   0.00000  Uiso   1.00
C237   C     0.32703   0.50892   0.23457   0.00000  Uiso   1.00
C238   C     0.00745   0.49100   0.26400   0.00000  Uiso   1.00
C239   C     0.18041   0.65581   0.23651   0.00000  Uiso   1.00
C240   C     0.15159   0.34498   0.26359   0.00000  Uiso   1.00
C241   C     0.15602   0.38916   0.26014   0.00000  Uiso   1.00
C242   C     0.17652   0.61122   0.24013   0.00000  Uiso   1.00
C243   C     0.14124   0.58355   0.47990   0.00000  Uiso   1.00
C244   C     0.18511   0.48120   0.12936   0.00000  Uiso   1.00
C245   C     0.14830   0.51776   0.37102   0.00000  Uiso   1.00
C246   C     0.19129   0.41815   0.02038   0.00000  Uiso   1.00
C247   C     0.19112   0.47186   0.08139   0.00000  Uiso   1.00
C248   C     0.13739   0.56941   0.43686   0.00000  Uiso   1.00
C249   C     0.23537   0.37292   0.47606   0.00000  Uiso   1.00
C250   C     0.26520   0.36165   0.00221   0.00000  Uiso   1.00
C251   C     0.09722   0.62570   0.02811   0.00000  Uiso   1.00
C252   C     0.09251   0.33730   0.04693   0.00000  Uiso   1.00
C253   C     0.03129   0.56872   0.20543   0.00000  Uiso   1.00
C254   C     0.15482   0.55760   0.00490   0.00000  Uiso   1.00
C255   C     0.06832   0.58520   0.16745   0.00000  Uiso   1.00
C256   C     0.07950   0.63249   0.17415   0.00000  Uiso   1.00
C257   C     0.16075   0.51564   0.48911   0.00000  Uiso   1.00
C258   C     0.15286   0.50053   0.44674   0.00000  Uiso   1.00
C259   C     0.17406   0.48812   0.01397   0.00000  Uiso   1.00
C260   C     0.17802   0.44588   0.49648   0.00000  Uiso   1.00
C261   C     0.16664   0.43120   0.45656   0.00000  Uiso   1.00
C262   C     0.15346   0.45776   0.43266   0.00000  Uiso   1.00
H263   H     0.20214   0.40847   0.08335   0.00000  Uiso   1.00
H264   H     0.25040   0.40124   0.45782   0.00000  Uiso   1.00
H265   H     0.23185   0.34700   0.45003   0.00000  Uiso   1.00
H266   H     0.25032   0.33340   0.02022   0.00000  Uiso   1.00
H267   H     0.29616   0.35511   0.47880   0.00000  Uiso   1.00
H268   H     0.27171   0.38795   0.02678   0.00000  Uiso   1.00
H269   H     0.09580   0.60708   0.05650   0.00000  Uiso   1.00
H270   H     0.06977   0.61353   0.01298   0.00000  Uiso   1.00
H271   H     0.09468   0.35721   0.01948   0.00000  Uiso   1.00
H272   H     0.06089   0.33861   0.07138   0.00000  Uiso   1.00
H273   H     0.11823   0.34954   0.06431   0.00000  Uiso   1.00
H274   H     0.31877   0.47772   0.29320   0.00000  Uiso   1.00
H275   H     0.04095   0.57710   0.23762   0.00000  Uiso   1.00
H276   H     0.00252   0.58392   0.20660   0.00000  Uiso   1.00
H277   H     0.09712   0.56998   0.16595   0.00000  Uiso   1.00
H278   H     0.05926   0.57721   0.13505   0.00000  Uiso   1.00
H279   H     0.05147   0.64844   0.17470   0.00000  Uiso   1.00
H280   H     0.10659   0.64326   0.14614   0.00000  Uiso   1.00
H281   H     0.08925   0.64116   0.20609   0.00000  Uiso   1.00
H282   H     0.20703   0.33713   0.21167   0.00000  Uiso   1.00
H283   H     0.12449   0.66442   0.28839   0.00000  Uiso   1.00
H284   H     0.16719   0.39872   0.44382   0.00000  Uiso   1.00
H285   H     0.17773   0.53131   0.07295   0.00000  Uiso   1.00
H286   H     0.13060   0.59115   0.41647   0.00000  Uiso   1.00
H287   H     0.16026   0.57151   0.03647   0.00000  Uiso   1.00
H288   H     0.14296   0.44395   0.40330   0.00000  Uiso   1.00
O289   O     0.16667   0.50000   0.25000   0.00000  Uiso   1.00
O290   O     0.15451   0.45970   0.15459   0.00000  Uiso   1.00
O291   O     0.12940   0.53724   0.34968   0.00000  Uiso   1.00
O292   O     0.20824   0.51092   0.14606   0.00000  Uiso   1.00
O293   O     0.17451   0.49213   0.34968   0.00000  Uiso   1.00
O294   O     0.19413   0.37677   0.00458   0.00000  Uiso   1.00
O295   O     0.13654   0.62465   0.49539   0.00000  Uiso   1.00
O296   O     0.02251   0.52499   0.19716   0.00000  Uiso   1.00
O297   O     0.17930   0.41352   0.28214   0.00000  Uiso   1.00
O298   O     0.14632   0.59418   0.27014   0.00000  Uiso   1.00
O299   O     0.07412   0.46625   0.23413   0.00000  Uiso   1.00
O300   O     0.26693   0.52605   0.21361   0.00000  Uiso   1.00
O301   O     0.07071   0.52211   0.28213   0.00000  Uiso   1.00
O302   O     0.25491   0.48559   0.27014   0.00000  Uiso   1.00
O303   O     0.13760   0.40277   0.23413   0.00000  Uiso   1.00
O304   O     0.20345   0.58953   0.21361   0.00000  Uiso   1.00
Zn305  Zn    0.19338   0.47327   0.28734   0.00000  Uiso   1.00
Zn306  Zn    0.13379   0.45791   0.21876   0.00000  Uiso   1.00
Zn307  Zn    0.21056   0.53109   0.20657   0.00000  Uiso   1.00
Zn308  Zn    0.12893   0.53773   0.28734   0.00000  Uiso   1.00
C309   C     0.38596   0.49266   0.26041   0.00000  Uiso   1.00
C310   C     0.51523   0.50059   0.05652   0.00000  Uiso   1.00
C311   C     0.52948   0.43100   0.06331   0.00000  Uiso   1.00
C312   C     0.61417   0.50705   0.23979   0.00000  Uiso   1.00
C313   C     0.47756   0.52849   0.41940   0.00000  Uiso   1.00
C314   C     0.66036   0.50892   0.23457   0.00000  Uiso   1.00
C315   C     0.34079   0.49100   0.26400   0.00000  Uiso   1.00
C316   C     0.51375   0.65581   0.23651   0.00000  Uiso   1.00
C317   C     0.48493   0.34498   0.26359   0.00000  Uiso   1.00
C318   C     0.48936   0.38916   0.26014   0.00000  Uiso   1.00
C319   C     0.50986   0.61122   0.24013   0.00000  Uiso   1.00
C320   C     0.47458   0.58355   0.47990   0.00000  Uiso   1.00
C321   C     0.51844   0.48120   0.12936   0.00000  Uiso   1.00
C322   C     0.48163   0.51776   0.37102   0.00000  Uiso   1.00
C323   C     0.52462   0.41815   0.02038   0.00000  Uiso   1.00
C324   C     0.52445   0.47186   0.08139   0.00000  Uiso   1.00
C325   C     0.47072   0.56941   0.43686   0.00000  Uiso   1.00
C326   C     0.56870   0.37292   0.47606   0.00000  Uiso   1.00
C327   C     0.59853   0.36165   0.00221   0.00000  Uiso   1.00
C328   C     0.43055   0.62570   0.02811   0.00000  Uiso   1.00
C329   C     0.42584   0.33730   0.04693   0.00000  Uiso   1.00
C330   C     0.36462   0.56872   0.20543   0.00000  Uiso   1.00
C331   C     0.48815   0.55760   0.00490   0.00000  Uiso   1.00
C332   C     0.40165   0.58520   0.16745   0.00000  Uiso   1.00
C333   C     0.41283   0.63249   0.17415   0.00000  Uiso   1.00
C334   C     0.49408   0.51564   0.48911   0.00000  Uiso   1.00
C335   C     0.48620   0.50053   0.44674   0.00000  Uiso   1.00
C336   C     0.50740   0.48812   0.01397   0.00000  Uiso   1.00
C337   C     0.51136   0.44588   0.49648   0.00000  Uiso   1.00
C338   C     0.49998   0.43120   0.45656   0.00000  Uiso   1.00
C339   C     0.48680   0.45776   0.43266   0.00000  Uiso   1.00
H340   H     0.53547   0.40847   0.08335   0.00000  Uiso   1.00
H341   H     0.58374   0.40124   0.45782   0.00000  Uiso   1.00
H342   H     0.56518   0.34700   0.45003   0.00000  Uiso   1.00
H343   H     0.58365   0.33340   0.02022   0.00000  Uiso   1.00
H344   H     0.62949   0.35511   0.47880   0.00000  Uiso   1.00
H345   H     0.60505   0.38795   0.02678   0.00000  Uiso   1.00
H346   H     0.42913   0.60708   0.05650   0.00000  Uiso   1.00
H347   H     0.40310   0.61353   0.01298   0.00000  Uiso   1.00
H348   H     0.42802   0.35721   0.01948   0.00000  Uiso   1.00
H349   H     0.39422   0.33861   0.07138   0.00000  Uiso   1.00
H350   H     0.45156   0.34954   0.06431   0.00000  Uiso   1.00
H351   H     0.65211   0.47772   0.29320   0.00000  Uiso   1.00
H352   H     0.37429   0.57710   0.23762   0.00000  Uiso   1.00
H353   H     0.33585   0.58392   0.20660   0.00000  Uiso   1.00
H354   H     0.43046   0.56998   0.16595   0.00000  Uiso   1.00
H355   H     0.39259   0.57721   0.13505   0.00000  Uiso   1.00
H356   H     0.38480   0.64844   0.17470   0.00000  Uiso   1.00
H357   H     0.43993   0.64326   0.14614   0.00000  Uiso   1.00
H358   H     0.42259   0.64116   0.20609   0.00000  Uiso   1.00
H359   H     0.54037   0.33713   0.21167   0.00000  Uiso   1.00
H360   H     0.45782   0.66442   0.28839   0.00000  Uiso   1.00
H361   H     0.50053   0.39872   0.44382   0.00000  Uiso   1.00
H362   H     0.51107   0.53131   0.07295   0.00000  Uiso   1.00
H363   H     0.46394   0.59115   0.41647   0.00000  Uiso   1.00
H364   H     0.49359   0.57151   0.03647   0.00000  Uiso   1.00
H365   H     0.47629   0.44395   0.40330   0.00000  Uiso   1.00
O366   O     0.50000   0.50000   0.25000   0.00000  Uiso   1.00
O367   O     0.48784   0.45970   0.15459   0.00000  Uiso   1.00
O368   O     0.46274   0.53724   0.34968   0.00000  Uiso   1.00
O369   O     0.54157   0.51092   0.14606   0.00000  Uiso   1.00
O370   O     0.50785   0.49213   0.34968   0.00000  Uiso   1.00
O371   O     0.52747   0.37677   0.00458   0.00000  Uiso   1.00
O372   O     0.46987   0.62465   0.49539   0.00000  Uiso   1.00
O373   O     0.35584   0.52499   0.19716   0.00000  Uiso   1.00
O374   O     0.51264   0.41352   0.28214   0.00000  Uiso   1.00
O375   O     0.47965   0.59418   0.27014   0.00000  Uiso   1.00
O376   O     0.40745   0.46625   0.23413   0.00000  Uiso   1.00
O377   O     0.60026   0.52605   0.21361   0.00000  Uiso   1.00
O378   O     0.40405   0.52211   0.28213   0.00000  Uiso   1.00
O379   O     0.58824   0.48559   0.27014   0.00000  Uiso   1.00
O380   O     0.47093   0.40277   0.23413   0.00000  Uiso   1.00
O381   O     0.53678   0.58953   0.21361   0.00000  Uiso   1.00
Zn382  Zn    0.52672   0.47327   0.28734   0.00000  Uiso   1.00
Zn383  Zn    0.46713   0.45791   0.21876   0.00000  Uiso   1.00
Zn384  Zn    0.54389   0.53109   0.20657   0.00000  Uiso   1.00
Zn385  Zn    0.46226   0.53773   0.28734   0.00000  Uiso   1.00
C386   C     0.71929   0.49266   0.26041   0.00000  Uiso   1.00
C387   C     0.84856   0.50059   0.05652   0.00000  Uiso   1.00
C388   C     0.86282   0.43100   0.06331   0.00000  Uiso   1.00
C389   C     0.94751   0.50705   0.23979   0.00000  Uiso   1.00
C390   C     0.81089   0.52849   0.41940   0.00000  Uiso   1.00
C391   C     0.99369   0.50892   0.23457   0.00000  Uiso   1.00
C392   C     0.67412   0.49100   0.26400   0.00000  Uiso   1.00
C393   C     0.84708   0.65581   0.23651   0.00000  Uiso   1.00
C394   C     0.81826   0.34498   0.26359   0.00000  Uiso   1.00
C395   C     0.82269   0.38916   0.26014   0.00000  Uiso   1.00
C396   C     0.84319   0.61122   0.24013   0.00000  Uiso   1.00
C397   C     0.80791   0.58355   0.47990   0.00000  Uiso   1.00
C398   C     0.85177   0.48120   0.12936   0.00000  Uiso   1.00
C399   C     0.81497   0.51776   0.37102   0.00000  Uiso   1.00
C400   C     0.85796   0.41815   0.02038   0.00000  Uiso   1.00
C401   C     0.85779   0.47186   0.08139   0.00000  Uiso   1.00
C402   C     0.80406   0.56941   0.43686   0.00000  Uiso   1.00
C403   C     0.90203   0.37292   0.47606   0.00000  Uiso   1.00
C404   C     0.93187   0.36165   0.00221   0.00000  Uiso   1.00
C405   C     0.76388   0.62570   0.02811   0.00000  Uiso   1.00
C406   C     0.75917   0.33730   0.04693   0.00000  Uiso   1.00
C407   C     0.69796   0.56872   0.20543   0.00000  Uiso   1.00
C408   C     0.82148   0.55760   0.00490   0.00000  Uiso   1.00
C409   C     0.73499   0.58520   0.16745   0.00000  Uiso   1.00
C410   C     0.74616   0.63249   0.17415   0.00000  Uiso   1.00
C411   C     0.82741   0.51564   0.48911   0.00000  Uiso   1.00
C412   C     0.81953   0.50053   0.44674   0.00000  Uiso   1.00
C413   C     0.84073   0.48812   0.01397   0.00000  Uiso   1.00
C414   C     0.84469   0.44588   0.49648   0.00000  Uiso   1.00
C415   C     0.83331   0.43120   0.45656   0.00000  Uiso   1.00
C416   C     0.82013   0.45776   0.43266   0.00000  Uiso   1.00
H417   H     0.86881   0.40847   0.08335   0.00000  Uiso   1.00
H418   H     0.91707   0.40124   0.45782   0.00000  Uiso   1.00
H419   H     0.89851   0.34700   0.45003   0.00000  Uiso   1.00
H420   H     0.91699   0.33340   0.02022   0.00000  Uiso   1.00
H421   H     0.96282   0.35511   0.47880   0.00000  Uiso   1.00
H422   H     0.93838   0.38795   0.02678   0.00000  Uiso   1.00
H423   H     0.76247   0.60708   0.05650   0.00000  Uiso   1.00
H424   H     0.73643   0.61353   0.01298   0.00000  Uiso   1.00
H425   H     0.76135   0.35721   0.01948   0.00000  Uiso   1.00
H426   H     0.72755   0.33861   0.07138   0.00000  Uiso   1.00
H427   H     0.78489   0.34954   0.06431   0.00000  Uiso   1.00
H428   H     0.98544   0.47772   0.29320   0.00000  Uiso   1.00
H429   H     0.70762   0.57710   0.23762   0.00000  Uiso   1.00
H430   H     0.66919   0.58392   0.20660   0.00000  Uiso   1.00
H431   H     0.76379   0.56998   0.16595   0.00000  Uiso   1.00
H432   H     0.72592   0.57721   0.13505   0.00000  Uiso   1.00
H433   H     0.71813   0.64844   0.17470   0.00000  Uiso   1.00
H434   H     0.77326   0.64326   0.14614   0.00000  Uiso   1.00
H435   H     0.75592   0.64116   0.20609   0.00000  Uiso   1.00
H436   H     0.87370   0.33713   0.21167   0.00000  Uiso   1.00
H437   H     0.79116   0.66442   0.28839   0.00000  Uiso   1.00
H438   H     0.83386   0.39872   0.44382   0.00000  Uiso   1.00
H439   H     0.84440   0.53131   0.07295   0.00000  Uiso   1.00
H440   H     0.79727   0.59115   0.41647   0.00000  Uiso   1.00
H441   H     0.82692   0.57151   0.03647   0.00000  Uiso   1.00
H442   H     0.80963   0.44395   0.40330   0.00000  Uiso   1.00
O443   O     0.83333   0.50000   0.25000   0.00000  Uiso   1.00
O444   O     0.82118   0.45970   0.15459   0.00000  Uiso   1.00
O445   O     0.79607   0.53724   0.34968   0.00000  Uiso   1.00
O446   O     0.87491   0.51092   0.14606   0.00000  Uiso   1.00
O447   O     0.84118   0.49213   0.34968   0.00000  Uiso   1.00
O448   O     0.86080   0.37677   0.00458   0.00000  Uiso   1.00
O449   O     0.80320   0.62465   0.49539   0.00000  Uiso   1.00
O450   O     0.68917   0.52499   0.19716   0.00000  Uiso   1.00
O451   O     0.84597   0.41352   0.28214   0.00000  Uiso   1.00
O452   O     0.81298   0.59418   0.27014   0.00000  Uiso   1.00
O453   O     0.74078   0.46625   0.23413   0.00000  Uiso   1.00
O454   O     0.93360   0.52605   0.21361   0.00000  Uiso   1.00
O455   O     0.73738   0.52211   0.28213   0.00000  Uiso   1.00
O456   O     0.92158   0.48559   0.27014   0.00000  Uiso   1.00
O457   O     0.80426   0.40277   0.23413   0.00000  Uiso   1.00
O458   O     0.87012   0.58953   0.21361   0.00000  Uiso   1.00
Zn459  Zn    0.86005   0.47327   0.28734   0.00000  Uiso   1.00
Zn460  Zn    0.80046   0.45791   0.21876   0.00000  Uiso   1.00
Zn461  Zn    0.87723   0.53109   0.20657   0.00000  Uiso   1.00
Zn462  Zn    0.79560   0.53773   0.28734   0.00000  Uiso   1.00
C463   C     0.05263   0.82600   0.26041   0.00000  Uiso   1.00
C464   C     0.18189   0.83392   0.05652   0.00000  Uiso   1.00
C465   C     0.19615   0.76433   0.06331   0.00000  Uiso   1.00
C466   C     0.28084   0.84038   0.23979   0.00000  Uiso   1.00
C467   C     0.14423   0.86183   0.41940   0.00000  Uiso   1.00
C468   C     0.32703   0.84225   0.23457   0.00000  Uiso   1.00
C469   C     0.00745   0.82433   0.26400   0.00000  Uiso   1.00
C470   C     0.18041   0.98915   0.23651   0.00000  Uiso   1.00
C471   C     0.15159   0.67832   0.26359   0.00000  Uiso   1.00
C472   C     0.15602   0.72249   0.26014   0.00000  Uiso   1.00
C473   C     0.17652   0.94456   0.24013   0.00000  Uiso   1.00
C474   C     0.14124   0.91688   0.47990   0.00000  Uiso   1.00
C475   C     0.18511   0.81454   0.12936   0.00000  Uiso   1.00
C476   C     0.14830   0.85109   0.37102   0.00000  Uiso   1.00
C477   C     0.19129   0.75149   0.02038   0.00000  Uiso   1.00
C478   C     0.19112   0.80519   0.08139   0.00000  Uiso   1.00
C479   C     0.13739   0.90275   0.43686   0.00000  Uiso   1.00
C480   C     0.23537   0.70626   0.47606   0.00000  Uiso   1.00
C481   C     0.26520   0.69498   0.00221   0.00000  Uiso   1.00
C482   C     0.09722   0.95904   0.02811   0.00000  Uiso   1.00
C483   C     0.09251   0.67063   0.04693   0.00000  Uiso   1.00
C484   C     0.03129   0.90205   0.20543   0.00000  Uiso   1.00
C485   C     0.15482   0.89093   0.00490   0.00000  Uiso   1.00
C486   C     0.06832   0.91853   0.16745   0.00000  Uiso   1.00
C487   C     0.07950   0.96582   0.17415   0.00000  Uiso   1.00
C488   C     0.16075   0.84897   0.48911   0.00000  Uiso   1.00
C489   C     0.15286   0.83386   0.44674   0.00000  Uiso   1.00
C490   C     0.17406   0.82145   0.01397   0.00000  Uiso   1.00
C491   C     0.17802   0.77921   0.49648   0.00000  Uiso   1.00
C492   C     0.16664   0.76454   0.45656   0.00000  Uiso   1.00
C493   C     0.15346   0.79109   0.43266   0.00000  Uiso   1.00
H494   H     0.20214   0.74180   0.08335   0.00000  Uiso   1.00
H495   H     0.25040   0.73457   0.45782   0.00000  Uiso   1.00
H496   H     0.23185   0.68033   0.45003   0.00000  Uiso   1.00
H497   H     0.25032   0.66673   0.02022   0.00000  Uiso   1.00
H498   H     0.29616   0.68845   0.47880   0.00000  Uiso   1.00
H499   H     0.27171   0.72128   0.02678   0.00000  Uiso   1.00
H500   H     0.09580   0.94041   0.05650   0.00000  Uiso   1.00
H501   H     0.06977   0.94686   0.01298   0.00000  Uiso   1.00
H502   H     0.09468   0.69054   0.01948   0.00000  Uiso   1.00
H503   H     0.06089   0.67194   0.07138   0.00000  Uiso   1.00
H504   H     0.11823   0.68288   0.06431   0.00000  Uiso   1.00
H505   H     0.31877   0.81105   0.29320   0.00000  Uiso   1.00
H506   H     0.04095   0.91043   0.23762   0.00000  Uiso   1.00
H507   H     0.00252   0.91725   0.20660   0.00000  Uiso   1.00
H508   H     0.09712   0.90332   0.16595   0.00000  Uiso   1.00
H509   H     0.05926   0.91054   0.13505   0.00000  Uiso   1.00
H510   H     0.05147   0.98178   0.17470   0.00000  Uiso   1.00
H511   H     0.10659   0.97660   0.14614   0.00000  Uiso   1.00
H512   H     0.08925   0.97449   0.20609   0.00000  Uiso   1.00
H513   H     0.20703   0.67047   0.21167   0.00000  Uiso   1.00
H514   H     0.12449   0.99775   0.28839   0.00000  Uiso   1.00
H515   H     0.16719   0.73205   0.44382   0.00000  Uiso   1.00
H516   H     0.17773   0.86465   0.07295   0.00000  Uiso   1.00
H517   H     0.13060   0.92448   0.41647   0.00000  Uiso   1.00
H518   H     0.16026   0.90485   0.03647   0.00000  Uiso   1.00
H519   H     0.14296   0.77728   0.40330   0.00000  Uiso   1.00
O520   O     0.16667   0.83333   0.25000   0.00000  Uiso   1.00
O521   O     0.15451   0.79304   0.15459   0.00000  Uiso   1.00
O522   O     0.12940   0.87058   0.34968   0.00000  Uiso   1.00
O523   O     0.20824   0.84425   0.14606   0.00000  Uiso   1.00
O524   O     0.17451   0.82546   0.34968   0.00000  Uiso   1.00
O525   O     0.19413   0.71010   0.00458   0.00000  Uiso   1.00
O526   O     0.13654   0.95799   0.49539   0.00000  Uiso   1.00
O527   O     0.02251   0.85833   0.19716   0.00000  Uiso   1.00
O528   O     0.17930   0.74686   0.28214   0.00000  Uiso   1.00
O529   O     0.14632   0.92751   0.27014   0.00000  Uiso   1.00
O530   O     0.07412   0.79958   0.23413   0.00000  Uiso   1.00
O531   O     0.26693   0.85939   0.21361   0.00000  Uiso   1.00
O532   O     0.07071   0.85544   0.28213   0.00000  Uiso   1.00
O533   O     0.25491   0.81892   0.27014   0.00000  Uiso   1.00
O534   O     0.13760   0.73610   0.23413   0.00000  Uiso   1.00
O535   O     0.20345   0.92286   0.21361   0.00000  Uiso   1.00
Zn536  Zn    0.19338   0.80661   0.28734   0.00000  Uiso   1.00
Zn537  Zn    0.13379   0.79124   0.21876   0.00000  Uiso   1.00
Zn538  Zn    0.21056   0.86442   0.20657   0.00000  Uiso   1.00
Zn539  Zn    0.12893   0.87106   0.28734   0.00000  Uiso   1.00
C540   C     0.38596   0.82600   0.26041   0.00000  Uiso   1.00
C541   C     0.51523   0.83392   0.05652   0.00000  Uiso   1.00
C542   C     0.52948   0.76433   0.06331   0.00000  Uiso   1.00
C543   C     0.61417   0.84038   0.23979   0.00000  Uiso   1.00
C544   C     0.47756   0.86183   0.41940   0.00000  Uiso   1.00
C545   C     0.66036   0.84225   0.23457   0.00000  Uiso   1.00
C546   C     0.34079   0.82433   0.26400   0.00000  Uiso   1.00
C547   C     0.51375   0.98915   0.23651   0.00000  Uiso   1.00
C548   C     0.48493   0.67832   0.26359   0.00000  Uiso   1.00
C549   C     0.48936   0.72249   0.26014   0.00000  Uiso   1.00
C550   C     0.50986   0.94456   0.24013   0.00000  Uiso   1.00
C551   C     0.47458   0.91688   0.47990   0.00000  Uiso   1.00
C552   C     0.51844   0.81454   0.12936   0.00000  Uiso   1.00
C553   C     0.48163   0.85109   0.37102   0.00000  Uiso   1.00
C554   C     0.52462   0.75149   0.02038   0.00000  Uiso   1.00
C555   C     0.52445   0.80519   0.08139   0.00000  Uiso   1.00
C556   C     0.47072   0.90275   0.43686   0.00000  Uiso   1.00
C557   C     0.56870   0.70626   0.47606   0.00000  Uiso   1.00
C558   C     0.59853   0.69498   0.00221   0.00000  Uiso   1.00
C559   C     0.43055   0.95904   0.02811   0.00000  Uiso   1.00
C560   C     0.42584   0.67063   0.04693   0.00000  Uiso   1.00
C561   C     0.36462   0.90205   0.20543   0.00000  Uiso   1.00
C562   C     0.48815   0.89093   0.00490   0.00000  Uiso   1.00
C563   C     0.40165   0.91853   0.16745   0.00000  Uiso   1.00
C564   C     0.41283   0.96582   0.17415   0.00000  Uiso   1.00
C565   C     0.49408   0.84897   0.48911   0.00000  Uiso   1.00
C566   C     0.48620   0.83386   0.44674   0.00000  Uiso   1.00
C567   C     0.50740   0.82145   0.01397   0.00000  Uiso   1.00
C568   C     0.51136   0.77921   0.49648   0.00000  Uiso   1.00
C569   C     0.49998   0.76454   0.45656   0.00000  Uiso   1.00
C570   C     0.48680   0.79109   0.43266   0.00000  Uiso   1.00
H571   H     0.53547   0.74180   0.08335   0.00000  Uiso   1.00
H572   H     0.58374   0.73457   0.45782   0.00000  Uiso   1.00
H573   H     0.56518   0.68033   0.45003   0.00000  Uiso   1.00
H574   H     0.58365   0.66673   0.02022   0.00000  Uiso   1.00
H575   H     0.62949   0.68845   0.47880   0.00000  Uiso   1.00
H576   H     0.60505   0.72128   0.02678   0.00000  Uiso   1.00
H577   H     0.42913   0.94041   0.05650   0.00000  Uiso   1.00
H578   H     0.40310   0.94686   0.01298   0.00000  Uiso   1.00
H579   H     0.42802   0.69054   0.01948   0.00000  Uiso   1.00
H580   H     0.39422   0.67194   0.07138   0.00000  Uiso   1.00
H581   H     0.45156   0.68288   0.06431   0.00000  Uiso   1.00
H582   H     0.65211   0.81105   0.29320   0.00000  Uiso   1.00
H583   H     0.37429   0.91043   0.23762   0.00000  Uiso   1.00
H584   H     0.33585   0.91725   0.20660   0.00000  Uiso   1.00
H585   H     0.43046   0.90332   0.16595   0.00000  Uiso   1.00
H586   H     0.39259   0.91054   0.13505   0.00000  Uiso   1.00
H587   H     0.38480   0.98178   0.17470   0.00000  Uiso   1.00
H588   H     0.43993   0.97660   0.14614   0.00000  Uiso   1.00
H589   H     0.42259   0.97449   0.20609   0.00000  Uiso   1.00
H590   H     0.54037   0.67047   0.21167   0.00000  Uiso   1.00
H591   H     0.45782   0.99775   0.28839   0.00000  Uiso   1.00
H592   H     0.50053   0.73205   0.44382   0.00000  Uiso   1.00
H593   H     0.51107   0.86465   0.07295   0.00000  Uiso   1.00
H594   H     0.46394   0.92448   0.41647   0.00000  Uiso   1.00
H595   H     0.49359   0.90485   0.03647   0.00000  Uiso   1.00
H596   H     0.47629   0.77728   0.40330   0.00000  Uiso   1.00
O597   O     0.50000   0.83333   0.25000   0.00000  Uiso   1.00
O598   O     0.48784   0.79304   0.15459   0.00000  Uiso   1.00
O599   O     0.46274   0.87058   0.34968   0.00000  Uiso   1.00
O600   O     0.54157   0.84425   0.14606   0.00000  Uiso   1.00
O601   O     0.50785   0.82546   0.34968   0.00000  Uiso   1.00
O602   O     0.52747   0.71010   0.00458   0.00000  Uiso   1.00
O603   O     0.46987   0.95799   0.49539   0.00000  Uiso   1.00
O604   O     0.35584   0.85833   0.19716   0.00000  Uiso   1.00
O605   O     0.51264   0.74686   0.28214   0.00000  Uiso   1.00
O606   O     0.47965   0.92751   0.27014   0.00000  Uiso   1.00
O607   O     0.40745   0.79958   0.23413   0.00000  Uiso   1.00
O608   O     0.60026   0.85939   0.21361   0.00000  Uiso   1.00
O609   O     0.40405   0.85544   0.28213   0.00000  Uiso   1.00
O610   O     0.58824   0.81892   0.27014   0.00000  Uiso   1.00
O611   O     0.47093   0.73610   0.23413   0.00000  Uiso   1.00
O612   O     0.53678   0.92286   0.21361   0.00000  Uiso   1.00
Zn613  Zn    0.52672   0.80661   0.28734   0.00000  Uiso   1.00
Zn614  Zn    0.46713   0.79124   0.21876   0.00000  Uiso   1.00
Zn615  Zn    0.54389   0.86442   0.20657   0.00000  Uiso   1.00
Zn616  Zn    0.46226   0.87106   0.28734   0.00000  Uiso   1.00
C617   C     0.71929   0.82600   0.26041   0.00000  Uiso   1.00
C618   C     0.84856   0.83392   0.05652   0.00000  Uiso   1.00
C619   C     0.86282   0.76433   0.06331   0.00000  Uiso   1.00
C620   C     0.94751   0.84038   0.23979   0.00000  Uiso   1.00
C621   C     0.81089   0.86183   0.41940   0.00000  Uiso   1.00
C622   C     0.99369   0.84225   0.23457   0.00000  Uiso   1.00
C623   C     0.67412   0.82433   0.26400   0.00000  Uiso   1.00
C624   C     0.84708   0.98915   0.23651   0.00000  Uiso   1.00
C625   C     0.81826   0.67832   0.26359   0.00000  Uiso   1.00
C626   C     0.82269   0.72249   0.26014   0.00000  Uiso   1.00
C627   C     0.84319   0.94456   0.24013   0.00000  Uiso   1.00
C628   C     0.80791   0.91688   0.47990   0.00000  Uiso   1.00
C629   C     0.85177   0.81454   0.12936   0.00000  Uiso   1.00
C630   C     0.81497   0.85109   0.37102   0.00000  Uiso   1.00
C631   C     0.85796   0.75149   0.02038   0.00000  Uiso   1.00
C632   C     0.85779   0.80519   0.08139   0.00000  Uiso   1.00
C633   C     0.80406   0.90275   0.43686   0.00000  Uiso   1.00
C634   C     0.90203   0.70626   0.47606   0.00000  Uiso   1.00
C635   C     0.93187   0.69498   0.00221   0.00000  Uiso   1.00
C636   C     0.76388   0.95904   0.02811   0.00000  Uiso   1.00
C637   C     0.75917   0.67063   0.04693   0.00000  Uiso   1.00
C638   C     0.69796   0.90205   0.20543   0.00000  Uiso   1.00
C639   C     0.82148   0.89093   0.00490   0.00000  Uiso   1.00
C640   C     0.73499   0.91853   0.16745   0.00000  Uiso   1.00
C641   C     0.74616   0.96582   0.17415   0.00000  Uiso   1.00
C642   C     0.82741   0.84897   0.48911   0.00000  Uiso   1.00
C643   C     0.81953   0.83386   0.44674   0.00000  Uiso   1.00
C644   C     0.84073   0.82145   0.01397   0.00000  Uiso   1.00
C645   C     0.84469   0.77921   0.49648   0.00000  Uiso   1.00
C646   C     0.83331   0.76454   0.45656   0.00000  Uiso   1.00
C647   C     0.82013   0.79109   0.43266   0.00000  Uiso   1.00
H648   H     0.86881   0.74180   0.08335   0.00000  Uiso   1.00
H649   H     0.91707   0.73457   0.45782   0.00000  Uiso   1.00
H650   H     0.89851   0.68033   0.45003   0.00000  Uiso   1.00
H651   H     0.91699   0.66673   0.02022   0.00000  Uiso   1.00
H652   H     0.96282   0.68845   0.47880   0.00000  Uiso   1.00
H653   H     0.93838   0.72128   0.02678   0.00000  Uiso   1.00
H654   H     0.76247   0.94041   0.05650   0.00000  Uiso   1.00
H655   H     0.73643   0.94686   0.01298   0.00000  Uiso   1.00
H656   H     0.76135   0.69054   0.01948   0.00000  Uiso   1.00
H657   H     0.72755   0.67194   0.07138   0.00000  Uiso   1.00
H658   H     0.78489   0.68288   0.06431   0.00000  Uiso   1.00
H659   H     0.98544   0.81105   0.29320   0.00000  Uiso   1.00
H660   H     0.70762   0.91043   0.23762   0.00000  Uiso   1.00
H661   H     0.66919   0.91725   0.20660   0.00000  Uiso   1.00
H662   H     0.76379   0.90332   0.16595   0.00000  Uiso   1.00
H663   H     0.72592   0.91054   0.13505   0.00000  Uiso   1.00
H664   H     0.71813   0.98178   0.17470   0.00000  Uiso   1.00
H665   H     0.77326   0.97660   0.14614   0.00000  Uiso   1.00
H666   H     0.75592   0.97449   0.20609   0.00000  Uiso   1.00
H667   H     0.87370   0.67047   0.21167   0.00000  Uiso   1.00
H668   H     0.79116   0.99775   0.28839   0.00000  Uiso   1.00
H669   H     0.83386   0.73205   0.44382   0.00000  Uiso   1.00
H670   H     0.84440   0.86465   0.07295   0.00000  Uiso   1.00
H671   H     0.79727   0.92448   0.41647   0.00000  Uiso   1.00
H672   H     0.82692   0.90485   0.03647   0.00000  Uiso   1.00
H673   H     0.80963   0.77728   0.40330   0.00000  Uiso   1.00
O674   O     0.83333   0.83333   0.25000   0.00000  Uiso   1.00
O675   O     0.82118   0.79304   0.15459   0.00000  Uiso   1.00
O676   O     0.79607   0.87058   0.34968   0.00000  Uiso   1.00
O677   O     0.87491   0.84425   0.14606   0.00000  Uiso   1.00
O678   O     0.84118   0.82546   0.34968   0.00000  Uiso   1.00
O679   O     0.86080   0.71010   0.00458   0.00000  Uiso   1.00
O680   O     0.80320   0.95799   0.49539   0.00000  Uiso   1.00
O681   O     0.68917   0.85833   0.19716   0.00000  Uiso   1.00
O682   O     0.84597   0.74686   0.28214   0.00000  Uiso   1.00
O683   O     0.81298   0.92751   0.27014   0.00000  Uiso   1.00
O684   O     0.74078   0.79958   0.23413   0.00000  Uiso   1.00
O685   O     0.93360   0.85939   0.21361   0.00000  Uiso   1.00
O686   O     0.73738   0.85544   0.28213   0.00000  Uiso   1.00
O687   O     0.92158   0.81892   0.27014   0.00000  Uiso   1.00
O688   O     0.80426   0.73610   0.23413   0.00000  Uiso   1.00
O689   O     0.87012   0.92286   0.21361   0.00000  Uiso   1.00
Zn690  Zn    0.86005   0.80661   0.28734   0.00000  Uiso   1.00
Zn691  Zn    0.80046   0.79124   0.21876   0.00000  Uiso   1.00
Zn692  Zn    0.87723   0.86442   0.20657   0.00000  Uiso   1.00
Zn693  Zn    0.79560   0.87106   0.28734   0.00000  Uiso   1.00
C694   C     0.05263   0.15933   0.76041   0.00000  Uiso   1.00
C695   C     0.18189   0.16726   0.55652   0.00000  Uiso   1.00
C696   C     0.19615   0.09767   0.56331   0.00000  Uiso   1.00
C697   C     0.28084   0.17372   0.73979   0.00000  Uiso   1.00
C698   C     0.14423   0.19516   0.91940   0.00000  Uiso   1.00
C699   C     0.32703   0.17558   0.73457   0.00000  Uiso   1.00
C700   C     0.00745   0.15766   0.76400   0.00000  Uiso   1.00
C701   C     0.18041   0.32248   0.73651   0.00000  Uiso   1.00
C702   C     0.15159   0.01165   0.76359   0.00000  Uiso   1.00
C703   C     0.15602   0.05582   0.76014   0.00000  Uiso   1.00
C704   C     0.17652   0.27789   0.74013   0.00000  Uiso   1.00
C705   C     0.14124   0.25021   0.97990   0.00000  Uiso   1.00
C706   C     0.18511   0.14787   0.62936   0.00000  Uiso   1.00
C707   C     0.14830   0.18443   0.87102   0.00000  Uiso   1.00
C708   C     0.19129   0.08482   0.52038   0.00000  Uiso   1.00
C709   C     0.19112   0.13853   0.58139   0.00000  Uiso   1.00
C710   C     0.13739   0.23608   0.93686   0.00000  Uiso   1.00
C711   C     0.23537   0.03959   0.97606   0.00000  Uiso   1.00
C712   C     0.26520   0.02831   0.50221   0.00000  Uiso   1.00
C713   C     0.09722   0.29237   0.52811   0.00000  Uiso   1.00
C714   C     0.09251   0.00396   0.54693   0.00000  Uiso   1.00
C715   C     0.03129   0.23538   0.70543   0.00000  Uiso   1.00
C716   C     0.15482   0.22426   0.50490   0.00000  Uiso   1.00
C717   C     0.06832   0.25187   0.66745   0.00000  Uiso   1.00
C718   C     0.07950   0.29915   0.67415   0.00000  Uiso   1.00
C719   C     0.16075   0.18231   0.98911   0.00000  Uiso   1.00
C720   C     0.15286   0.16719   0.94674   0.00000  Uiso   1.00
C721   C     0.17406   0.15479   0.51397   0.00000  Uiso   1.00
C722   C     0.17802   0.11254   0.99648   0.00000  Uiso   1.00
C723   C     0.16664   0.09787   0.95656   0.00000  Uiso   1.00
C724   C     0.15346   0.12443   0.93266   0.00000  Uiso   1.00
H725   H     0.20214   0.07513   0.58335   0.00000  Uiso   1.00
H726   H     0.25040   0.06790   0.95782   0.00000  Uiso   1.00
H727   H     0.23185   0.01367   0.95003   0.00000  Uiso   1.00
H728   H     0.25032   0.00007   0.52022   0.00000  Uiso   1.00
H729   H     0.29616   0.02178   0.97880   0.00000  Uiso   1.00
H730   H     0.27171   0.05462   0.52678   0.00000  Uiso   1.00
H731   H     0.09580   0.27375   0.55650   0.00000  Uiso   1.00
H732   H     0.06977   0.28020   0.51298   0.00000  Uiso   1.00
H733   H     0.09468   0.02387   0.51948   0.00000  Uiso   1.00
H734   H     0.06089   0.00527   0.57138   0.00000  Uiso   1.00
H735   H     0.11823   0.01621   0.56431   0.00000  Uiso   1.00
H736   H     0.31877   0.14438   0.79320   0.00000  Uiso   1.00
H737   H     0.04095   0.24377   0.73762   0.00000  Uiso   1.00
H738   H     0.00252   0.25059   0.70660   0.00000  Uiso   1.00
H739   H     0.09712   0.23665   0.66595   0.00000  Uiso   1.00
H740   H     0.05926   0.24387   0.63505   0.00000  Uiso   1.00
H741   H     0.05147   0.31511   0.67470   0.00000  Uiso   1.00
H742   H     0.10659   0.30993   0.64614   0.00000  Uiso   1.00
H743   H     0.08925   0.30783   0.70609   0.00000  Uiso   1.00
H744   H     0.20703   0.00380   0.71167   0.00000  Uiso   1.00
H745   H     0.12449   0.33108   0.78839   0.00000  Uiso   1.00
H746   H     0.16719   0.06538   0.94382   0.00000  Uiso   1.00
H747   H     0.17773   0.19798   0.57295   0.00000  Uiso   1.00
H748   H     0.13060   0.25782   0.91647   0.00000  Uiso   1.00
H749   H     0.16026   0.23818   0.53647   0.00000  Uiso   1.00
H750   H     0.14296   0.11061   0.90330   0.00000  Uiso   1.00
O751   O     0.16667   0.16667   0.75000   0.00000  Uiso   1.00
O752   O     0.15451   0.12637   0.65459   0.00000  Uiso   1.00
O753   O     0.12940   0.20391   0.84968   0.00000  Uiso   1.00
O754   O     0.20824   0.17759   0.64606   0.00000  Uiso   1.00
O755   O     0.17451   0.15880   0.84968   0.00000  Uiso   1.00
O756   O     0.19413   0.04343   0.50458   0.00000  Uiso   1.00
O757   O     0.13654   0.29132   0.99539   0.00000  Uiso   1.00
O758   O     0.02251   0.19166   0.69716   0.00000  Uiso   1.00
O759   O     0.17930   0.08019   0.78214   0.00000  Uiso   1.00
O760   O     0.14632   0.26085   0.77014   0.00000  Uiso   1.00
O761   O     0.07412   0.13291   0.73413   0.00000  Uiso   1.00
O762   O     0.26693   0.19272   0.71361   0.00000  Uiso   1.00
O763   O     0.07071   0.18878   0.78213   0.00000  Uiso   1.00
O764   O     0.25491   0.15226   0.77014   0.00000  Uiso   1.00
O765   O     0.13760   0.06944   0.73413   0.00000  Uiso   1.00
O766   O     0.20345   0.25620   0.71361   0.00000  Uiso   1.00
Zn767  Zn    0.19338   0.13994   0.78734   0.00000  Uiso   1.00
Zn768  Zn    0.13379   0.12458   0.71876   0.00000  Uiso   1.00
Zn769  Zn    0.21056   0.19775   0.70657   0.00000  Uiso   1.00
Zn770  Zn    0.12893   0.20439   0.78734   0.00000  Uiso   1.00
C771   C     0.38596   0.15933   0.76041   0.00000  Uiso   1.00
C772   C     0.51523   0.16726   0.55652   0.00000  Uiso   1.00
C773   C     0.52948   0.09767   0.56331   0.00000  Uiso   1.00
C774   C     0.61417   0.17372   0.73979   0.00000  Uiso   1.00
C775   C     0.47756   0.19516   0.91940   0.00000  Uiso   1.00
C776   C     0.66036   0.17558   0.73457   0.00000  Uiso   1.00
C777   C     0.34079   0.15766   0.76400   0.00000  Uiso   1.00
C778   C     0.51375   0.32248   0.73651   0.00000  Uiso   1.00
C779   C     0.48493   0.01165   0.76359   0.00000  Uiso   1.00
C780   C     0.48936   0.05582   0.76014   0.00000  Uiso   1.00
C781   C     0.50986   0.27789   0.74013   0.00000  Uiso   1.00
C782   C     0.47458   0.25021   0.97990   0.00000  Uiso   1.00
C783   C     0.51844   0.14787   0.62936   0.00000  Uiso   1.00
C784   C     0.48163   0.18443   0.87102   0.00000  Uiso   1.00
C785   C     0.52462   0.08482   0.52038   0.00000  Uiso   1.00
C786   C     0.52445   0.13853   0.58139   0.00000  Uiso   1.00
C787   C     0.47072   0.23608   0.93686   0.00000  Uiso   1.00
C788   C     0.56870   0.03959   0.97606   0.00000  Uiso   1.00
C789   C     0.59853   0.02831   0.50221   0.00000  Uiso   1.00
C790   C     0.43055   0.29237   0.52811   0.00000  Uiso   1.00
C791   C     0.42584   0.00396   0.54693   0.00000  Uiso   1.00
C792   C     0.36462   0.23538   0.70543   0.00000  Uiso   1.00
C793   C     0.48815   0.22426   0.50490   0.00000  Uiso   1.00
C794   C     0.40165   0.25187   0.66745   0.00000  Uiso   1.00
C795   C     0.41283   0.29915   0.67415   0.00000  Uiso   1.00
C796   C     0.49408   0.18231   0.98911   0.00000  Uiso   1.00
C797   C     0.48620   0.16719   0.94674   0.00000  Uiso   1.00
C798   C     0.50740   0.15479   0.51397   0.00000  Uiso   1.00
C799   C     0.51136   0.11254   0.99648   0.00000  Uiso   1.00
C800   C     0.49998   0.09787   0.95656   0.00000  Uiso   1.00
C801   C     0.48680   0.12443   0.93266   0.00000  Uiso   1.00
H802   H     0.53547   0.07513   0.58335   0.00000  Uiso   1.00
H803   H     0.58374   0.06790   0.95782   0.00000  Uiso   1.00
H804   H     0.56518   0.01367   0.95003   0.00000  Uiso   1.00
H805   H     0.58365   0.00007   0.52022   0.00000  Uiso   1.00
H806   H     0.62949   0.02178   0.97880   0.00000  Uiso   1.00
H807   H     0.60505   0.05462   0.52678   0.00000  Uiso   1.00
H808   H     0.42913   0.27375   0.55650   0.00000  Uiso   1.00
H809   H     0.40310   0.28020   0.51298   0.00000  Uiso   1.00
H810   H     0.42802   0.02387   0.51948   0.00000  Uiso   1.00
H811   H     0.39422   0.00527   0.57138   0.00000  Uiso   1.00
H812   H     0.45156   0.01621   0.56431   0.00000  Uiso   1.00
H813   H     0.65211   0.14438   0.79320   0.00000  Uiso   1.00
H814   H     0.37429   0.24377   0.73762   0.00000  Uiso   1.00
H815   H     0.33585   0.25059   0.70660   0.00000  Uiso   1.00
H816   H     0.43046   0.23665   0.66595   0.00000  Uiso   1.00
H817   H     0.39259   0.24387   0.63505   0.00000  Uiso   1.00
H818   H     0.38480   0.31511   0.67470   0.00000  Uiso   1.00
H819   H     0.43993   0.30993   0.64614   0.00000  Uiso   1.00
H820   H     0.42259   0.30783   0.70609   0.00000  Uiso   1.00
H821   H     0.54037   0.00380   0.71167   0.00000  Uiso   1.00
H822   H     0.45782   0.33108   0.78839   0.00000  Uiso   1.00
H823   H     0.50053   0.06538   0.94382   0.00000  Uiso   1.00
H824   H     0.51107   0.19798   0.57295   0.00000  Uiso   1.00
H825   H     0.46394   0.25782   0.91647   0.00000  Uiso   1.00
H826   H     0.49359   0.23818   0.53647   0.00000  Uiso   1.00
H827   H     0.47629   0.11061   0.90330   0.00000  Uiso   1.00
O828   O     0.50000   0.16667   0.75000   0.00000  Uiso   1.00
O829   O     0.48784   0.12637   0.65459   0.00000  Uiso   1.00
O830   O     0.46274   0.20391   0.84968   0.00000  Uiso   1.00
O831   O     0.54157   0.17759   0.64606   0.00000  Uiso   1.00
O832   O     0.50785   0.15880   0.84968   0.00000  Uiso   1.00
O833   O     0.52747   0.04343   0.50458   0.00000  Uiso   1.00
O834   O     0.46987   0.29132   0.99539   0.00000  Uiso   1.00
O835   O     0.35584   0.19166   0.69716   0.00000  Uiso   1.00
O836   O     0.51264   0.08019   0.78214   0.00000  Uiso   1.00
O837   O     0.47965   0.26085   0.77014   0.00000  Uiso   1.00
O838   O     0.40745   0.13291   0.73413   0.00000  Uiso   1.00
O839   O     0.60026   0.19272   0.71361   0.00000  Uiso   1.00
O840   O     0.40405   0.18878   0.78213   0.00000  Uiso   1.00
O841   O     0.58824   0.15226   0.77014   0.00000  Uiso   1.00
O842   O     0.47093   0.06944   0.73413   0.00000  Uiso   1.00
O843   O     0.53678   0.25620   0.71361   0.00000  Uiso   1.00
Zn844  Zn    0.52672   0.13994   0.78734   0.00000  Uiso   1.00
Zn845  Zn    0.46713   0.12458   0.71876   0.00000  Uiso   1.00
Zn846  Zn    0.54389   0.19775   0.70657   0.00000  Uiso   1.00
Zn847  Zn    0.46226   0.20439   0.78734   0.00000  Uiso   1.00
C848   C     0.71929   0.15933   0.76041   0.00000  Uiso   1.00
C849   C     0.84856   0.16726   0.55652   0.00000  Uiso   1.00
C850   C     0.86282   0.09767   0.56331   0.00000  Uiso   1.00
C851   C     0.94751   0.17372   0.73979   0.00000  Uiso   1.00
C852   C     0.81089   0.19516   0.91940   0.00000  Uiso   1.00
C853   C     0.99369   0.17558   0.73457   0.00000  Uiso   1.00
C854   C     0.67412   0.15766   0.76400   0.00000  Uiso   1.00
C855   C     0.84708   0.32248   0.73651   0.00000  Uiso   1.00
C856   C     0.81826   0.01165   0.76359   0.00000  Uiso   1.00
C857   C     0.82269   0.05582   0.76014   0.00000  Uiso   1.00
C858   C     0.84319   0.27789   0.74013   0.00000  Uiso   1.00
C859   C     0.80791   0.25021   0.97990   0.00000  Uiso   1.00
C860   C     0.85177   0.14787   0.62936   0.00000  Uiso   1.00
C861   C     0.81497   0.18443   0.87102   0.00000  Uiso   1.00
C862   C     0.85796   0.08482   0.52038   0.00000  Uiso   1.00
C863   C     0.85779   0.13853   0.58139   0.00000  Uiso   1.00
C864   C     0.80406   0.23608   0.93686   0.00000  Uiso   1.00
C865   C     0.90203   0.03959   0.97606   0.00000  Uiso   1.00
C866   C     0.93187   0.02831   0.50221   0.00000  Uiso   1.00
C867   C     0.76388   0.29237   0.52811   0.00000  Uiso   1.00
C868   C     0.75917   0.00396   0.54693   0.00000  Uiso   1.00
C869   C     0.69796   0.23538   0.70543   0.00000  Uiso   1.00
C870   C     0.82148   0.22426   0.50490   0.00000  Uiso   1.00
C871   C     0.73499   0.25187   0.66745   0.00000  Uiso   1.00
C872   C     0.74616   0.29915   0.67415   0.00000  Uiso   1.00
C873   C     0.82741   0.18231   0.98911   0.00000  Uiso   1.00
C874   C     0.81953   0.16719   0.94674   0.00000  Uiso   1.00
C875   C     0.84073   0.15479   0.51397   0.00000  Uiso   1.00
C876   C     0.84469   0.11254   0.99648   0.00000  Uiso   1.00
C877   C     0.83331   0.09787   0.95656   0.00000  Uiso   1.00
C878   C     0.82013   0.12443   0.93266   0.00000  Uiso   1.00
H879   H     0.86881   0.07513   0.58335   0.00000  Uiso   1.00
H880   H     0.91707   0.06790   0.95782   0.00000  Uiso   1.00
H881   H     0.89851   0.01367   0.95003   0.00000  Uiso   1.00
H882   H     0.91699   0.00007   0.52022   0.00000  Uiso   1.00
H883   H     0.96282   0.02178   0.97880   0.00000  Uiso   1.00
H884   H     0.93838   0.05462   0.52678   0.00000  Uiso   1.00
H885   H     0.76247   0.27375   0.55650   0.00000  Uiso   1.00
H886   H     0.73643   0.28020   0.51298   0.00000  Uiso   1.00
H887   H     0.76135   0.02387   0.51948   0.00000  Uiso   1.00
H888   H     0.72755   0.00527   0.57138   0.00000  Uiso   1.00
H889   H     0.78489   0.01621   0.56431   0.00000  Uiso   1.00
H890   H     0.98544   0.14438   0.79320   0.00000  Uiso   1.00
H891   H     0.70762   0.24377   0.73762   0.00000  Uiso   1.00
H892   H     0.66919   0.25059   0.70660   0.00000  Uiso   1.00
H893   H     0.76379   0.23665   0.66595   0.00000  Uiso   1.00
H894   H     0.72592   0.24387   0.63505   0.00000  Uiso   1.00
H895   H     0.71813   0.31511   0.67470   0.00000  Uiso   1.00
H896   H     0.77326   0.30993   0.64614   0.00000  Uiso   1.00
H897   H     0.75592   0.30783   0.70609   0.00000  Uiso   1.00
H898   H     0.87370   0.00380   0.71167   0.00000  Uiso   1.00
H899   H     0.79116   0.33108   0.78839   0.00000  Uiso   1.00
H900   H     0.83386   0.06538   0.94382   0.00000  Uiso   1.00
H901   H     0.84440   0.19798   0.57295   0.00000  Uiso   1.00
H902   H     0.79727   0.25782   0.91647   0.00000  Uiso   1.00
H903   H     0.82692   0.23818   0.53647   0.00000  Uiso   1.00
H904   H     0.80963   0.11061   0.90330   0.00000  Uiso   1.00
O905   O     0.83333   0.16667   0.75000   0.00000  Uiso   1.00
O906   O     0.82118   0.12637   0.65459   0.00000  Uiso   1.00
O907   O     0.79607   0.20391   0.84968   0.00000  Uiso   1.00
O908   O     0.87491   0.17759   0.64606   0.00000  Uiso   1.00
O909   O     0.84118   0.15880   0.84968   0.00000  Uiso   1.00
O910   O     0.86080   0.04343   0.50458   0.00000  Uiso   1.00
O911   O     0.80320   0.29132   0.99539   0.00000  Uiso   1.00
O912   O     0.68917   0.19166   0.69716   0.00000  Uiso   1.00
O913   O     0.84597   0.08019   0.78214   0.00000  Uiso   1.00
O914   O     0.81298   0.26085   0.77014   0.00000  Uiso   1.00
O915   O     0.74078   0.13291   0.73413   0.00000  Uiso   1.00
O916   O     0.93360   0.19272   0.71361   0.00000  Uiso   1.00
O917   O     0.73738   0.18878   0.78213   0.00000  Uiso   1.00
O918   O     0.92158   0.15226   0.77014   0.00000  Uiso   1.00
O919   O     0.80426   0.06944   0.73413   0.00000  Uiso   1.00
O920   O     0.87012   0.25620   0.71361   0.00000  Uiso   1.00
Zn921  Zn    0.86005   0.13994   0.78734   0.00000  Uiso   1.00
Zn922  Zn    0.80046   0.12458   0.71876   0.00000  Uiso   1.00
Zn923  Zn    0.87723   0.19775   0.70657   0.00000  Uiso   1.00
Zn924  Zn    0.79560   0.20439   0.78734   0.00000  Uiso   1.00
C925   C     0.05263   0.49266   0.76041   0.00000  Uiso   1.00
C926   C     0.18189   0.50059   0.55652   0.00000  Uiso   1.00
C927   C     0.19615   0.43100   0.56331   0.00000  Uiso   1.00
C928   C     0.28084   0.50705   0.73979   0.00000  Uiso   1.00
C929   C     0.14423   0.52849   0.91940   0.00000  Uiso   1.00
C930   C     0.32703   0.50892   0.73457   0.00000  Uiso   1.00
C931   C     0.00745   0.49100   0.76400   0.00000  Uiso   1.00
C932   C     0.18041   0.65581   0.73651   0.00000  Uiso   1.00
C933   C     0.15159   0.34498   0.76359   0.00000  Uiso   1.00
C934   C     0.15602   0.38916   0.76014   0.00000  Uiso   1.00
C935   C     0.17652   0.61122   0.74013   0.00000  Uiso   1.00
C936   C     0.14124   0.58355   0.97990   0.00000  Uiso   1.00
C937   C     0.18511   0.48120   0.62936   0.00000  Uiso   1.00
C938   C     0.14830   0.51776   0.87102   0.00000  Uiso   1.00
C939   C     0.19129   0.41815   0.52038   0.00000  Uiso   1.00
C940   C     0.19112   0.47186   0.58139   0.00000  Uiso   1.00
C941   C     0.13739   0.56941   0.93686   0.00000  Uiso   1.00
C942   C     0.23537   0.37292   0.97606   0.00000  Uiso   1.00
C943   C     0.26520   0.36165   0.50221   0.00000  Uiso   1.00
C944   C     0.09722   0.62570   0.52811   0.00000  Uiso   1.00
C945   C     0.09251   0.33730   0.54693   0.00000  Uiso   1.00
C946   C     0.03129   0.56872   0.70543   0.00000  Uiso   1.00
C947   C     0.15482   0.55760   0.50490   0.00000  Uiso   1.00
C948   C     0.06832   0.58520   0.66745   0.00000  Uiso   1.00
C949   C     0.07950   0.63249   0.67415   0.00000  Uiso   1.00
C950   C     0.16075   0.51564   0.98911   0.00000  Uiso   1.00
C951   C     0.15286   0.50053   0.94674   0.00000  Uiso   1.00
C952   C     0.17406   0.48812   0.51397   0.00000  Uiso   1.00
C953   C     0.17802   0.44588   0.99648   0.00000  Uiso   1.00
C954   C     0.16664   0.43120   0.95656   0.00000  Uiso   1.00
C955   C     0.15346   0.45776   0.93266   0.00000  Uiso   1.00
H956   H     0.20214   0.40847   0.58335   0.00000  Uiso   1.00
H957   H     0.25040   0.40124   0.95782   0.00000  Uiso   1.00
H958   H     0.23185   0.34700   0.95003   0.00000  Uiso   1.00
H959   H     0.25032   0.33340   0.52022   0.00000  Uiso   1.00
H960   H     0.29616   0.35511   0.97880   0.00000  Uiso   1.00
H961   H     0.27171   0.38795   0.52678   0.00000  Uiso   1.00
H962   H     0.09580   0.60708   0.55650   0.00000  Uiso   1.00
H963   H     0.06977   0.61353   0.51298   0.00000  Uiso   1.00
H964   H     0.09468   0.35721   0.51948   0.00000  Uiso   1.00
H965   H     0.06089   0.33861   0.57138   0.00000  Uiso   1.00
H966   H     0.11823   0.34954   0.56431   0.00000  Uiso   1.00
H967   H     0.31877   0.47772   0.79320   0.00000  Uiso   1.00
H968   H     0.04095   0.57710   0.73762   0.00000  Uiso   1.00
H969   H     0.00252   0.58392   0.70660   0.00000  Uiso   1.00
H970   H     0.09712   0.56998   0.66595   0.00000  Uiso   1.00
H971   H     0.05926   0.57721   0.63505   0.00000  Uiso   1.00
H972   H     0.05147   0.64844   0.67470   0.00000  Uiso   1.00
H973   H     0.10659   0.64326   0.64614   0.00000  Uiso   1.00
H974   H     0.08925   0.64116   0.70609   0.00000  Uiso   1.00
H975   H     0.20703   0.33713   0.71167   0.00000  Uiso   1.00
H976   H     0.12449   0.66442   0.78839   0.00000  Uiso   1.00
H977   H     0.16719   0.39872   0.94382   0.00000  Uiso   1.00
H978   H     0.17773   0.53131   0.57295   0.00000  Uiso   1.00
H979   H     0.13060   0.59115   0.91647   0.00000  Uiso   1.00
H980   H     0.16026   0.57151   0.53647   0.00000  Uiso   1.00
H981   H     0.14296   0.44395   0.90330   0.00000  Uiso   1.00
O982   O     0.16667   0.50000   0.75000   0.00000  Uiso   1.00
O983   O     0.15451   0.45970   0.65459   0.00000  Uiso   1.00
O984   O     0.12940   0.53724   0.84968   0.00000  Uiso   1.00
O985   O     0.20824   0.51092   0.64606   0.00000  Uiso   1.00
O986   O     0.17451   0.49213   0.84968   0.00000  Uiso   1.00
O987   O     0.19413   0.37677   0.50458   0.00000  Uiso   1.00
O988   O     0.13654   0.62465   0.99539   0.00000  Uiso   1.00
O989   O     0.02251   0.52499   0.69716   0.00000  Uiso   1.00
O990   O     0.17930   0.41352   0.78214   0.00000  Uiso   1.00
O991   O     0.14632   0.59418   0.77014   0.00000  Uiso   1.00
O992   O     0.07412   0.46625   0.73413   0.00000  Uiso   1.00
O993   O     0.26693   0.52605   0.71361   0.00000  Uiso   1.00
O994   O     0.07071   0.52211   0.78213   0.00000  Uiso   1.00
O995   O     0.25491   0.48559   0.77014   0.00000  Uiso   1.00
O996   O     0.13760   0.40277   0.73413   0.00000  Uiso   1.00
O997   O     0.20345   0.58953   0.71361   0.00000  Uiso   1.00
Zn998  Zn    0.19338   0.47327   0.78734   0.00000  Uiso   1.00
Zn999  Zn    0.13379   0.45791   0.71876   0.00000  Uiso   1.00
Zn1000 Zn    0.21056   0.53109   0.70657   0.00000  Uiso   1.00
Zn1001 Zn    0.12893   0.53773   0.78734   0.00000  Uiso   1.00
C1002  C     0.38596   0.49266   0.76041   0.00000  Uiso   1.00
C1003  C     0.51523   0.50059   0.55652   0.00000  Uiso   1.00
C1004  C     0.52948   0.43100   0.56331   0.00000  Uiso   1.00
C1005  C     0.61417   0.50705   0.73979   0.00000  Uiso   1.00
C1006  C     0.47756   0.52849   0.91940   0.00000  Uiso   1.00
C1007  C     0.66036   0.50892   0.73457   0.00000  Uiso   1.00
C1008  C     0.34079   0.49100   0.76400   0.00000  Uiso   1.00
C1009  C     0.51375   0.65581   0.73651   0.00000  Uiso   1.00
C1010  C     0.48493   0.34498   0.76359   0.00000  Uiso   1.00
C1011  C     0.48936   0.38916   0.76014   0.00000  Uiso   1.00
C1012  C     0.50986   0.61122   0.74013   0.00000  Uiso   1.00
C1013  C     0.47458   0.58355   0.97990   0.00000  Uiso   1.00
C1014  C     0.51844   0.48120   0.62936   0.00000  Uiso   1.00
C1015  C     0.48163   0.51776   0.87102   0.00000  Uiso   1.00
C1016  C     0.52462   0.41815   0.52038   0.00000  Uiso   1.00
C1017  C     0.52445   0.47186   0.58139   0.00000  Uiso   1.00
C1018  C     0.47072   0.56941   0.93686   0.00000  Uiso   1.00
C1019  C     0.56870   0.37292   0.97606   0.00000  Uiso   1.00
C1020  C     0.59853   0.36165   0.50221   0.00000  Uiso   1.00
C1021  C     0.43055   0.62570   0.52811   0.00000  Uiso   1.00
C1022  C     0.42584   0.33730   0.54693   0.00000  Uiso   1.00
C1023  C     0.36462   0.56872   0.70543   0.00000  Uiso   1.00
C1024  C     0.48815   0.55760   0.50490   0.00000  Uiso   1.00
C1025  C     0.40165   0.58520   0.66745   0.00000  Uiso   1.00
C1026  C     0.41283   0.63249   0.67415   0.00000  Uiso   1.00
C1027  C     0.49408   0.51564   0.98911   0.00000  Uiso   1.00
C1028  C     0.48620   0.50053   0.94674   0.00000  Uiso   1.00
C1029  C     0.50740   0.48812   0.51397   0.00000  Uiso   1.00
C1030  C     0.51136   0.44588   0.99648   0.00000  Uiso   1.00
C1031  C     0.49998   0.43120   0.95656   0.00000  Uiso   1.00
C1032  C     0.48680   0.45776   0.93266   0.00000  Uiso   1.00
H1033  H     0.53547   0.40847   0.58335   0.00000  Uiso   1.00
H1034  H     0.58374   0.40124   0.95782   0.00000  Uiso   1.00
H1035  H     0.56518   0.34700   0.95003   0.00000  Uiso   1.00
H1036  H     0.58365   0.33340   0.52022   0.00000  Uiso   1.00
H1037  H     0.62949   0.35511   0.97880   0.00000  Uiso   1.00
H1038  H     0.60505   0.38795   0.52678   0.00000  Uiso   1.00
H1039  H     0.42913   0.60708   0.55650   0.00000  Uiso   1.00
H1040  H     0.40310   0.61353   0.51298   0.00000  Uiso   1.00
H1041  H     0.42802   0.35721   0.51948   0.00000  Uiso   1.00
H1042  H     0.39422   0.33861   0.57138   0.00000  Uiso   1.00
H1043  H     0.45156   0.34954   0.56431   0.00000  Uiso   1.00
H1044  H     0.65211   0.47772   0.79320   0.00000  Uiso   1.00
H1045  H     0.37429   0.57710   0.73762   0.00000  Uiso   1.00
H1046  H     0.33585   0.58392   0.70660   0.00000  Uiso   1.00
H1047  H     0.43046   0.56998   0.66595   0.00000  Uiso   1.00
H1048  H     0.39259   0.57721   0.63505   0.00000  Uiso   1.00
H1049  H     0.38480   0.64844   0.67470   0.00000  Uiso   1.00
H1050  H     0.43993   0.64326   0.64614   0.00000  Uiso   1.00
H1051  H     0.42259   0.64116   0.70609   0.00000  Uiso   1.00
H1052  H     0.54037   0.33713   0.71167   0.00000  Uiso   1.00
H1053  H     0.45782   0.66442   0.78839   0.00000  Uiso   1.00
H1054  H     0.50053   0.39872   0.94382   0.00000  Uiso   1.00
H1055  H     0.51107   0.53131   0.57295   0.00000  Uiso   1.00
H1056  H     0.46394   0.59115   0.91647   0.00000  Uiso   1.00
H1057  H     0.49359   0.57151   0.53647   0.00000  Uiso   1.00
H1058  H     0.47629   0.44395   0.90330   0.00000  Uiso   1.00
O1059  O     0.50000   0.50000   0.75000   0.00000  Uiso   1.00
O1060  O     0.48784   0.45970   0.65459   0.00000  Uiso   1.00
O1061  O     0.46274   0.53724   0.84968   0.00000  Uiso   1.00
O1062  O     0.54157   0.51092   0.64606   0.00000  Uiso   1.00
O1063  O     0.50785   0.49213   0.84968   0.00000  Uiso   1.00
O1064  O     0.52747   0.37677   0.50458   0.00000  Uiso   1.00
O1065  O     0.46987   0.62465   0.99539   0.00000  Uiso   1.00
O1066  O     0.35584   0.52499   0.69716   0.00000  Uiso   1.00
O1067  O     0.51264   0.41352   0.78214   0.00000  Uiso   1.00
O1068  O     0.47965   0.59418   0.77014   0.00000  Uiso   1.00
O1069  O     0.40745   0.46625   0.73413   0.00000  Uiso   1.00
O1070  O     0.60026   0.52605   0.71361   0.00000  Uiso   1.00
O1071  O     0.40405   0.52211   0.78213   0.00000  Uiso   1.00
O1072  O     0.58824   0.48559   0.77014   0.00000  Uiso   1.00
O1073  O     0.47093   0.40277   0.73413   0.00000  Uiso   1.00
O1074  O     0.53678   0.58953   0.71361   0.00000  Uiso   1.00
Zn1075 Zn    0.52672   0.47327   0.78734   0.00000  Uiso   1.00
Zn1076 Zn    0.46713   0.45791   0.71876   0.00000  Uiso   1.00
Zn1077 Zn    0.54389   0.53109   0.70657   0.00000  Uiso   1.00
Zn1078 Zn    0.46226   0.53773   0.78734   0.00000  Uiso   1.00
C1079  C     0.71929   0.49266   0.76041   0.00000  Uiso   1.00
C1080  C     0.84856   0.50059   0.55652   0.00000  Uiso   1.00
C1081  C     0.86282   0.43100   0.56331   0.00000  Uiso   1.00
C1082  C     0.94751   0.50705   0.73979   0.00000  Uiso   1.00
C1083  C     0.81089   0.52849   0.91940   0.00000  Uiso   1.00
C1084  C     0.99369   0.50892   0.73457   0.00000  Uiso   1.00
C1085  C     0.67412   0.49100   0.76400   0.00000  Uiso   1.00
C1086  C     0.84708   0.65581   0.73651   0.00000  Uiso   1.00
C1087  C     0.81826   0.34498   0.76359   0.00000  Uiso   1.00
C1088  C     0.82269   0.38916   0.76014   0.00000  Uiso   1.00
C1089  C     0.84319   0.61122   0.74013   0.00000  Uiso   1.00
C1090  C     0.80791   0.58355   0.97990   0.00000  Uiso   1.00
C1091  C     0.85177   0.48120   0.62936   0.00000  Uiso   1.00
C1092  C     0.81497   0.51776   0.87102   0.00000  Uiso   1.00
C1093  C     0.85796   0.41815   0.52038   0.00000  Uiso   1.00
C1094  C     0.85779   0.47186   0.58139   0.00000  Uiso   1.00
C1095  C     0.80406   0.56941   0.93686   0.00000  Uiso   1.00
C1096  C     0.90203   0.37292   0.97606   0.00000  Uiso   1.00
C1097  C     0.93187   0.36165   0.50221   0.00000  Uiso   1.00
C1098  C     0.76388   0.62570   0.52811   0.00000  Uiso   1.00
C1099  C     0.75917   0.33730   0.54693   0.00000  Uiso   1.00
C1100  C     0.69796   0.56872   0.70543   0.00000  Uiso   1.00
C1101  C     0.82148   0.55760   0.50490   0.00000  Uiso   1.00
C1102  C     0.73499   0.58520   0.66745   0.00000  Uiso   1.00
C1103  C     0.74616   0.63249   0.67415   0.00000  Uiso   1.00
C1104  C     0.82741   0.51564   0.98911   0.00000  Uiso   1.00
C1105  C     0.81953   0.50053   0.94674   0.00000  Uiso   1.00
C1106  C     0.84073   0.48812   0.51397   0.00000  Uiso   1.00
C1107  C     0.84469   0.44588   0.99648   0.00000  Uiso   1.00
C1108  C     0.83331   0.43120   0.95656   0.00000  Uiso   1.00
C1109  C     0.82013   0.45776   0.93266   0.00000  Uiso   1.00
H1110  H     0.86881   0.40847   0.58335   0.00000  Uiso   1.00
H1111  H     0.91707   0.40124   0.95782   0.00000  Uiso   1.00
H1112  H     0.89851   0.34700   0.95003   0.00000  Uiso   1.00
H1113  H     0.91699   0.33340   0.52022   0.00000  Uiso   1.00
H1114  H     0.96282   0.35511   0.97880   0.00000  Uiso   1.00
H1115  H     0.93838   0.38795   0.52678   0.00000  Uiso   1.00
H1116  H     0.76247   0.60708   0.55650   0.00000  Uiso   1.00
H1117  H     0.73643   0.61353   0.51298   0.00000  Uiso   1.00
H1118  H     0.76135   0.35721   0.51948   0.00000  Uiso   1.00
H1119  H     0.72755   0.33861   0.57138   0.00000  Uiso   1.00
H1120  H     0.78489   0.34954   0.56431   0.00000  Uiso   1.00
H1121  H     0.98544   0.47772   0.79320   0.00000  Uiso   1.00
H1122  H     0.70762   0.57710   0.73762   0.00000  Uiso   1.00
H1123  H     0.66919   0.58392   0.70660   0.00000  Uiso   1.00
H1124  H     0.76379   0.56998   0.66595   0.00000  Uiso   1.00
H1125  H     0.72592   0.57721   0.63505   0.00000  Uiso   1.00
H1126  H     0.71813   0.64844   0.67470   0.00000  Uiso   1.00
H1127  H     0.77326   0.64326   0.64614   0.00000  Uiso   1.00
H1128  H     0.75592   0.64116   0.70609   0.00000  Uiso   1.00
H1129  H     0.87370   0.33713   0.71167   0.00000  Uiso   1.00
H1130  H     0.79116   0.66442   0.78839   0.00000  Uiso   1.00
H1131  H     0.83386   0.39872   0.94382   0.00000  Uiso   1.00
H1132  H     0.84440   0.53131   0.57295   0.00000  Uiso   1.00
H1133  H     0.79727   0.59115   0.91647   0.00000  Uiso   1.00
H1134  H     0.82692   0.57151   0.53647   0.00000  Uiso   1.00
H1135  H     0.80963   0.44395   0.90330   0.00000  Uiso   1.00
O1136  O     0.83333   0.50000   0.75000   0.00000  Uiso   1.00
O1137  O     0.82118   0.45970   0.65459   0.00000  Uiso   1.00
O1138  O     0.79607   0.53724   0.84968   0.00000  Uiso   1.00
O1139  O     0.87491   0.51092   0.64606   0.00000  Uiso   1.00
O1140  O     0.84118   0.49213   0.84968   0.00000  Uiso   1.00
O1141  O     0.86080   0.37677   0.50458   0.00000  Uiso   1.00
O1142  O     0.80320   0.62465   0.99539   0.00000  Uiso   1.00
O1143  O     0.68917   0.52499   0.69716   0.00000  Uiso   1.00
O1144  O     0.84597   0.41352   0.78214   0.00000  Uiso   1.00
O1145  O     0.81298   0.59418   0.77014   0.00000  Uiso   1.00
O1146  O     0.74078   0.46625   0.73413   0.00000  Uiso   1.00
O1147  O     0.93360   0.52605   0.71361   0.00000  Uiso   1.00
O1148  O     0.73738   0.52211   0.78213   0.00000  Uiso   1.00
O1149  O     0.92158   0.48559   0.77014   0.00000  Uiso   1.00
O1150  O     0.80426   0.40277   0.73413   0.00000  Uiso   1.00
O1151  O     0.87012   0.58953   0.71361   0.00000  Uiso   1.00
Zn1152 Zn    0.86005   0.47327   0.78734   0.00000  Uiso   1.00
Zn1153 Zn    0.80046   0.45791   0.71876   0.00000  Uiso   1.00
Zn1154 Zn    0.87723   0.53109   0.70657   0.00000  Uiso   1.00
Zn1155 Zn    0.79560   0.53773   0.78734   0.00000  Uiso   1.00
C1156  C     0.05263   0.82600   0.76041   0.00000  Uiso   1.00
C1157  C     0.18189   0.83392   0.55652   0.00000  Uiso   1.00
C1158  C     0.19615   0.76433   0.56331   0.00000  Uiso   1.00
C1159  C     0.28084   0.84038   0.73979   0.00000  Uiso   1.00
C1160  C     0.14423   0.86183   0.91940   0.00000  Uiso   1.00
C1161  C     0.32703   0.84225   0.73457   0.00000  Uiso   1.00
C1162  C     0.00745   0.82433   0.76400   0.00000  Uiso   1.00
C1163  C     0.18041   0.98915   0.73651   0.00000  Uiso   1.00
C1164  C     0.15159   0.67832   0.76359   0.00000  Uiso   1.00
C1165  C     0.15602   0.72249   0.76014   0.00000  Uiso   1.00
C1166  C     0.17652   0.94456   0.74013   0.00000  Uiso   1.00
C1167  C     0.14124   0.91688   0.97990   0.00000  Uiso   1.00
C1168  C     0.18511   0.81454   0.62936   0.00000  Uiso   1.00
C1169  C     0.14830   0.85109   0.87102   0.00000  Uiso   1.00
C1170  C     0.19129   0.75149   0.52038   0.00000  Uiso   1.00
C1171  C     0.19112   0.80519   0.58139   0.00000  Uiso   1.00
C1172  C     0.13739   0.90275   0.93686   0.00000  Uiso   1.00
C1173  C     0.23537   0.70626   0.97606   0.00000  Uiso   1.00
C1174  C     0.26520   0.69498   0.50221   0.00000  Uiso   1.00
C1175  C     0.09722   0.95904   0.52811   0.00000  Uiso   1.00
C1176  C     0.09251   0.67063   0.54693   0.00000  Uiso   1.00
C1177  C     0.03129   0.90205   0.70543   0.00000  Uiso   1.00
C1178  C     0.15482   0.89093   0.50490   0.00000  Uiso   1.00
C1179  C     0.06832   0.91853   0.66745   0.00000  Uiso   1.00
C1180  C     0.07950   0.96582   0.67415   0.00000  Uiso   1.00
C1181  C     0.16075   0.84897   0.98911   0.00000  Uiso   1.00
C1182  C     0.15286   0.83386   0.94674   0.00000  Uiso   1.00
C1183  C     0.17406   0.82145   0.51397   0.00000  Uiso   1.00
C1184  C     0.17802   0.77921   0.99648   0.00000  Uiso   1.00
C1185  C     0.16664   0.76454   0.95656   0.00000  Uiso   1.00
C1186  C     0.15346   0.79109   0.93266   0.00000  Uiso   1.00
H1187  H     0.20214   0.74180   0.58335   0.00000  Uiso   1.00
H1188  H     0.25040   0.73457   0.95782   0.00000  Uiso   1.00
H1189  H     0.23185   0.68033   0.95003   0.00000  Uiso   1.00
H1190  H     0.25032   0.66673   0.52022   0.00000  Uiso   1.00
H1191  H     0.29616   0.68845   0.97880   0.00000  Uiso   1.00
H1192  H     0.27171   0.72128   0.52678   0.00000  Uiso   1.00
H1193  H     0.09580   0.94041   0.55650   0.00000  Uiso   1.00
H1194  H     0.06977   0.94686   0.51298   0.00000  Uiso   1.00
H1195  H     0.09468   0.69054   0.51948   0.00000  Uiso   1.00
H1196  H     0.06089   0.67194   0.57138   0.00000  Uiso   1.00
H1197  H     0.11823   0.68288   0.56431   0.00000  Uiso   1.00
H1198  H     0.31877   0.81105   0.79320   0.00000  Uiso   1.00
H1199  H     0.04095   0.91043   0.73762   0.00000  Uiso   1.00
H1200  H     0.00252   0.91725   0.70660   0.00000  Uiso   1.00
H1201  H     0.09712   0.90332   0.66595   0.00000  Uiso   1.00
H1202  H     0.05926   0.91054   0.63505   0.00000  Uiso   1.00
H1203  H     0.05147   0.98178   0.67470   0.00000  Uiso   1.00
H1204  H     0.10659   0.97660   0.64614   0.00000  Uiso   1.00
H1205  H     0.08925   0.97449   0.70609   0.00000  Uiso   1.00
H1206  H     0.20703   0.67047   0.71167   0.00000  Uiso   1.00
H1207  H     0.12449   0.99775   0.78839   0.00000  Uiso   1.00
H1208  H     0.16719   0.73205   0.94382   0.00000  Uiso   1.00
H1209  H     0.17773   0.86465   0.57295   0.00000  Uiso   1.00
H1210  H     0.13060   0.92448   0.91647   0.00000  Uiso   1.00
H1211  H     0.16026   0.90485   0.53647   0.00000  Uiso   1.00
H1212  H     0.14296   0.77728   0.90330   0.00000  Uiso   1.00
O1213  O     0.16667   0.83333   0.75000   0.00000  Uiso   1.00
O1214  O     0.15451   0.79304   0.65459   0.00000  Uiso   1.00
O1215  O     0.12940   0.87058   0.84968   0.00000  Uiso   1.00
O1216  O     0.20824   0.84425   0.64606   0.00000  Uiso   1.00
O1217  O     0.17451   0.82546   0.84968   0.00000  Uiso   1.00
O1218  O     0.19413   0.71010   0.50458   0.00000  Uiso   1.00
O1219  O     0.13654   0.95799   0.99539   0.00000  Uiso   1.00
O1220  O     0.02251   0.85833   0.69716   0.00000  Uiso   1.00
O1221  O     0.17930   0.74686   0.78214   0.00000  Uiso   1.00
O1222  O     0.14632   0.92751   0.77014   0.00000  Uiso   1.00
O1223  O     0.07412   0.79958   0.73413   0.00000  Uiso   1.00
O1224  O     0.26693   0.85939   0.71361   0.00000  Uiso   1.00
O1225  O     0.07071   0.85544   0.78213   0.00000  Uiso   1.00
O1226  O     0.25491   0.81892   0.77014   0.00000  Uiso   1.00
O1227  O     0.13760   0.73610   0.73413   0.00000  Uiso   1.00
O1228  O     0.20345   0.92286   0.71361   0.00000  Uiso   1.00
Zn1229 Zn    0.19338   0.80661   0.78734   0.00000  Uiso   1.00
Zn1230 Zn    0.13379   0.79124   0.71876   0.00000  Uiso   1.00
Zn1231 Zn    0.21056   0.86442   0.70657   0.00000  Uiso   1.00
Zn1232 Zn    0.12893   0.87106   0.78734   0.00000  Uiso   1.00
C1233  C     0.38596   0.82600   0.76041   0.00000  Uiso   1.00
C1234  C     0.51523   0.83392   0.55652   0.00000  Uiso   1.00
C1235  C     0.52948   0.76433   0.56331   0.00000  Uiso   1.00
C1236  C     0.61417   0.84038   0.73979   0.00000  Uiso   1.00
C1237  C     0.47756   0.86183   0.91940   0.00000  Uiso   1.00
C1238  C     0.66036   0.84225   0.73457   0.00000  Uiso   1.00
C1239  C     0.34079   0.82433   0.76400   0.00000  Uiso   1.00
C1240  C     0.51375   0.98915   0.73651   0.00000  Uiso   1.00
C1241  C     0.48493   0.67832   0.76359   0.00000  Uiso   1.00
C1242  C     0.48936   0.72249   0.76014   0.00000  Uiso   1.00
C1243  C     0.50986   0.94456   0.74013   0.00000  Uiso   1.00
C1244  C     0.47458   0.91688   0.97990   0.00000  Uiso   1.00
C1245  C     0.51844   0.81454   0.62936   0.00000  Uiso   1.00
C1246  C     0.48163   0.85109   0.87102   0.00000  Uiso   1.00
C1247  C     0.52462   0.75149   0.52038   0.00000  Uiso   1.00
C1248  C     0.52445   0.80519   0.58139   0.00000  Uiso   1.00
C1249  C     0.47072   0.90275   0.93686   0.00000  Uiso   1.00
C1250  C     0.56870   0.70626   0.97606   0.00000  Uiso   1.00
C1251  C     0.59853   0.69498   0.50221   0.00000  Uiso   1.00
C1252  C     0.43055   0.95904   0.52811   0.00000  Uiso   1.00
C1253  C     0.42584   0.67063   0.54693   0.00000  Uiso   1.00
C1254  C     0.36462   0.90205   0.70543   0.00000  Uiso   1.00
C1255  C     0.48815   0.89093   0.50490   0.00000  Uiso   1.00
C1256  C     0.40165   0.91853   0.66745   0.00000  Uiso   1.00
C1257  C     0.41283   0.96582   0.67415   0.00000  Uiso   1.00
C1258  C     0.49408   0.84897   0.98911   0.00000  Uiso   1.00
C1259  C     0.48620   0.83386   0.94674   0.00000  Uiso   1.00
C1260  C     0.50740   0.82145   0.51397   0.00000  Uiso   1.00
C1261  C     0.51136   0.77921   0.99648   0.00000  Uiso   1.00
C1262  C     0.49998   0.76454   0.95656   0.00000  Uiso   1.00
C1263  C     0.48680   0.79109   0.93266   0.00000  Uiso   1.00
H1264  H     0.53547   0.74180   0.58335   0.00000  Uiso   1.00
H1265  H     0.58374   0.73457   0.95782   0.00000  Uiso   1.00
H1266  H     0.56518   0.68033   0.95003   0.00000  Uiso   1.00
H1267  H     0.58365   0.66673   0.52022   0.00000  Uiso   1.00
H1268  H     0.62949   0.68845   0.97880   0.00000  Uiso   1.00
H1269  H     0.60505   0.72128   0.52678   0.00000  Uiso   1.00
H1270  H     0.42913   0.94041   0.55650   0.00000  Uiso   1.00
H1271  H     0.40310   0.94686   0.51298   0.00000  Uiso   1.00
H1272  H     0.42802   0.69054   0.51948   0.00000  Uiso   1.00
H1273  H     0.39422   0.67194   0.57138   0.00000  Uiso   1.00
H1274  H     0.45156   0.68288   0.56431   0.00000  Uiso   1.00
H1275  H     0.65211   0.81105   0.79320   0.00000  Uiso   1.00
H1276  H     0.37429   0.91043   0.73762   0.00000  Uiso   1.00
H1277  H     0.33585   0.91725   0.70660   0.00000  Uiso   1.00
H1278  H     0.43046   0.90332   0.66595   0.00000  Uiso   1.00
H1279  H     0.39259   0.91054   0.63505   0.00000  Uiso   1.00
H1280  H     0.38480   0.98178   0.67470   0.00000  Uiso   1.00
H1281  H     0.43993   0.97660   0.64614   0.00000  Uiso   1.00
H1282  H     0.42259   0.97449   0.70609   0.00000  Uiso   1.00
H1283  H     0.54037   0.67047   0.71167   0.00000  Uiso   1.00
H1284  H     0.45782   0.99775   0.78839   0.00000  Uiso   1.00
H1285  H     0.50053   0.73205   0.94382   0.00000  Uiso   1.00
H1286  H     0.51107   0.86465   0.57295   0.00000  Uiso   1.00
H1287  H     0.46394   0.92448   0.91647   0.00000  Uiso   1.00
H1288  H     0.49359   0.90485   0.53647   0.00000  Uiso   1.00
H1289  H     0.47629   0.77728   0.90330   0.00000  Uiso   1.00
O1290  O     0.50000   0.83333   0.75000   0.00000  Uiso   1.00
O1291  O     0.48784   0.79304   0.65459   0.00000  Uiso   1.00
O1292  O     0.46274   0.87058   0.84968   0.00000  Uiso   1.00
O1293  O     0.54157   0.84425   0.64606   0.00000  Uiso   1.00
O1294  O     0.50785   0.82546   0.84968   0.00000  Uiso   1.00
O1295  O     0.52747   0.71010   0.50458   0.00000  Uiso   1.00
O1296  O     0.46987   0.95799   0.99539   0.00000  Uiso   1.00
O1297  O     0.35584   0.85833   0.69716   0.00000  Uiso   1.00
O1298  O     0.51264   0.74686   0.78214   0.00000  Uiso   1.00
O1299  O     0.47965   0.92751   0.77014   0.00000  Uiso   1.00
O1300  O     0.40745   0.79958   0.73413   0.00000  Uiso   1.00
O1301  O     0.60026   0.85939   0.71361   0.00000  Uiso   1.00
O1302  O     0.40405   0.85544   0.78213   0.00000  Uiso   1.00
O1303  O     0.58824   0.81892   0.77014   0.00000  Uiso   1.00
O1304  O     0.47093   0.73610   0.73413   0.00000  Uiso   1.00
O1305  O     0.53678   0.92286   0.71361   0.00000  Uiso   1.00
Zn1306 Zn    0.52672   0.80661   0.78734   0.00000  Uiso   1.00
Zn1307 Zn    0.46713   0.79124   0.71876   0.00000  Uiso   1.00
Zn1308 Zn    0.54389   0.86442   0.70657   0.00000  Uiso   1.00
Zn1309 Zn    0.46226   0.87106   0.78734   0.00000  Uiso   1.00
C1310  C     0.71929   0.82600   0.76041   0.00000  Uiso   1.00
C1311  C     0.84856   0.83392   0.55652   0.00000  Uiso   1.00
C1312  C     0.86282   0.76433   0.56331   0.00000  Uiso   1.00
C1313  C     0.94751   0.84038   0.73979   0.00000  Uiso   1.00
C1314  C     0.81089   0.86183   0.91940   0.00000  Uiso   1.00
C1315  C     0.99369   0.84225   0.73457   0.00000  Uiso   1.00
C1316  C     0.67412   0.82433   0.76400   0.00000  Uiso   1.00
C1317  C     0.84708   0.98915   0.73651   0.00000  Uiso   1.00
C1318  C     0.81826   0.67832   0.76359   0.00000  Uiso   1.00
C1319  C     0.82269   0.72249   0.76014   0.00000  Uiso   1.00
C1320  C     0.84319   0.94456   0.74013   0.00000  Uiso   1.00
C1321  C     0.80791   0.91688   0.97990   0.00000  Uiso   1.00
C1322  C     0.85177   0.81454   0.62936   0.00000  Uiso   1.00
C1323  C     0.81497   0.85109   0.87102   0.00000  Uiso   1.00
C1324  C     0.85796   0.75149   0.52038   0.00000  Uiso   1.00
C1325  C     0.85779   0.80519   0.58139   0.00000  Uiso   1.00
C1326  C     0.80406   0.90275   0.93686   0.00000  Uiso   1.00
C1327  C     0.90203   0.70626   0.97606   0.00000  Uiso   1.00
C1328  C     0.93187   0.69498   0.50221   0.00000  Uiso   1.00
C1329  C     0.76388   0.95904   0.52811   0.00000  Uiso   1.00
C1330  C     0.75917   0.67063   0.54693   0.00000  Uiso   1.00
C1331  C     0.69796   0.90205   0.70543   0.00000  Uiso   1.00
C1332  C     0.82148   0.89093   0.50490   0.00000  Uiso   1.00
C1333  C     0.73499   0.91853   0.66745   0.00000  Uiso   1.00
C1334  C     0.74616   0.96582   0.67415   0.00000  Uiso   1.00
C1335  C     0.82741   0.84897   0.98911   0.00000  Uiso   1.00
C1336  C     0.81953   0.83386   0.94674   0.00000  Uiso   1.00
C1337  C     0.84073   0.82145   0.51397   0.00000  Uiso   1.00
C1338  C     0.84469   0.77921   0.99648   0.00000  Uiso   1.00
C1339  C     0.83331   0.76454   0.95656   0.00000  Uiso   1.00
C1340  C     0.82013   0.79109   0.93266   0.00000  Uiso   1.00
H1341  H     0.86881   0.74180   0.58335   0.00000  Uiso   1.00
H1342  H     0.91707   0.73457   0.95782   0.00000  Uiso   1.00
H1343  H     0.89851   0.68033   0.95003   0.00000  Uiso   1.00
H1344  H     0.91699   0.66673   0.52022   0.00000  Uiso   1.00
H1345  H     0.96282   0.68845   0.97880   0.00000  Uiso   1.00
H1346  H     0.93838   0.72128   0.52678   0.00000  Uiso   1.00
H1347  H     0.76247   0.94041   0.55650   0.00000  Uiso   1.00
H1348  H     0.73643   0.94686   0.51298   0.00000  Uiso   1.00
H1349  H     0.76135   0.69054   0.51948   0.00000  Uiso   1.00
H1350  H     0.72755   0.67194   0.57138   0.00000  Uiso   1.00
H1351  H     0.78489   0.68288   0.56431   0.00000  Uiso   1.00
H1352  H     0.98544   0.81105   0.79320   0.00000  Uiso   1.00
H1353  H     0.70762   0.91043   0.73762   0.00000  Uiso   1.00
H1354  H     0.66919   0.91725   0.70660   0.00000  Uiso   1.00
H1355  H     0.76379   0.90332   0.66595   0.00000  Uiso   1.00
H1356  H     0.72592   0.91054   0.63505   0.00000  Uiso   1.00
H1357  H     0.71813   0.98178   0.67470   0.00000  Uiso   1.00
H1358  H     0.77326   0.97660   0.64614   0.00000  Uiso   1.00
H1359  H     0.75592   0.97449   0.70609   0.00000  Uiso   1.00
H1360  H     0.87370   0.67047   0.71167   0.00000  Uiso   1.00
H1361  H     0.79116   0.99775   0.78839   0.00000  Uiso   1.00
H1362  H     0.83386   0.73205   0.94382   0.00000  Uiso   1.00
H1363  H     0.84440   0.86465   0.57295   0.00000  Uiso   1.00
H1364  H     0.79727   0.92448   0.91647   0.00000  Uiso   1.00
H1365  H     0.82692   0.90485   0.53647   0.00000  Uiso   1.00
H1366  H     0.80963   0.77728   0.90330   0.00000  Uiso   1.00
O1367  O     0.83333   0.83333   0.75000   0.00000  Uiso   1.00
O1368  O     0.82118   0.79304   0.65459   0.00000  Uiso   1.00
O1369  O     0.79607   0.87058   0.84968   0.00000  Uiso   1.00
O1370  O     0.87491   0.84425   0.64606   0.00000  Uiso   1.00
O1371  O     0.84118   0.82546   0.84968   0.00000  Uiso   1.00
O1372  O     0.86080   0.71010   0.50458   0.00000  Uiso   1.00
O1373  O     0.80320   0.95799   0.99539   0.00000  Uiso   1.00
O1374  O     0.68917   0.85833   0.69716   0.00000  Uiso   1.00
O1375  O     0.84597   0.74686   0.78214   0.00000  Uiso   1.00
O1376  O     0.81298   0.92751   0.77014   0.00000  Uiso   1.00
O1377  O     0.74078   0.79958   0.73413   0.00000  Uiso   1.00
O1378  O     0.93360   0.85939   0.71361   0.00000  Uiso   1.00
O1379  O     0.73738   0.85544   0.78213   0.00000  Uiso   1.00
O1380  O     0.92158   0.81892   0.77014   0.00000  Uiso   1.00
O1381  O     0.80426   0.73610   0.73413   0.00000  Uiso   1.00
O1382  O     0.87012   0.92286   0.71361   0.00000  Uiso   1.00
Zn1383 Zn    0.86005   0.80661   0.78734   0.00000  Uiso   1.00
Zn1384 Zn    0.80046   0.79124   0.71876   0.00000  Uiso   1.00
Zn1385 Zn    0.87723   0.86442   0.70657   0.00000  Uiso   1.00
Zn1386 Zn    0.79560   0.87106   0.78734   0.00000  Uiso   1.00
loop_
_geom_bond_atom_site_label_1
_geom_bond_atom_site_label_2
_geom_bond_distance
_geom_bond_site_symmetry_2
_ccdc_geom_bond_type
C1     O68     1.269   .     A
C1     C7      1.437   .     S
C1     O70     1.265   .     A
C2     C16     1.391   .     A
C2     H54     1.077   .     S
C2     C28     1.411   .     A
C3     C15     1.390   .     A
C3     H32     1.084   .     S
C3     C16     1.395   .     A
C4     O69     1.282   .     A
C4     C6      1.461   .     S
C4     O71     1.283   .     A
C5     C17     1.402   .     A
C5     C27     1.417   .     A
C5     C14     1.477   .     S
C6     C84     1.339   .     S
C6     O142    1.388   .     S
C7     C160    1.339   1_455 S
C7     H197    1.086   1_455 S
C8     C11     1.450   .     S
C8     C240    1.331   .     S
C8     H282    1.088   .     S
C9     C10     1.434   .     S
C9     C470    1.331   1_545 S
C9     H514    1.086   1_545 S
C10    O66     1.275   .     A
C10    O72     1.275   .     A
C11    O67     1.272   .     A
C11    O73     1.271   .     A
C12    O64     1.382   .     S
C12    C17     1.391   .     A
C12    C716    1.398   .     S
C13    O59     1.266   .     A
C13    O61     1.277   .     A
C13    C16     1.451   .     S
C14    O62     1.284   .     A
C14    O60     1.284   .     A
C15    O63     1.384   .     S
C15    C722    1.411   1_554 S
C17    H55     1.084   .     S
C18    H34     1.111   .     S
C18    H33     1.117   .     S
C18    C712    1.525   .     S
C18    O756    1.415   .     S
C19    H37     1.110   .     S
C19    H35     1.111   .     S
C19    C711    1.525   1_554 S
C19    H729    1.110   1_554 S
C20    H39     1.114   .     S
C20    H38     1.114   .     S
C20    C252    1.521   .     S
C20    O757    1.412   1_554 S
C21    H41     1.110   .     S
C21    H40     1.111   .     S
C21    H42     1.110   .     S
C21    C482    1.521   1_545 S
C22    H44     1.116   .     S
C22    O65     1.412   .     S
C22    C24     1.529   .     S
C22    H45     1.113   .     S
C23    H56     1.076   .     S
C23    C705    1.398   1_554 S
C23    C719    1.417   1_554 S
C24    C25     1.526   .     S
C24    H47     1.112   .     S
C24    H46     1.112   .     S
C25    H50     1.111   .     S
C25    H48     1.111   .     S
C25    H49     1.111   .     S
C26    C27     1.422   .     A
C26    C716    1.417   .     S
C26    C721    1.428   .     S
C27    C31     1.408   .     A
C28    C719    1.428   1_554 S
C28    C722    1.427   1_554 S
C29    C30     1.395   .     A
C29    C721    1.427   .     S
C29    C708    1.411   .     S
C30    C31     1.382   .     A
C30    H53     1.083   .     S
C31    H57     1.081   .     S
H36    C712    1.110   .     S
H43    C84     1.086   .     S
H51    C470    1.088   1_545 S
H52    C240    1.086   .     S
O58    Zn76    1.937   .     S
O58    Zn77    1.931   .     S
O58    Zn75    1.933   .     S
O58    Zn74    1.961   .     S
O59    Zn75    1.934   .     S
O60    Zn77    1.941   .     S
O61    Zn76    1.931   .     S
O62    Zn74    1.926   .     S
O63    C711    1.415   1_554 S
O64    C713    1.412   .     S
O65    C160    1.388   1_455 S
O66    Zn74    1.923   .     S
O67    Zn77    1.931   .     S
O68    Zn75    1.927   .     S
O69    Zn76    1.935   .     S
O70    Zn77    1.928   .     S
O71    Zn74    1.923   .     S
O72    Zn75    1.937   .     S
O73    Zn76    1.927   .     S
C78    O145    1.269   .     A
C78    C84     1.437   .     S
C78    O147    1.265   .     A
C79    C93     1.391   .     A
C79    H131    1.077   .     S
C79    C105    1.411   .     A
C80    C92     1.390   .     A
C80    H109    1.084   .     S
C80    C93     1.395   .     A
C81    O146    1.282   .     A
C81    C83     1.461   .     S
C81    O148    1.283   .     A
C82    C94     1.402   .     A
C82    C104    1.417   .     A
C82    C91     1.477   .     S
C83    C161    1.339   .     S
C83    O219    1.388   .     S
C85    C88     1.450   .     S
C85    C317    1.331   .     S
C85    H359    1.088   .     S
C86    C87     1.434   .     S
C86    C547    1.331   1_545 S
C86    H591    1.086   1_545 S
C87    O143    1.275   .     A
C87    O149    1.275   .     A
C88    O144    1.272   .     A
C88    O150    1.271   .     A
C89    O141    1.382   .     S
C89    C94     1.391   .     A
C89    C793    1.398   .     S
C90    O136    1.266   .     A
C90    O138    1.277   .     A
C90    C93     1.451   .     S
C91    O139    1.284   .     A
C91    O137    1.284   .     A
C92    O140    1.384   .     S
C92    C799    1.411   1_554 S
C94    H132    1.084   .     S
C95    H111    1.111   .     S
C95    H110    1.117   .     S
C95    C789    1.525   .     S
C95    O833    1.415   .     S
C96    H114    1.110   .     S
C96    H112    1.111   .     S
C96    C788    1.525   1_554 S
C96    H806    1.110   1_554 S
C97    H116    1.114   .     S
C97    H115    1.114   .     S
C97    C329    1.521   .     S
C97    O834    1.412   1_554 S
C98    H118    1.110   .     S
C98    H117    1.111   .     S
C98    H119    1.110   .     S
C98    C559    1.521   1_545 S
C99    H121    1.116   .     S
C99    O142    1.412   .     S
C99    C101    1.529   .     S
C99    H122    1.113   .     S
C100   H133    1.076   .     S
C100   C782    1.398   1_554 S
C100   C796    1.417   1_554 S
C101   C102    1.526   .     S
C101   H124    1.112   .     S
C101   H123    1.112   .     S
C102   H127    1.111   .     S
C102   H125    1.111   .     S
C102   H126    1.111   .     S
C103   C104    1.422   .     A
C103   C793    1.417   .     S
C103   C798    1.428   .     S
C104   C108    1.408   .     A
C105   C796    1.428   1_554 S
C105   C799    1.427   1_554 S
C106   C107    1.395   .     A
C106   C798    1.427   .     S
C106   C785    1.411   .     S
C107   C108    1.382   .     A
C107   H130    1.083   .     S
C108   H134    1.081   .     S
H113   C789    1.110   .     S
H120   C161    1.086   .     S
H128   C547    1.088   1_545 S
H129   C317    1.086   .     S
O135   Zn153   1.937   .     S
O135   Zn154   1.931   .     S
O135   Zn152   1.933   .     S
O135   Zn151   1.961   .     S
O136   Zn152   1.934   .     S
O137   Zn154   1.941   .     S
O138   Zn153   1.931   .     S
O139   Zn151   1.926   .     S
O140   C788    1.415   1_554 S
O141   C790    1.412   .     S
O143   Zn151   1.923   .     S
O144   Zn154   1.931   .     S
O145   Zn152   1.927   .     S
O146   Zn153   1.935   .     S
O147   Zn154   1.928   .     S
O148   Zn151   1.923   .     S
O149   Zn152   1.937   .     S
O150   Zn153   1.927   .     S
C155   O222    1.269   .     A
C155   C161    1.437   .     S
C155   O224    1.265   .     A
C156   C170    1.391   .     A
C156   H208    1.077   .     S
C156   C182    1.411   .     A
C157   C169    1.390   .     A
C157   H186    1.084   .     S
C157   C170    1.395   .     A
C158   O223    1.282   .     A
C158   C160    1.461   .     S
C158   O225    1.283   .     A
C159   C171    1.402   .     A
C159   C181    1.417   .     A
C159   C168    1.477   .     S
C160   C7      1.339   1_655 S
C160   O65     1.388   1_655 S
C162   C165    1.450   .     S
C162   C394    1.331   .     S
C162   H436    1.088   .     S
C163   C164    1.434   .     S
C163   C624    1.331   1_545 S
C163   H668    1.086   1_545 S
C164   O220    1.275   .     A
C164   O226    1.275   .     A
C165   O221    1.272   .     A
C165   O227    1.271   .     A
C166   O218    1.382   .     S
C166   C171    1.391   .     A
C166   C870    1.398   .     S
C167   O213    1.266   .     A
C167   O215    1.277   .     A
C167   C170    1.451   .     S
C168   O216    1.284   .     A
C168   O214    1.284   .     A
C169   O217    1.384   .     S
C169   C876    1.411   1_554 S
C171   H209    1.084   .     S
C172   H188    1.111   .     S
C172   H187    1.117   .     S
C172   C866    1.525   .     S
C172   O910    1.415   .     S
C173   H191    1.110   .     S
C173   H189    1.111   .     S
C173   C865    1.525   1_554 S
C173   H883    1.110   1_554 S
C174   H193    1.114   .     S
C174   H192    1.114   .     S
C174   C406    1.521   .     S
C174   O911    1.412   1_554 S
C175   H195    1.110   .     S
C175   H194    1.111   .     S
C175   H196    1.110   .     S
C175   C636    1.521   1_545 S
C176   H198    1.116   .     S
C176   O219    1.412   .     S
C176   C178    1.529   .     S
C176   H199    1.113   .     S
C177   H210    1.076   .     S
C177   C859    1.398   1_554 S
C177   C873    1.417   1_554 S
C178   C179    1.526   .     S
C178   H201    1.112   .     S
C178   H200    1.112   .     S
C179   H204    1.111   .     S
C179   H202    1.111   .     S
C179   H203    1.111   .     S
C180   C181    1.422   .     A
C180   C870    1.417   .     S
C180   C875    1.428   .     S
C181   C185    1.408   .     A
C182   C873    1.428   1_554 S
C182   C876    1.427   1_554 S
C183   C184    1.395   .     A
C183   C875    1.427   .     S
C183   C862    1.411   .     S
C184   C185    1.382   .     A
C184   H207    1.083   .     S
C185   H211    1.081   .     S
H190   C866    1.110   .     S
H197   C7      1.086   1_655 S
H205   C624    1.088   1_545 S
H206   C394    1.086   .     S
O212   Zn230   1.937   .     S
O212   Zn231   1.931   .     S
O212   Zn229   1.933   .     S
O212   Zn228   1.961   .     S
O213   Zn229   1.934   .     S
O214   Zn231   1.941   .     S
O215   Zn230   1.931   .     S
O216   Zn228   1.926   .     S
O217   C865    1.415   1_554 S
O218   C867    1.412   .     S
O220   Zn228   1.923   .     S
O221   Zn231   1.931   .     S
O222   Zn229   1.927   .     S
O223   Zn230   1.935   .     S
O224   Zn231   1.928   .     S
O225   Zn228   1.923   .     S
O226   Zn229   1.937   .     S
O227   Zn230   1.927   .     S
C232   O299    1.269   .     A
C232   C238    1.437   .     S
C232   O301    1.265   .     A
C233   C247    1.391   .     A
C233   H285    1.077   .     S
C233   C259    1.411   .     A
C234   C246    1.390   .     A
C234   H263    1.084   .     S
C234   C247    1.395   .     A
C235   O300    1.282   .     A
C235   C237    1.461   .     S
C235   O302    1.283   .     A
C236   C248    1.402   .     A
C236   C258    1.417   .     A
C236   C245    1.477   .     S
C237   C315    1.339   .     S
C237   O373    1.388   .     S
C238   C391    1.339   1_455 S
C238   H428    1.086   1_455 S
C239   C242    1.450   .     S
C239   C471    1.331   .     S
C239   H513    1.088   .     S
C240   C241    1.434   .     S
C241   O297    1.275   .     A
C241   O303    1.275   .     A
C242   O298    1.272   .     A
C242   O304    1.271   .     A
C243   O295    1.382   .     S
C243   C248    1.391   .     A
C243   C947    1.398   .     S
C244   O290    1.266   .     A
C244   O292    1.277   .     A
C244   C247    1.451   .     S
C245   O293    1.284   .     A
C245   O291    1.284   .     A
C246   O294    1.384   .     S
C246   C953    1.411   1_554 S
C248   H286    1.084   .     S
C249   H265    1.111   .     S
C249   H264    1.117   .     S
C249   C943    1.525   .     S
C249   O987    1.415   .     S
C250   H268    1.110   .     S
C250   H266    1.111   .     S
C250   C942    1.525   1_554 S
C250   H960    1.110   1_554 S
C251   H270    1.114   .     S
C251   H269    1.114   .     S
C251   C483    1.521   .     S
C251   O988    1.412   1_554 S
C252   H272    1.110   .     S
C252   H271    1.111   .     S
C252   H273    1.110   .     S
C253   H275    1.116   .     S
C253   O296    1.412   .     S
C253   C255    1.529   .     S
C253   H276    1.113   .     S
C254   H287    1.076   .     S
C254   C936    1.398   1_554 S
C254   C950    1.417   1_554 S
C255   C256    1.526   .     S
C255   H278    1.112   .     S
C255   H277    1.112   .     S
C256   H281    1.111   .     S
C256   H279    1.111   .     S
C256   H280    1.111   .     S
C257   C258    1.422   .     A
C257   C947    1.417   .     S
C257   C952    1.428   .     S
C258   C262    1.408   .     A
C259   C950    1.428   1_554 S
C259   C953    1.427   1_554 S
C260   C261    1.395   .     A
C260   C952    1.427   .     S
C260   C939    1.411   .     S
C261   C262    1.382   .     A
C261   H284    1.083   .     S
C262   H288    1.081   .     S
H267   C943    1.110   .     S
H274   C315    1.086   .     S
H283   C471    1.086   .     S
O289   Zn307   1.937   .     S
O289   Zn308   1.931   .     S
O289   Zn306   1.933   .     S
O289   Zn305   1.961   .     S
O290   Zn306   1.934   .     S
O291   Zn308   1.941   .     S
O292   Zn307   1.931   .     S
O293   Zn305   1.926   .     S
O294   C942    1.415   1_554 S
O295   C944    1.412   .     S
O296   C391    1.388   1_455 S
O297   Zn305   1.923   .     S
O298   Zn308   1.931   .     S
O299   Zn306   1.927   .     S
O300   Zn307   1.935   .     S
O301   Zn308   1.928   .     S
O302   Zn305   1.923   .     S
O303   Zn306   1.937   .     S
O304   Zn307   1.927   .     S
C309   O376    1.269   .     A
C309   C315    1.437   .     S
C309   O378    1.265   .     A
C310   C324    1.391   .     A
C310   H362    1.077   .     S
C310   C336    1.411   .     A
C311   C323    1.390   .     A
C311   H340    1.084   .     S
C311   C324    1.395   .     A
C312   O377    1.282   .     A
C312   C314    1.461   .     S
C312   O379    1.283   .     A
C313   C325    1.402   .     A
C313   C335    1.417   .     A
C313   C322    1.477   .     S
C314   C392    1.339   .     S
C314   O450    1.388   .     S
C316   C319    1.450   .     S
C316   C548    1.331   .     S
C316   H590    1.088   .     S
C317   C318    1.434   .     S
C318   O374    1.275   .     A
C318   O380    1.275   .     A
C319   O375    1.272   .     A
C319   O381    1.271   .     A
C320   O372    1.382   .     S
C320   C325    1.391   .     A
C320   C1024   1.398   .     S
C321   O367    1.266   .     A
C321   O369    1.277   .     A
C321   C324    1.451   .     S
C322   O370    1.284   .     A
C322   O368    1.284   .     A
C323   O371    1.384   .     S
C323   C1030   1.411   1_554 S
C325   H363    1.084   .     S
C326   H342    1.111   .     S
C326   H341    1.117   .     S
C326   C1020   1.525   .     S
C326   O1064   1.415   .     S
C327   H345    1.110   .     S
C327   H343    1.111   .     S
C327   C1019   1.525   1_554 S
C327   H1037   1.110   1_554 S
C328   H347    1.114   .     S
C328   H346    1.114   .     S
C328   C560    1.521   .     S
C328   O1065   1.412   1_554 S
C329   H349    1.110   .     S
C329   H348    1.111   .     S
C329   H350    1.110   .     S
C330   H352    1.116   .     S
C330   O373    1.412   .     S
C330   C332    1.529   .     S
C330   H353    1.113   .     S
C331   H364    1.076   .     S
C331   C1013   1.398   1_554 S
C331   C1027   1.417   1_554 S
C332   C333    1.526   .     S
C332   H355    1.112   .     S
C332   H354    1.112   .     S
C333   H358    1.111   .     S
C333   H356    1.111   .     S
C333   H357    1.111   .     S
C334   C335    1.422   .     A
C334   C1024   1.417   .     S
C334   C1029   1.428   .     S
C335   C339    1.408   .     A
C336   C1027   1.428   1_554 S
C336   C1030   1.427   1_554 S
C337   C338    1.395   .     A
C337   C1029   1.427   .     S
C337   C1016   1.411   .     S
C338   C339    1.382   .     A
C338   H361    1.083   .     S
C339   H365    1.081   .     S
H344   C1020   1.110   .     S
H351   C392    1.086   .     S
H360   C548    1.086   .     S
O366   Zn384   1.937   .     S
O366   Zn385   1.931   .     S
O366   Zn383   1.933   .     S
O366   Zn382   1.961   .     S
O367   Zn383   1.934   .     S
O368   Zn385   1.941   .     S
O369   Zn384   1.931   .     S
O370   Zn382   1.926   .     S
O371   C1019   1.415   1_554 S
O372   C1021   1.412   .     S
O374   Zn382   1.923   .     S
O375   Zn385   1.931   .     S
O376   Zn383   1.927   .     S
O377   Zn384   1.935   .     S
O378   Zn385   1.928   .     S
O379   Zn382   1.923   .     S
O380   Zn383   1.937   .     S
O381   Zn384   1.927   .     S
C386   O453    1.269   .     A
C386   C392    1.437   .     S
C386   O455    1.265   .     A
C387   C401    1.391   .     A
C387   H439    1.077   .     S
C387   C413    1.411   .     A
C388   C400    1.390   .     A
C388   H417    1.084   .     S
C388   C401    1.395   .     A
C389   O454    1.282   .     A
C389   C391    1.461   .     S
C389   O456    1.283   .     A
C390   C402    1.402   .     A
C390   C412    1.417   .     A
C390   C399    1.477   .     S
C391   C238    1.339   1_655 S
C391   O296    1.388   1_655 S
C393   C396    1.450   .     S
C393   C625    1.331   .     S
C393   H667    1.088   .     S
C394   C395    1.434   .     S
C395   O451    1.275   .     A
C395   O457    1.275   .     A
C396   O452    1.272   .     A
C396   O458    1.271   .     A
C397   O449    1.382   .     S
C397   C402    1.391   .     A
C397   C1101   1.398   .     S
C398   O444    1.266   .     A
C398   O446    1.277   .     A
C398   C401    1.451   .     S
C399   O447    1.284   .     A
C399   O445    1.284   .     A
C400   O448    1.384   .     S
C400   C1107   1.411   1_554 S
C402   H440    1.084   .     S
C403   H419    1.111   .     S
C403   H418    1.117   .     S
C403   C1097   1.525   .     S
C403   O1141   1.415   .     S
C404   H422    1.110   .     S
C404   H420    1.111   .     S
C404   C1096   1.525   1_554 S
C404   H1114   1.110   1_554 S
C405   H424    1.114   .     S
C405   H423    1.114   .     S
C405   C637    1.521   .     S
C405   O1142   1.412   1_554 S
C406   H426    1.110   .     S
C406   H425    1.111   .     S
C406   H427    1.110   .     S
C407   H429    1.116   .     S
C407   O450    1.412   .     S
C407   C409    1.529   .     S
C407   H430    1.113   .     S
C408   H441    1.076   .     S
C408   C1090   1.398   1_554 S
C408   C1104   1.417   1_554 S
C409   C410    1.526   .     S
C409   H432    1.112   .     S
C409   H431    1.112   .     S
C410   H435    1.111   .     S
C410   H433    1.111   .     S
C410   H434    1.111   .     S
C411   C412    1.422   .     A
C411   C1101   1.417   .     S
C411   C1106   1.428   .     S
C412   C416    1.408   .     A
C413   C1104   1.428   1_554 S
C413   C1107   1.427   1_554 S
C414   C415    1.395   .     A
C414   C1106   1.427   .     S
C414   C1093   1.411   .     S
C415   C416    1.382   .     A
C415   H438    1.083   .     S
C416   H442    1.081   .     S
H421   C1097   1.110   .     S
H428   C238    1.086   1_655 S
H437   C625    1.086   .     S
O443   Zn461   1.937   .     S
O443   Zn462   1.931   .     S
O443   Zn460   1.933   .     S
O443   Zn459   1.961   .     S
O444   Zn460   1.934   .     S
O445   Zn462   1.941   .     S
O446   Zn461   1.931   .     S
O447   Zn459   1.926   .     S
O448   C1096   1.415   1_554 S
O449   C1098   1.412   .     S
O451   Zn459   1.923   .     S
O452   Zn462   1.931   .     S
O453   Zn460   1.927   .     S
O454   Zn461   1.935   .     S
O455   Zn462   1.928   .     S
O456   Zn459   1.923   .     S
O457   Zn460   1.937   .     S
O458   Zn461   1.927   .     S
C463   O530    1.269   .     A
C463   C469    1.437   .     S
C463   O532    1.265   .     A
C464   C478    1.391   .     A
C464   H516    1.077   .     S
C464   C490    1.411   .     A
C465   C477    1.390   .     A
C465   H494    1.084   .     S
C465   C478    1.395   .     A
C466   O531    1.282   .     A
C466   C468    1.461   .     S
C466   O533    1.283   .     A
C467   C479    1.402   .     A
C467   C489    1.417   .     A
C467   C476    1.477   .     S
C468   C546    1.339   .     S
C468   O604    1.388   .     S
C469   C622    1.339   1_455 S
C469   H659    1.086   1_455 S
C470   C473    1.450   .     S
C470   C9      1.331   1_565 S
C470   H51     1.088   1_565 S
C471   C472    1.434   .     S
C472   O528    1.275   .     A
C472   O534    1.275   .     A
C473   O529    1.272   .     A
C473   O535    1.271   .     A
C474   O526    1.382   .     S
C474   C479    1.391   .     A
C474   C1178   1.398   .     S
C475   O521    1.266   .     A
C475   O523    1.277   .     A
C475   C478    1.451   .     S
C476   O524    1.284   .     A
C476   O522    1.284   .     A
C477   O525    1.384   .     S
C477   C1184   1.411   1_554 S
C479   H517    1.084   .     S
C480   H496    1.111   .     S
C480   H495    1.117   .     S
C480   C1174   1.525   .     S
C480   O1218   1.415   .     S
C481   H499    1.110   .     S
C481   H497    1.111   .     S
C481   C1173   1.525   1_554 S
C481   H1191   1.110   1_554 S
C482   H501    1.114   .     S
C482   H500    1.114   .     S
C482   C21     1.521   1_565 S
C482   O1219   1.412   1_554 S
C483   H503    1.110   .     S
C483   H502    1.111   .     S
C483   H504    1.110   .     S
C484   H506    1.116   .     S
C484   O527    1.412   .     S
C484   C486    1.529   .     S
C484   H507    1.113   .     S
C485   H518    1.076   .     S
C485   C1167   1.398   1_554 S
C485   C1181   1.417   1_554 S
C486   C487    1.526   .     S
C486   H509    1.112   .     S
C486   H508    1.112   .     S
C487   H512    1.111   .     S
C487   H510    1.111   .     S
C487   H511    1.111   .     S
C488   C489    1.422   .     A
C488   C1178   1.417   .     S
C488   C1183   1.428   .     S
C489   C493    1.408   .     A
C490   C1181   1.428   1_554 S
C490   C1184   1.427   1_554 S
C491   C492    1.395   .     A
C491   C1183   1.427   .     S
C491   C1170   1.411   .     S
C492   C493    1.382   .     A
C492   H515    1.083   .     S
C493   H519    1.081   .     S
H498   C1174   1.110   .     S
H505   C546    1.086   .     S
H514   C9      1.086   1_565 S
O520   Zn538   1.937   .     S
O520   Zn539   1.931   .     S
O520   Zn537   1.933   .     S
O520   Zn536   1.961   .     S
O521   Zn537   1.934   .     S
O522   Zn539   1.941   .     S
O523   Zn538   1.931   .     S
O524   Zn536   1.926   .     S
O525   C1173   1.415   1_554 S
O526   C1175   1.412   .     S
O527   C622    1.388   1_455 S
O528   Zn536   1.923   .     S
O529   Zn539   1.931   .     S
O530   Zn537   1.927   .     S
O531   Zn538   1.935   .     S
O532   Zn539   1.928   .     S
O533   Zn536   1.923   .     S
O534   Zn537   1.937   .     S
O535   Zn538   1.927   .     S
C540   O607    1.269   .     A
C540   C546    1.437   .     S
C540   O609    1.265   .     A
C541   C555    1.391   .     A
C541   H593    1.077   .     S
C541   C567    1.411   .     A
C542   C554    1.390   .     A
C542   H571    1.084   .     S
C542   C555    1.395   .     A
C543   O608    1.282   .     A
C543   C545    1.461   .     S
C543   O610    1.283   .     A
C544   C556    1.402   .     A
C544   C566    1.417   .     A
C544   C553    1.477   .     S
C545   C623    1.339   .     S
C545   O681    1.388   .     S
C547   C550    1.450   .     S
C547   C86     1.331   1_565 S
C547   H128    1.088   1_565 S
C548   C549    1.434   .     S
C549   O605    1.275   .     A
C549   O611    1.275   .     A
C550   O606    1.272   .     A
C550   O612    1.271   .     A
C551   O603    1.382   .     S
C551   C556    1.391   .     A
C551   C1255   1.398   .     S
C552   O598    1.266   .     A
C552   O600    1.277   .     A
C552   C555    1.451   .     S
C553   O601    1.284   .     A
C553   O599    1.284   .     A
C554   O602    1.384   .     S
C554   C1261   1.411   1_554 S
C556   H594    1.084   .     S
C557   H573    1.111   .     S
C557   H572    1.117   .     S
C557   C1251   1.525   .     S
C557   O1295   1.415   .     S
C558   H576    1.110   .     S
C558   H574    1.111   .     S
C558   C1250   1.525   1_554 S
C558   H1268   1.110   1_554 S
C559   H578    1.114   .     S
C559   H577    1.114   .     S
C559   C98     1.521   1_565 S
C559   O1296   1.412   1_554 S
C560   H580    1.110   .     S
C560   H579    1.111   .     S
C560   H581    1.110   .     S
C561   H583    1.116   .     S
C561   O604    1.412   .     S
C561   C563    1.529   .     S
C561   H584    1.113   .     S
C562   H595    1.076   .     S
C562   C1244   1.398   1_554 S
C562   C1258   1.417   1_554 S
C563   C564    1.526   .     S
C563   H586    1.112   .     S
C563   H585    1.112   .     S
C564   H589    1.111   .     S
C564   H587    1.111   .     S
C564   H588    1.111   .     S
C565   C566    1.422   .     A
C565   C1255   1.417   .     S
C565   C1260   1.428   .     S
C566   C570    1.408   .     A
C567   C1258   1.428   1_554 S
C567   C1261   1.427   1_554 S
C568   C569    1.395   .     A
C568   C1260   1.427   .     S
C568   C1247   1.411   .     S
C569   C570    1.382   .     A
C569   H592    1.083   .     S
C570   H596    1.081   .     S
H575   C1251   1.110   .     S
H582   C623    1.086   .     S
H591   C86     1.086   1_565 S
O597   Zn615   1.937   .     S
O597   Zn616   1.931   .     S
O597   Zn614   1.933   .     S
O597   Zn613   1.961   .     S
O598   Zn614   1.934   .     S
O599   Zn616   1.941   .     S
O600   Zn615   1.931   .     S
O601   Zn613   1.926   .     S
O602   C1250   1.415   1_554 S
O603   C1252   1.412   .     S
O605   Zn613   1.923   .     S
O606   Zn616   1.931   .     S
O607   Zn614   1.927   .     S
O608   Zn615   1.935   .     S
O609   Zn616   1.928   .     S
O610   Zn613   1.923   .     S
O611   Zn614   1.937   .     S
O612   Zn615   1.927   .     S
C617   O684    1.269   .     A
C617   C623    1.437   .     S
C617   O686    1.265   .     A
C618   C632    1.391   .     A
C618   H670    1.077   .     S
C618   C644    1.411   .     A
C619   C631    1.390   .     A
C619   H648    1.084   .     S
C619   C632    1.395   .     A
C620   O685    1.282   .     A
C620   C622    1.461   .     S
C620   O687    1.283   .     A
C621   C633    1.402   .     A
C621   C643    1.417   .     A
C621   C630    1.477   .     S
C622   C469    1.339   1_655 S
C622   O527    1.388   1_655 S
C624   C627    1.450   .     S
C624   C163    1.331   1_565 S
C624   H205    1.088   1_565 S
C625   C626    1.434   .     S
C626   O682    1.275   .     A
C626   O688    1.275   .     A
C627   O683    1.272   .     A
C627   O689    1.271   .     A
C628   O680    1.382   .     S
C628   C633    1.391   .     A
C628   C1332   1.398   .     S
C629   O675    1.266   .     A
C629   O677    1.277   .     A
C629   C632    1.451   .     S
C630   O678    1.284   .     A
C630   O676    1.284   .     A
C631   O679    1.384   .     S
C631   C1338   1.411   1_554 S
C633   H671    1.084   .     S
C634   H650    1.111   .     S
C634   H649    1.117   .     S
C634   C1328   1.525   .     S
C634   O1372   1.415   .     S
C635   H653    1.110   .     S
C635   H651    1.111   .     S
C635   C1327   1.525   1_554 S
C635   H1345   1.110   1_554 S
C636   H655    1.114   .     S
C636   H654    1.114   .     S
C636   C175    1.521   1_565 S
C636   O1373   1.412   1_554 S
C637   H657    1.110   .     S
C637   H656    1.111   .     S
C637   H658    1.110   .     S
C638   H660    1.116   .     S
C638   O681    1.412   .     S
C638   C640    1.529   .     S
C638   H661    1.113   .     S
C639   H672    1.076   .     S
C639   C1321   1.398   1_554 S
C639   C1335   1.417   1_554 S
C640   C641    1.526   .     S
C640   H663    1.112   .     S
C640   H662    1.112   .     S
C641   H666    1.111   .     S
C641   H664    1.111   .     S
C641   H665    1.111   .     S
C642   C643    1.422   .     A
C642   C1332   1.417   .     S
C642   C1337   1.428   .     S
C643   C647    1.408   .     A
C644   C1335   1.428   1_554 S
C644   C1338   1.427   1_554 S
C645   C646    1.395   .     A
C645   C1337   1.427   .     S
C645   C1324   1.411   .     S
C646   C647    1.382   .     A
C646   H669    1.083   .     S
C647   H673    1.081   .     S
H652   C1328   1.110   .     S
H659   C469    1.086   1_655 S
H668   C163    1.086   1_565 S
O674   Zn692   1.937   .     S
O674   Zn693   1.931   .     S
O674   Zn691   1.933   .     S
O674   Zn690   1.961   .     S
O675   Zn691   1.934   .     S
O676   Zn693   1.941   .     S
O677   Zn692   1.931   .     S
O678   Zn690   1.926   .     S
O679   C1327   1.415   1_554 S
O680   C1329   1.412   .     S
O682   Zn690   1.923   .     S
O683   Zn693   1.931   .     S
O684   Zn691   1.927   .     S
O685   Zn692   1.935   .     S
O686   Zn693   1.928   .     S
O687   Zn690   1.923   .     S
O688   Zn691   1.937   .     S
O689   Zn692   1.927   .     S
C694   O761    1.269   .     A
C694   C700    1.437   .     S
C694   O763    1.265   .     A
C695   C709    1.391   .     A
C695   H747    1.077   .     S
C695   C721    1.411   .     A
C696   C708    1.390   .     A
C696   H725    1.084   .     S
C696   C709    1.395   .     A
C697   O762    1.282   .     A
C697   C699    1.461   .     S
C697   O764    1.283   .     A
C698   C710    1.402   .     A
C698   C720    1.417   .     A
C698   C707    1.477   .     S
C699   C777    1.339   .     S
C699   O835    1.388   .     S
C700   C853    1.339   1_455 S
C700   H890    1.086   1_455 S
C701   C704    1.450   .     S
C701   C933    1.331   .     S
C701   H975    1.088   .     S
C702   C703    1.434   .     S
C702   C1163   1.331   1_545 S
C702   H1207   1.086   1_545 S
C703   O759    1.275   .     A
C703   O765    1.275   .     A
C704   O760    1.272   .     A
C704   O766    1.271   .     A
C705   O757    1.382   .     S
C705   C710    1.391   .     A
C705   C23     1.398   1_556 S
C706   O752    1.266   .     A
C706   O754    1.277   .     A
C706   C709    1.451   .     S
C707   O755    1.284   .     A
C707   O753    1.284   .     A
C708   O756    1.384   .     S
C710   H748    1.084   .     S
C711   H727    1.111   .     S
C711   H726    1.117   .     S
C711   C19     1.525   1_556 S
C711   O63     1.415   1_556 S
C712   H730    1.110   .     S
C712   H728    1.111   .     S
C713   H732    1.114   .     S
C713   H731    1.114   .     S
C713   C945    1.521   .     S
C714   H734    1.110   .     S
C714   H733    1.111   .     S
C714   H735    1.110   .     S
C714   C1175   1.521   1_545 S
C715   H737    1.116   .     S
C715   O758    1.412   .     S
C715   C717    1.529   .     S
C715   H738    1.113   .     S
C716   H749    1.076   .     S
C717   C718    1.526   .     S
C717   H740    1.112   .     S
C717   H739    1.112   .     S
C718   H743    1.111   .     S
C718   H741    1.111   .     S
C718   H742    1.111   .     S
C719   C720    1.422   .     A
C719   C23     1.417   1_556 S
C719   C28     1.428   1_556 S
C720   C724    1.408   .     A
C722   C723    1.395   .     A
C722   C28     1.427   1_556 S
C722   C15     1.411   1_556 S
C723   C724    1.382   .     A
C723   H746    1.083   .     S
C724   H750    1.081   .     S
H729   C19     1.110   1_556 S
H736   C777    1.086   .     S
H744   C1163   1.088   1_545 S
H745   C933    1.086   .     S
O751   Zn769   1.937   .     S
O751   Zn770   1.931   .     S
O751   Zn768   1.933   .     S
O751   Zn767   1.961   .     S
O752   Zn768   1.934   .     S
O753   Zn770   1.941   .     S
O754   Zn769   1.931   .     S
O755   Zn767   1.926   .     S
O757   C20     1.412   1_556 S
O758   C853    1.388   1_455 S
O759   Zn767   1.923   .     S
O760   Zn770   1.931   .     S
O761   Zn768   1.927   .     S
O762   Zn769   1.935   .     S
O763   Zn770   1.928   .     S
O764   Zn767   1.923   .     S
O765   Zn768   1.937   .     S
O766   Zn769   1.927   .     S
C771   O838    1.269   .     A
C771   C777    1.437   .     S
C771   O840    1.265   .     A
C772   C786    1.391   .     A
C772   H824    1.077   .     S
C772   C798    1.411   .     A
C773   C785    1.390   .     A
C773   H802    1.084   .     S
C773   C786    1.395   .     A
C774   O839    1.282   .     A
C774   C776    1.461   .     S
C774   O841    1.283   .     A
C775   C787    1.402   .     A
C775   C797    1.417   .     A
C775   C784    1.477   .     S
C776   C854    1.339   .     S
C776   O912    1.388   .     S
C778   C781    1.450   .     S
C778   C1010   1.331   .     S
C778   H1052   1.088   .     S
C779   C780    1.434   .     S
C779   C1240   1.331   1_545 S
C779   H1284   1.086   1_545 S
C780   O836    1.275   .     A
C780   O842    1.275   .     A
C781   O837    1.272   .     A
C781   O843    1.271   .     A
C782   O834    1.382   .     S
C782   C787    1.391   .     A
C782   C100    1.398   1_556 S
C783   O829    1.266   .     A
C783   O831    1.277   .     A
C783   C786    1.451   .     S
C784   O832    1.284   .     A
C784   O830    1.284   .     A
C785   O833    1.384   .     S
C787   H825    1.084   .     S
C788   H804    1.111   .     S
C788   H803    1.117   .     S
C788   C96     1.525   1_556 S
C788   O140    1.415   1_556 S
C789   H807    1.110   .     S
C789   H805    1.111   .     S
C790   H809    1.114   .     S
C790   H808    1.114   .     S
C790   C1022   1.521   .     S
C791   H811    1.110   .     S
C791   H810    1.111   .     S
C791   H812    1.110   .     S
C791   C1252   1.521   1_545 S
C792   H814    1.116   .     S
C792   O835    1.412   .     S
C792   C794    1.529   .     S
C792   H815    1.113   .     S
C793   H826    1.076   .     S
C794   C795    1.526   .     S
C794   H817    1.112   .     S
C794   H816    1.112   .     S
C795   H820    1.111   .     S
C795   H818    1.111   .     S
C795   H819    1.111   .     S
C796   C797    1.422   .     A
C796   C100    1.417   1_556 S
C796   C105    1.428   1_556 S
C797   C801    1.408   .     A
C799   C800    1.395   .     A
C799   C105    1.427   1_556 S
C799   C92     1.411   1_556 S
C800   C801    1.382   .     A
C800   H823    1.083   .     S
C801   H827    1.081   .     S
H806   C96     1.110   1_556 S
H813   C854    1.086   .     S
H821   C1240   1.088   1_545 S
H822   C1010   1.086   .     S
O828   Zn846   1.937   .     S
O828   Zn847   1.931   .     S
O828   Zn845   1.933   .     S
O828   Zn844   1.961   .     S
O829   Zn845   1.934   .     S
O830   Zn847   1.941   .     S
O831   Zn846   1.931   .     S
O832   Zn844   1.926   .     S
O834   C97     1.412   1_556 S
O836   Zn844   1.923   .     S
O837   Zn847   1.931   .     S
O838   Zn845   1.927   .     S
O839   Zn846   1.935   .     S
O840   Zn847   1.928   .     S
O841   Zn844   1.923   .     S
O842   Zn845   1.937   .     S
O843   Zn846   1.927   .     S
C848   O915    1.269   .     A
C848   C854    1.437   .     S
C848   O917    1.265   .     A
C849   C863    1.391   .     A
C849   H901    1.077   .     S
C849   C875    1.411   .     A
C850   C862    1.390   .     A
C850   H879    1.084   .     S
C850   C863    1.395   .     A
C851   O916    1.282   .     A
C851   C853    1.461   .     S
C851   O918    1.283   .     A
C852   C864    1.402   .     A
C852   C874    1.417   .     A
C852   C861    1.477   .     S
C853   C700    1.339   1_655 S
C853   O758    1.388   1_655 S
C855   C858    1.450   .     S
C855   C1087   1.331   .     S
C855   H1129   1.088   .     S
C856   C857    1.434   .     S
C856   C1317   1.331   1_545 S
C856   H1361   1.086   1_545 S
C857   O913    1.275   .     A
C857   O919    1.275   .     A
C858   O914    1.272   .     A
C858   O920    1.271   .     A
C859   O911    1.382   .     S
C859   C864    1.391   .     A
C859   C177    1.398   1_556 S
C860   O906    1.266   .     A
C860   O908    1.277   .     A
C860   C863    1.451   .     S
C861   O909    1.284   .     A
C861   O907    1.284   .     A
C862   O910    1.384   .     S
C864   H902    1.084   .     S
C865   H881    1.111   .     S
C865   H880    1.117   .     S
C865   C173    1.525   1_556 S
C865   O217    1.415   1_556 S
C866   H884    1.110   .     S
C866   H882    1.111   .     S
C867   H886    1.114   .     S
C867   H885    1.114   .     S
C867   C1099   1.521   .     S
C868   H888    1.110   .     S
C868   H887    1.111   .     S
C868   H889    1.110   .     S
C868   C1329   1.521   1_545 S
C869   H891    1.116   .     S
C869   O912    1.412   .     S
C869   C871    1.529   .     S
C869   H892    1.113   .     S
C870   H903    1.076   .     S
C871   C872    1.526   .     S
C871   H894    1.112   .     S
C871   H893    1.112   .     S
C872   H897    1.111   .     S
C872   H895    1.111   .     S
C872   H896    1.111   .     S
C873   C874    1.422   .     A
C873   C177    1.417   1_556 S
C873   C182    1.428   1_556 S
C874   C878    1.408   .     A
C876   C877    1.395   .     A
C876   C182    1.427   1_556 S
C876   C169    1.411   1_556 S
C877   C878    1.382   .     A
C877   H900    1.083   .     S
C878   H904    1.081   .     S
H883   C173    1.110   1_556 S
H890   C700    1.086   1_655 S
H898   C1317   1.088   1_545 S
H899   C1087   1.086   .     S
O905   Zn923   1.937   .     S
O905   Zn924   1.931   .     S
O905   Zn922   1.933   .     S
O905   Zn921   1.961   .     S
O906   Zn922   1.934   .     S
O907   Zn924   1.941   .     S
O908   Zn923   1.931   .     S
O909   Zn921   1.926   .     S
O911   C174    1.412   1_556 S
O913   Zn921   1.923   .     S
O914   Zn924   1.931   .     S
O915   Zn922   1.927   .     S
O916   Zn923   1.935   .     S
O917   Zn924   1.928   .     S
O918   Zn921   1.923   .     S
O919   Zn922   1.937   .     S
O920   Zn923   1.927   .     S
C925   O992    1.269   .     A
C925   C931    1.437   .     S
C925   O994    1.265   .     A
C926   C940    1.391   .     A
C926   H978    1.077   .     S
C926   C952    1.411   .     A
C927   C939    1.390   .     A
C927   H956    1.084   .     S
C927   C940    1.395   .     A
C928   O993    1.282   .     A
C928   C930    1.461   .     S
C928   O995    1.283   .     A
C929   C941    1.402   .     A
C929   C951    1.417   .     A
C929   C938    1.477   .     S
C930   C1008   1.339   .     S
C930   O1066   1.388   .     S
C931   C1084   1.339   1_455 S
C931   H1121   1.086   1_455 S
C932   C935    1.450   .     S
C932   C1164   1.331   .     S
C932   H1206   1.088   .     S
C933   C934    1.434   .     S
C934   O990    1.275   .     A
C934   O996    1.275   .     A
C935   O991    1.272   .     A
C935   O997    1.271   .     A
C936   O988    1.382   .     S
C936   C941    1.391   .     A
C936   C254    1.398   1_556 S
C937   O983    1.266   .     A
C937   O985    1.277   .     A
C937   C940    1.451   .     S
C938   O986    1.284   .     A
C938   O984    1.284   .     A
C939   O987    1.384   .     S
C941   H979    1.084   .     S
C942   H958    1.111   .     S
C942   H957    1.117   .     S
C942   C250    1.525   1_556 S
C942   O294    1.415   1_556 S
C943   H961    1.110   .     S
C943   H959    1.111   .     S
C944   H963    1.114   .     S
C944   H962    1.114   .     S
C944   C1176   1.521   .     S
C945   H965    1.110   .     S
C945   H964    1.111   .     S
C945   H966    1.110   .     S
C946   H968    1.116   .     S
C946   O989    1.412   .     S
C946   C948    1.529   .     S
C946   H969    1.113   .     S
C947   H980    1.076   .     S
C948   C949    1.526   .     S
C948   H971    1.112   .     S
C948   H970    1.112   .     S
C949   H974    1.111   .     S
C949   H972    1.111   .     S
C949   H973    1.111   .     S
C950   C951    1.422   .     A
C950   C254    1.417   1_556 S
C950   C259    1.428   1_556 S
C951   C955    1.408   .     A
C953   C954    1.395   .     A
C953   C259    1.427   1_556 S
C953   C246    1.411   1_556 S
C954   C955    1.382   .     A
C954   H977    1.083   .     S
C955   H981    1.081   .     S
H960   C250    1.110   1_556 S
H967   C1008   1.086   .     S
H976   C1164   1.086   .     S
O982   Zn1000  1.937   .     S
O982   Zn1001  1.931   .     S
O982   Zn999   1.933   .     S
O982   Zn998   1.961   .     S
O983   Zn999   1.934   .     S
O984   Zn1001  1.941   .     S
O985   Zn1000  1.931   .     S
O986   Zn998   1.926   .     S
O988   C251    1.412   1_556 S
O989   C1084   1.388   1_455 S
O990   Zn998   1.923   .     S
O991   Zn1001  1.931   .     S
O992   Zn999   1.927   .     S
O993   Zn1000  1.935   .     S
O994   Zn1001  1.928   .     S
O995   Zn998   1.923   .     S
O996   Zn999   1.937   .     S
O997   Zn1000  1.927   .     S
C1002  O1069   1.269   .     A
C1002  C1008   1.437   .     S
C1002  O1071   1.265   .     A
C1003  C1017   1.391   .     A
C1003  H1055   1.077   .     S
C1003  C1029   1.411   .     A
C1004  C1016   1.390   .     A
C1004  H1033   1.084   .     S
C1004  C1017   1.395   .     A
C1005  O1070   1.282   .     A
C1005  C1007   1.461   .     S
C1005  O1072   1.283   .     A
C1006  C1018   1.402   .     A
C1006  C1028   1.417   .     A
C1006  C1015   1.477   .     S
C1007  C1085   1.339   .     S
C1007  O1143   1.388   .     S
C1009  C1012   1.450   .     S
C1009  C1241   1.331   .     S
C1009  H1283   1.088   .     S
C1010  C1011   1.434   .     S
C1011  O1067   1.275   .     A
C1011  O1073   1.275   .     A
C1012  O1068   1.272   .     A
C1012  O1074   1.271   .     A
C1013  O1065   1.382   .     S
C1013  C1018   1.391   .     A
C1013  C331    1.398   1_556 S
C1014  O1060   1.266   .     A
C1014  O1062   1.277   .     A
C1014  C1017   1.451   .     S
C1015  O1063   1.284   .     A
C1015  O1061   1.284   .     A
C1016  O1064   1.384   .     S
C1018  H1056   1.084   .     S
C1019  H1035   1.111   .     S
C1019  H1034   1.117   .     S
C1019  C327    1.525   1_556 S
C1019  O371    1.415   1_556 S
C1020  H1038   1.110   .     S
C1020  H1036   1.111   .     S
C1021  H1040   1.114   .     S
C1021  H1039   1.114   .     S
C1021  C1253   1.521   .     S
C1022  H1042   1.110   .     S
C1022  H1041   1.111   .     S
C1022  H1043   1.110   .     S
C1023  H1045   1.116   .     S
C1023  O1066   1.412   .     S
C1023  C1025   1.529   .     S
C1023  H1046   1.113   .     S
C1024  H1057   1.076   .     S
C1025  C1026   1.526   .     S
C1025  H1048   1.112   .     S
C1025  H1047   1.112   .     S
C1026  H1051   1.111   .     S
C1026  H1049   1.111   .     S
C1026  H1050   1.111   .     S
C1027  C1028   1.422   .     A
C1027  C331    1.417   1_556 S
C1027  C336    1.428   1_556 S
C1028  C1032   1.408   .     A
C1030  C1031   1.395   .     A
C1030  C336    1.427   1_556 S
C1030  C323    1.411   1_556 S
C1031  C1032   1.382   .     A
C1031  H1054   1.083   .     S
C1032  H1058   1.081   .     S
H1037  C327    1.110   1_556 S
H1044  C1085   1.086   .     S
H1053  C1241   1.086   .     S
O1059  Zn1077  1.937   .     S
O1059  Zn1078  1.931   .     S
O1059  Zn1076  1.933   .     S
O1059  Zn1075  1.961   .     S
O1060  Zn1076  1.934   .     S
O1061  Zn1078  1.941   .     S
O1062  Zn1077  1.931   .     S
O1063  Zn1075  1.926   .     S
O1065  C328    1.412   1_556 S
O1067  Zn1075  1.923   .     S
O1068  Zn1078  1.931   .     S
O1069  Zn1076  1.927   .     S
O1070  Zn1077  1.935   .     S
O1071  Zn1078  1.928   .     S
O1072  Zn1075  1.923   .     S
O1073  Zn1076  1.937   .     S
O1074  Zn1077  1.927   .     S
C1079  O1146   1.269   .     A
C1079  C1085   1.437   .     S
C1079  O1148   1.265   .     A
C1080  C1094   1.391   .     A
C1080  H1132   1.077   .     S
C1080  C1106   1.411   .     A
C1081  C1093   1.390   .     A
C1081  H1110   1.084   .     S
C1081  C1094   1.395   .     A
C1082  O1147   1.282   .     A
C1082  C1084   1.461   .     S
C1082  O1149   1.283   .     A
C1083  C1095   1.402   .     A
C1083  C1105   1.417   .     A
C1083  C1092   1.477   .     S
C1084  C931    1.339   1_655 S
C1084  O989    1.388   1_655 S
C1086  C1089   1.450   .     S
C1086  C1318   1.331   .     S
C1086  H1360   1.088   .     S
C1087  C1088   1.434   .     S
C1088  O1144   1.275   .     A
C1088  O1150   1.275   .     A
C1089  O1145   1.272   .     A
C1089  O1151   1.271   .     A
C1090  O1142   1.382   .     S
C1090  C1095   1.391   .     A
C1090  C408    1.398   1_556 S
C1091  O1137   1.266   .     A
C1091  O1139   1.277   .     A
C1091  C1094   1.451   .     S
C1092  O1140   1.284   .     A
C1092  O1138   1.284   .     A
C1093  O1141   1.384   .     S
C1095  H1133   1.084   .     S
C1096  H1112   1.111   .     S
C1096  H1111   1.117   .     S
C1096  C404    1.525   1_556 S
C1096  O448    1.415   1_556 S
C1097  H1115   1.110   .     S
C1097  H1113   1.111   .     S
C1098  H1117   1.114   .     S
C1098  H1116   1.114   .     S
C1098  C1330   1.521   .     S
C1099  H1119   1.110   .     S
C1099  H1118   1.111   .     S
C1099  H1120   1.110   .     S
C1100  H1122   1.116   .     S
C1100  O1143   1.412   .     S
C1100  C1102   1.529   .     S
C1100  H1123   1.113   .     S
C1101  H1134   1.076   .     S
C1102  C1103   1.526   .     S
C1102  H1125   1.112   .     S
C1102  H1124   1.112   .     S
C1103  H1128   1.111   .     S
C1103  H1126   1.111   .     S
C1103  H1127   1.111   .     S
C1104  C1105   1.422   .     A
C1104  C408    1.417   1_556 S
C1104  C413    1.428   1_556 S
C1105  C1109   1.408   .     A
C1107  C1108   1.395   .     A
C1107  C413    1.427   1_556 S
C1107  C400    1.411   1_556 S
C1108  C1109   1.382   .     A
C1108  H1131   1.083   .     S
C1109  H1135   1.081   .     S
H1114  C404    1.110   1_556 S
H1121  C931    1.086   1_655 S
H1130  C1318   1.086   .     S
O1136  Zn1154  1.937   .     S
O1136  Zn1155  1.931   .     S
O1136  Zn1153  1.933   .     S
O1136  Zn1152  1.961   .     S
O1137  Zn1153  1.934   .     S
O1138  Zn1155  1.941   .     S
O1139  Zn1154  1.931   .     S
O1140  Zn1152  1.926   .     S
O1142  C405    1.412   1_556 S
O1144  Zn1152  1.923   .     S
O1145  Zn1155  1.931   .     S
O1146  Zn1153  1.927   .     S
O1147  Zn1154  1.935   .     S
O1148  Zn1155  1.928   .     S
O1149  Zn1152  1.923   .     S
O1150  Zn1153  1.937   .     S
O1151  Zn1154  1.927   .     S
C1156  O1223   1.269   .     A
C1156  C1162   1.437   .     S
C1156  O1225   1.265   .     A
C1157  C1171   1.391   .     A
C1157  H1209   1.077   .     S
C1157  C1183   1.411   .     A
C1158  C1170   1.390   .     A
C1158  H1187   1.084   .     S
C1158  C1171   1.395   .     A
C1159  O1224   1.282   .     A
C1159  C1161   1.461   .     S
C1159  O1226   1.283   .     A
C1160  C1172   1.402   .     A
C1160  C1182   1.417   .     A
C1160  C1169   1.477   .     S
C1161  C1239   1.339   .     S
C1161  O1297   1.388   .     S
C1162  C1315   1.339   1_455 S
C1162  H1352   1.086   1_455 S
C1163  C1166   1.450   .     S
C1163  C702    1.331   1_565 S
C1163  H744    1.088   1_565 S
C1164  C1165   1.434   .     S
C1165  O1221   1.275   .     A
C1165  O1227   1.275   .     A
C1166  O1222   1.272   .     A
C1166  O1228   1.271   .     A
C1167  O1219   1.382   .     S
C1167  C1172   1.391   .     A
C1167  C485    1.398   1_556 S
C1168  O1214   1.266   .     A
C1168  O1216   1.277   .     A
C1168  C1171   1.451   .     S
C1169  O1217   1.284   .     A
C1169  O1215   1.284   .     A
C1170  O1218   1.384   .     S
C1172  H1210   1.084   .     S
C1173  H1189   1.111   .     S
C1173  H1188   1.117   .     S
C1173  C481    1.525   1_556 S
C1173  O525    1.415   1_556 S
C1174  H1192   1.110   .     S
C1174  H1190   1.111   .     S
C1175  H1194   1.114   .     S
C1175  H1193   1.114   .     S
C1175  C714    1.521   1_565 S
C1176  H1196   1.110   .     S
C1176  H1195   1.111   .     S
C1176  H1197   1.110   .     S
C1177  H1199   1.116   .     S
C1177  O1220   1.412   .     S
C1177  C1179   1.529   .     S
C1177  H1200   1.113   .     S
C1178  H1211   1.076   .     S
C1179  C1180   1.526   .     S
C1179  H1202   1.112   .     S
C1179  H1201   1.112   .     S
C1180  H1205   1.111   .     S
C1180  H1203   1.111   .     S
C1180  H1204   1.111   .     S
C1181  C1182   1.422   .     A
C1181  C485    1.417   1_556 S
C1181  C490    1.428   1_556 S
C1182  C1186   1.408   .     A
C1184  C1185   1.395   .     A
C1184  C490    1.427   1_556 S
C1184  C477    1.411   1_556 S
C1185  C1186   1.382   .     A
C1185  H1208   1.083   .     S
C1186  H1212   1.081   .     S
H1191  C481    1.110   1_556 S
H1198  C1239   1.086   .     S
H1207  C702    1.086   1_565 S
O1213  Zn1231  1.937   .     S
O1213  Zn1232  1.931   .     S
O1213  Zn1230  1.933   .     S
O1213  Zn1229  1.961   .     S
O1214  Zn1230  1.934   .     S
O1215  Zn1232  1.941   .     S
O1216  Zn1231  1.931   .     S
O1217  Zn1229  1.926   .     S
O1219  C482    1.412   1_556 S
O1220  C1315   1.388   1_455 S
O1221  Zn1229  1.923   .     S
O1222  Zn1232  1.931   .     S
O1223  Zn1230  1.927   .     S
O1224  Zn1231  1.935   .     S
O1225  Zn1232  1.928   .     S
O1226  Zn1229  1.923   .     S
O1227  Zn1230  1.937   .     S
O1228  Zn1231  1.927   .     S
C1233  O1300   1.269   .     A
C1233  C1239   1.437   .     S
C1233  O1302   1.265   .     A
C1234  C1248   1.391   .     A
C1234  H1286   1.077   .     S
C1234  C1260   1.411   .     A
C1235  C1247   1.390   .     A
C1235  H1264   1.084   .     S
C1235  C1248   1.395   .     A
C1236  O1301   1.282   .     A
C1236  C1238   1.461   .     S
C1236  O1303   1.283   .     A
C1237  C1249   1.402   .     A
C1237  C1259   1.417   .     A
C1237  C1246   1.477   .     S
C1238  C1316   1.339   .     S
C1238  O1374   1.388   .     S
C1240  C1243   1.450   .     S
C1240  C779    1.331   1_565 S
C1240  H821    1.088   1_565 S
C1241  C1242   1.434   .     S
C1242  O1298   1.275   .     A
C1242  O1304   1.275   .     A
C1243  O1299   1.272   .     A
C1243  O1305   1.271   .     A
C1244  O1296   1.382   .     S
C1244  C1249   1.391   .     A
C1244  C562    1.398   1_556 S
C1245  O1291   1.266   .     A
C1245  O1293   1.277   .     A
C1245  C1248   1.451   .     S
C1246  O1294   1.284   .     A
C1246  O1292   1.284   .     A
C1247  O1295   1.384   .     S
C1249  H1287   1.084   .     S
C1250  H1266   1.111   .     S
C1250  H1265   1.117   .     S
C1250  C558    1.525   1_556 S
C1250  O602    1.415   1_556 S
C1251  H1269   1.110   .     S
C1251  H1267   1.111   .     S
C1252  H1271   1.114   .     S
C1252  H1270   1.114   .     S
C1252  C791    1.521   1_565 S
C1253  H1273   1.110   .     S
C1253  H1272   1.111   .     S
C1253  H1274   1.110   .     S
C1254  H1276   1.116   .     S
C1254  O1297   1.412   .     S
C1254  C1256   1.529   .     S
C1254  H1277   1.113   .     S
C1255  H1288   1.076   .     S
C1256  C1257   1.526   .     S
C1256  H1279   1.112   .     S
C1256  H1278   1.112   .     S
C1257  H1282   1.111   .     S
C1257  H1280   1.111   .     S
C1257  H1281   1.111   .     S
C1258  C1259   1.422   .     A
C1258  C562    1.417   1_556 S
C1258  C567    1.428   1_556 S
C1259  C1263   1.408   .     A
C1261  C1262   1.395   .     A
C1261  C567    1.427   1_556 S
C1261  C554    1.411   1_556 S
C1262  C1263   1.382   .     A
C1262  H1285   1.083   .     S
C1263  H1289   1.081   .     S
H1268  C558    1.110   1_556 S
H1275  C1316   1.086   .     S
H1284  C779    1.086   1_565 S
O1290  Zn1308  1.937   .     S
O1290  Zn1309  1.931   .     S
O1290  Zn1307  1.933   .     S
O1290  Zn1306  1.961   .     S
O1291  Zn1307  1.934   .     S
O1292  Zn1309  1.941   .     S
O1293  Zn1308  1.931   .     S
O1294  Zn1306  1.926   .     S
O1296  C559    1.412   1_556 S
O1298  Zn1306  1.923   .     S
O1299  Zn1309  1.931   .     S
O1300  Zn1307  1.927   .     S
O1301  Zn1308  1.935   .     S
O1302  Zn1309  1.928   .     S
O1303  Zn1306  1.923   .     S
O1304  Zn1307  1.937   .     S
O1305  Zn1308  1.927   .     S
C1310  O1377   1.269   .     A
C1310  C1316   1.437   .     S
C1310  O1379   1.265   .     A
C1311  C1325   1.391   .     A
C1311  H1363   1.077   .     S
C1311  C1337   1.411   .     A
C1312  C1324   1.390   .     A
C1312  H1341   1.084   .     S
C1312  C1325   1.395   .     A
C1313  O1378   1.282   .     A
C1313  C1315   1.461   .     S
C1313  O1380   1.283   .     A
C1314  C1326   1.402   .     A
C1314  C1336   1.417   .     A
C1314  C1323   1.477   .     S
C1315  C1162   1.339   1_655 S
C1315  O1220   1.388   1_655 S
C1317  C1320   1.450   .     S
C1317  C856    1.331   1_565 S
C1317  H898    1.088   1_565 S
C1318  C1319   1.434   .     S
C1319  O1375   1.275   .     A
C1319  O1381   1.275   .     A
C1320  O1376   1.272   .     A
C1320  O1382   1.271   .     A
C1321  O1373   1.382   .     S
C1321  C1326   1.391   .     A
C1321  C639    1.398   1_556 S
C1322  O1368   1.266   .     A
C1322  O1370   1.277   .     A
C1322  C1325   1.451   .     S
C1323  O1371   1.284   .     A
C1323  O1369   1.284   .     A
C1324  O1372   1.384   .     S
C1326  H1364   1.084   .     S
C1327  H1343   1.111   .     S
C1327  H1342   1.117   .     S
C1327  C635    1.525   1_556 S
C1327  O679    1.415   1_556 S
C1328  H1346   1.110   .     S
C1328  H1344   1.111   .     S
C1329  H1348   1.114   .     S
C1329  H1347   1.114   .     S
C1329  C868    1.521   1_565 S
C1330  H1350   1.110   .     S
C1330  H1349   1.111   .     S
C1330  H1351   1.110   .     S
C1331  H1353   1.116   .     S
C1331  O1374   1.412   .     S
C1331  C1333   1.529   .     S
C1331  H1354   1.113   .     S
C1332  H1365   1.076   .     S
C1333  C1334   1.526   .     S
C1333  H1356   1.112   .     S
C1333  H1355   1.112   .     S
C1334  H1359   1.111   .     S
C1334  H1357   1.111   .     S
C1334  H1358   1.111   .     S
C1335  C1336   1.422   .     A
C1335  C639    1.417   1_556 S
C1335  C644    1.428   1_556 S
C1336  C1340   1.408   .     A
C1338  C1339   1.395   .     A
C1338  C644    1.427   1_556 S
C1338  C631    1.411   1_556 S
C1339  C1340   1.382   .     A
C1339  H1362   1.083   .     S
C1340  H1366   1.081   .     S
H1345  C635    1.110   1_556 S
H1352  C1162   1.086   1_655 S
H1361  C856    1.086   1_565 S
O1367  Zn1385  1.937   .     S
O1367  Zn1386  1.931   .     S
O1367  Zn1384  1.933   .     S
O1367  Zn1383  1.961   .     S
O1368  Zn1384  1.934   .     S
O1369  Zn1386  1.941   .     S
O1370  Zn1385  1.931   .     S
O1371  Zn1383  1.926   .     S
O1373  C636    1.412   1_556 S
O1375  Zn1383  1.923   .     S
O1376  Zn1386  1.931   .     S
O1377  Zn1384  1.927   .     S
O1378  Zn1385  1.935   .     S
O1379  Zn1386  1.928   .     S
O1380  Zn1383  1.923   .     S
O1381  Zn1384  1.937   .     S
O1382  Zn1385  1.927   .     S
