data_str_m1_o10_o16_pcu_sym.264
_audit_creation_date              2020-01-03
_audit_creation_method            'Materials Studio'
_symmetry_space_group_name_H-M    'P1'
_symmetry_Int_Tables_number       1
_symmetry_cell_setting            triclinic
loop_
_symmetry_equiv_pos_as_xyz
  x,y,z
_cell_length_a                    32.5414
_cell_length_b                    32.6493
_cell_length_c                    30.7933
_cell_angle_alpha                 96.9609
_cell_angle_beta                  75.3948
_cell_angle_gamma                 98.6649
loop_
_atom_site_label
_atom_site_type_symbol
_atom_site_fract_x
_atom_site_fract_y
_atom_site_fract_z
_atom_site_U_iso_or_equiv
_atom_site_adp_type
_atom_site_occupancy
C1     C     0.05270   0.15939   0.25988   0.00000  Uiso   1.00
C2     C     0.18160   0.16357   0.05486   0.00000  Uiso   1.00
C3     C     0.20192   0.09703   0.06219   0.00000  Uiso   1.00
C4     C     0.28061   0.17415   0.24054   0.00000  Uiso   1.00
C5     C     0.14008   0.19108   0.42090   0.00000  Uiso   1.00
C6     C     0.32602   0.17898   0.23887   0.00000  Uiso   1.00
C7     C     0.00750   0.15604   0.26313   0.00000  Uiso   1.00
C8     C     0.18036   0.32264   0.23945   0.00000  Uiso   1.00
C9     C     0.14980   0.01208   0.26366   0.00000  Uiso   1.00
C10    C     0.15637   0.05588   0.25963   0.00000  Uiso   1.00
C11    C     0.17631   0.27781   0.24046   0.00000  Uiso   1.00
C12    C     0.12049   0.23784   0.48789   0.00000  Uiso   1.00
C13    C     0.18510   0.14781   0.12918   0.00000  Uiso   1.00
C14    C     0.14792   0.18389   0.37124   0.00000  Uiso   1.00
C15    C     0.19592   0.08280   0.01877   0.00000  Uiso   1.00
C16    C     0.19268   0.13701   0.08055   0.00000  Uiso   1.00
C17    C     0.12681   0.22903   0.44164   0.00000  Uiso   1.00
C18    C     0.22070   0.07159   0.08748   0.00000  Uiso   1.00
C19    C     0.25915   0.08725   0.09998   0.00000  Uiso   1.00
C20    C     0.27774   0.06308   0.12242   0.00000  Uiso   1.00
C21    C     0.25823   0.02309   0.13239   0.00000  Uiso   1.00
C22    C     0.21974   0.00746   0.12058   0.00000  Uiso   1.00
C23    C     0.13040   0.21048   0.01436   0.00000  Uiso   1.00
C24    C     0.20082   0.03169   0.09850   0.00000  Uiso   1.00
C25    C     0.10654   0.32814   0.28825   0.00000  Uiso   1.00
C26    C     0.09547   0.33166   0.33550   0.00000  Uiso   1.00
C27    C     0.05498   0.31469   0.35875   0.00000  Uiso   1.00
C28    C     0.02524   0.29453   0.33494   0.00000  Uiso   1.00
C29    C     0.03583   0.29161   0.28785   0.00000  Uiso   1.00
C30    C     0.07627   0.30858   0.26452   0.00000  Uiso   1.00
C31    C     0.16336   0.05012   0.43604   0.00000  Uiso   1.00
C32    C     0.21250   0.04449   0.49775   0.00000  Uiso   1.00
C33    C     0.11491   0.21820   0.06393   0.00000  Uiso   1.00
C34    C     0.14935   0.17399   0.49306   0.00000  Uiso   1.00
C35    C     0.09040   0.18621   0.08948   0.00000  Uiso   1.00
C36    C     0.08048   0.19177   0.13646   0.00000  Uiso   1.00
C37    C     0.09382   0.22962   0.15832   0.00000  Uiso   1.00
C38    C     0.11636   0.26227   0.13319   0.00000  Uiso   1.00
C39    C     0.12693   0.25666   0.08614   0.00000  Uiso   1.00
C40    C     0.14811   0.16200   0.44760   0.00000  Uiso   1.00
C41    C     0.16866   0.14850   0.01503   0.00000  Uiso   1.00
C42    C     0.17660   0.10742   0.49586   0.00000  Uiso   1.00
C43    C     0.16488   0.09304   0.45469   0.00000  Uiso   1.00
C44    C     0.15234   0.12052   0.43078   0.00000  Uiso   1.00
H45    H     0.32005   0.13246   0.28321   0.00000  Uiso   1.00
H46    H     0.27286   0.00425   0.14941   0.00000  Uiso   1.00
H47    H     0.20471   0.30985   0.12851   0.00000  Uiso   1.00
H48    H     0.17088   0.01943   0.08974   0.00000  Uiso   1.00
H49    H     0.11830   0.01385   0.35417   0.00000  Uiso   1.00
H50    H     0.04667   0.31714   0.39521   0.00000  Uiso   1.00
H51    H     0.32728   0.28135   0.35297   0.00000  Uiso   1.00
H52    H     0.01271   0.27625   0.26944   0.00000  Uiso   1.00
H53    H     0.08408   0.30650   0.22811   0.00000  Uiso   1.00
H54    H     0.08050   0.15645   0.07302   0.00000  Uiso   1.00
H55    H     0.06305   0.16642   0.15581   0.00000  Uiso   1.00
H56    H     0.20976   0.00458   0.21938   0.00000  Uiso   1.00
H57    H     0.08683   0.23362   0.19471   0.00000  Uiso   1.00
H58    H     0.12635   0.29167   0.15017   0.00000  Uiso   1.00
H59    H     0.14586   0.28162   0.06706   0.00000  Uiso   1.00
H60    H     0.18137   0.19566   0.06798   0.00000  Uiso   1.00
H61    H     0.12016   0.25166   0.42215   0.00000  Uiso   1.00
H62    H     0.10691   0.26596   0.00328   0.00000  Uiso   1.00
H63    H     0.14353   0.10827   0.39966   0.00000  Uiso   1.00
H64    H     0.01401   0.20146   0.21785   0.00000  Uiso   1.00
H65    H     0.27496   0.11796   0.09185   0.00000  Uiso   1.00
H66    H     0.30744   0.07523   0.13178   0.00000  Uiso   1.00
N67    N     0.16192   0.01582   0.42097   0.00000  Uiso   1.00
N68    N     0.22599   0.01394   0.48135   0.00000  Uiso   1.00
O69    O     0.16667   0.16667   0.25000   0.00000  Uiso   1.00
O70    O     0.15451   0.12637   0.15458   0.00000  Uiso   1.00
O71    O     0.12940   0.20391   0.34968   0.00000  Uiso   1.00
O72    O     0.20824   0.17759   0.14606   0.00000  Uiso   1.00
O73    O     0.17451   0.15880   0.34968   0.00000  Uiso   1.00
O74    O     0.17930   0.08019   0.28213   0.00000  Uiso   1.00
O75    O     0.14632   0.26085   0.27013   0.00000  Uiso   1.00
O76    O     0.07412   0.13291   0.23413   0.00000  Uiso   1.00
O77    O     0.26693   0.19272   0.21360   0.00000  Uiso   1.00
O78    O     0.07071   0.18878   0.28213   0.00000  Uiso   1.00
O79    O     0.25491   0.15226   0.27013   0.00000  Uiso   1.00
O80    O     0.13760   0.06944   0.23413   0.00000  Uiso   1.00
O81    O     0.20345   0.25620   0.21360   0.00000  Uiso   1.00
Zn82   Zn    0.19338   0.13994   0.28734   0.00000  Uiso   1.00
Zn83   Zn    0.13379   0.12458   0.21875   0.00000  Uiso   1.00
Zn84   Zn    0.21056   0.19775   0.20657   0.00000  Uiso   1.00
Zn85   Zn    0.12893   0.20439   0.28733   0.00000  Uiso   1.00
C86    C     0.38603   0.15939   0.25988   0.00000  Uiso   1.00
C87    C     0.51494   0.16357   0.05486   0.00000  Uiso   1.00
C88    C     0.53525   0.09703   0.06219   0.00000  Uiso   1.00
C89    C     0.61395   0.17415   0.24054   0.00000  Uiso   1.00
C90    C     0.47341   0.19108   0.42090   0.00000  Uiso   1.00
C91    C     0.65935   0.17898   0.23887   0.00000  Uiso   1.00
C92    C     0.34083   0.15604   0.26313   0.00000  Uiso   1.00
C93    C     0.51369   0.32264   0.23945   0.00000  Uiso   1.00
C94    C     0.48314   0.01208   0.26366   0.00000  Uiso   1.00
C95    C     0.48971   0.05588   0.25963   0.00000  Uiso   1.00
C96    C     0.50965   0.27781   0.24046   0.00000  Uiso   1.00
C97    C     0.45383   0.23784   0.48789   0.00000  Uiso   1.00
C98    C     0.51843   0.14781   0.12918   0.00000  Uiso   1.00
C99    C     0.48125   0.18389   0.37124   0.00000  Uiso   1.00
C100   C     0.52925   0.08280   0.01877   0.00000  Uiso   1.00
C101   C     0.52602   0.13701   0.08055   0.00000  Uiso   1.00
C102   C     0.46014   0.22903   0.44164   0.00000  Uiso   1.00
C103   C     0.55404   0.07159   0.08748   0.00000  Uiso   1.00
C104   C     0.59249   0.08725   0.09998   0.00000  Uiso   1.00
C105   C     0.61107   0.06308   0.12242   0.00000  Uiso   1.00
C106   C     0.59156   0.02309   0.13239   0.00000  Uiso   1.00
C107   C     0.55308   0.00746   0.12058   0.00000  Uiso   1.00
C108   C     0.46374   0.21048   0.01436   0.00000  Uiso   1.00
C109   C     0.53415   0.03169   0.09850   0.00000  Uiso   1.00
C110   C     0.43987   0.32814   0.28825   0.00000  Uiso   1.00
C111   C     0.42880   0.33166   0.33550   0.00000  Uiso   1.00
C112   C     0.38831   0.31469   0.35875   0.00000  Uiso   1.00
C113   C     0.35857   0.29453   0.33494   0.00000  Uiso   1.00
C114   C     0.36917   0.29161   0.28785   0.00000  Uiso   1.00
C115   C     0.40960   0.30858   0.26452   0.00000  Uiso   1.00
C116   C     0.49669   0.05012   0.43604   0.00000  Uiso   1.00
C117   C     0.54584   0.04449   0.49775   0.00000  Uiso   1.00
C118   C     0.44824   0.21820   0.06393   0.00000  Uiso   1.00
C119   C     0.48269   0.17399   0.49306   0.00000  Uiso   1.00
C120   C     0.42373   0.18621   0.08948   0.00000  Uiso   1.00
C121   C     0.41382   0.19177   0.13646   0.00000  Uiso   1.00
C122   C     0.42715   0.22962   0.15832   0.00000  Uiso   1.00
C123   C     0.44969   0.26227   0.13319   0.00000  Uiso   1.00
C124   C     0.46027   0.25666   0.08614   0.00000  Uiso   1.00
C125   C     0.48144   0.16200   0.44760   0.00000  Uiso   1.00
C126   C     0.50199   0.14850   0.01503   0.00000  Uiso   1.00
C127   C     0.50993   0.10742   0.49586   0.00000  Uiso   1.00
C128   C     0.49821   0.09304   0.45469   0.00000  Uiso   1.00
C129   C     0.48567   0.12052   0.43078   0.00000  Uiso   1.00
H130   H     0.65339   0.13246   0.28321   0.00000  Uiso   1.00
H131   H     0.60619   0.00425   0.14941   0.00000  Uiso   1.00
H132   H     0.53804   0.30985   0.12851   0.00000  Uiso   1.00
H133   H     0.50422   0.01943   0.08974   0.00000  Uiso   1.00
H134   H     0.45163   0.01385   0.35417   0.00000  Uiso   1.00
H135   H     0.38000   0.31714   0.39521   0.00000  Uiso   1.00
H136   H     0.66061   0.28135   0.35297   0.00000  Uiso   1.00
H137   H     0.34604   0.27625   0.26944   0.00000  Uiso   1.00
H138   H     0.41742   0.30650   0.22811   0.00000  Uiso   1.00
H139   H     0.41383   0.15645   0.07302   0.00000  Uiso   1.00
H140   H     0.39638   0.16642   0.15581   0.00000  Uiso   1.00
H141   H     0.54310   0.00458   0.21938   0.00000  Uiso   1.00
H142   H     0.42016   0.23362   0.19471   0.00000  Uiso   1.00
H143   H     0.45968   0.29167   0.15017   0.00000  Uiso   1.00
H144   H     0.47920   0.28162   0.06706   0.00000  Uiso   1.00
H145   H     0.51471   0.19566   0.06798   0.00000  Uiso   1.00
H146   H     0.45350   0.25166   0.42215   0.00000  Uiso   1.00
H147   H     0.44024   0.26596   0.00328   0.00000  Uiso   1.00
H148   H     0.47687   0.10827   0.39966   0.00000  Uiso   1.00
H149   H     0.34734   0.20146   0.21785   0.00000  Uiso   1.00
H150   H     0.60829   0.11796   0.09185   0.00000  Uiso   1.00
H151   H     0.64077   0.07523   0.13178   0.00000  Uiso   1.00
N152   N     0.49526   0.01582   0.42097   0.00000  Uiso   1.00
N153   N     0.55932   0.01394   0.48135   0.00000  Uiso   1.00
O154   O     0.50000   0.16667   0.25000   0.00000  Uiso   1.00
O155   O     0.48784   0.12637   0.15458   0.00000  Uiso   1.00
O156   O     0.46274   0.20391   0.34968   0.00000  Uiso   1.00
O157   O     0.54157   0.17759   0.14606   0.00000  Uiso   1.00
O158   O     0.50785   0.15880   0.34968   0.00000  Uiso   1.00
O159   O     0.51264   0.08019   0.28213   0.00000  Uiso   1.00
O160   O     0.47965   0.26085   0.27013   0.00000  Uiso   1.00
O161   O     0.40745   0.13291   0.23413   0.00000  Uiso   1.00
O162   O     0.60026   0.19272   0.21360   0.00000  Uiso   1.00
O163   O     0.40405   0.18878   0.28213   0.00000  Uiso   1.00
O164   O     0.58824   0.15226   0.27013   0.00000  Uiso   1.00
O165   O     0.47093   0.06944   0.23413   0.00000  Uiso   1.00
O166   O     0.53678   0.25620   0.21360   0.00000  Uiso   1.00
Zn167  Zn    0.52672   0.13994   0.28734   0.00000  Uiso   1.00
Zn168  Zn    0.46713   0.12458   0.21875   0.00000  Uiso   1.00
Zn169  Zn    0.54389   0.19775   0.20657   0.00000  Uiso   1.00
Zn170  Zn    0.46226   0.20439   0.28733   0.00000  Uiso   1.00
C171   C     0.71936   0.15939   0.25988   0.00000  Uiso   1.00
C172   C     0.84827   0.16357   0.05486   0.00000  Uiso   1.00
C173   C     0.86858   0.09703   0.06219   0.00000  Uiso   1.00
C174   C     0.94728   0.17415   0.24054   0.00000  Uiso   1.00
C175   C     0.80675   0.19108   0.42090   0.00000  Uiso   1.00
C176   C     0.99268   0.17898   0.23887   0.00000  Uiso   1.00
C177   C     0.67416   0.15604   0.26313   0.00000  Uiso   1.00
C178   C     0.84703   0.32264   0.23945   0.00000  Uiso   1.00
C179   C     0.81647   0.01208   0.26366   0.00000  Uiso   1.00
C180   C     0.82304   0.05588   0.25963   0.00000  Uiso   1.00
C181   C     0.84298   0.27781   0.24046   0.00000  Uiso   1.00
C182   C     0.78716   0.23784   0.48789   0.00000  Uiso   1.00
C183   C     0.85177   0.14781   0.12918   0.00000  Uiso   1.00
C184   C     0.81459   0.18389   0.37124   0.00000  Uiso   1.00
C185   C     0.86259   0.08280   0.01877   0.00000  Uiso   1.00
C186   C     0.85935   0.13701   0.08055   0.00000  Uiso   1.00
C187   C     0.79347   0.22903   0.44164   0.00000  Uiso   1.00
C188   C     0.88737   0.07159   0.08748   0.00000  Uiso   1.00
C189   C     0.92582   0.08725   0.09998   0.00000  Uiso   1.00
C190   C     0.94441   0.06308   0.12242   0.00000  Uiso   1.00
C191   C     0.92490   0.02309   0.13239   0.00000  Uiso   1.00
C192   C     0.88641   0.00746   0.12058   0.00000  Uiso   1.00
C193   C     0.79707   0.21048   0.01436   0.00000  Uiso   1.00
C194   C     0.86748   0.03169   0.09850   0.00000  Uiso   1.00
C195   C     0.77321   0.32814   0.28825   0.00000  Uiso   1.00
C196   C     0.76213   0.33166   0.33550   0.00000  Uiso   1.00
C197   C     0.72164   0.31469   0.35875   0.00000  Uiso   1.00
C198   C     0.69191   0.29453   0.33494   0.00000  Uiso   1.00
C199   C     0.70250   0.29161   0.28785   0.00000  Uiso   1.00
C200   C     0.74294   0.30858   0.26452   0.00000  Uiso   1.00
C201   C     0.83002   0.05012   0.43604   0.00000  Uiso   1.00
C202   C     0.87917   0.04449   0.49775   0.00000  Uiso   1.00
C203   C     0.78158   0.21820   0.06393   0.00000  Uiso   1.00
C204   C     0.81602   0.17399   0.49306   0.00000  Uiso   1.00
C205   C     0.75706   0.18621   0.08948   0.00000  Uiso   1.00
C206   C     0.74715   0.19177   0.13646   0.00000  Uiso   1.00
C207   C     0.76049   0.22962   0.15832   0.00000  Uiso   1.00
C208   C     0.78303   0.26227   0.13319   0.00000  Uiso   1.00
C209   C     0.79360   0.25666   0.08614   0.00000  Uiso   1.00
C210   C     0.81477   0.16200   0.44760   0.00000  Uiso   1.00
C211   C     0.83532   0.14850   0.01503   0.00000  Uiso   1.00
C212   C     0.84326   0.10742   0.49586   0.00000  Uiso   1.00
C213   C     0.83154   0.09304   0.45469   0.00000  Uiso   1.00
C214   C     0.81901   0.12052   0.43078   0.00000  Uiso   1.00
H215   H     0.98672   0.13246   0.28321   0.00000  Uiso   1.00
H216   H     0.93952   0.00425   0.14941   0.00000  Uiso   1.00
H217   H     0.87137   0.30985   0.12851   0.00000  Uiso   1.00
H218   H     0.83755   0.01943   0.08974   0.00000  Uiso   1.00
H219   H     0.78496   0.01385   0.35417   0.00000  Uiso   1.00
H220   H     0.71334   0.31714   0.39521   0.00000  Uiso   1.00
H221   H     0.99394   0.28135   0.35297   0.00000  Uiso   1.00
H222   H     0.67937   0.27625   0.26944   0.00000  Uiso   1.00
H223   H     0.75075   0.30650   0.22811   0.00000  Uiso   1.00
H224   H     0.74717   0.15645   0.07302   0.00000  Uiso   1.00
H225   H     0.72971   0.16642   0.15581   0.00000  Uiso   1.00
H226   H     0.87643   0.00458   0.21938   0.00000  Uiso   1.00
H227   H     0.75349   0.23362   0.19471   0.00000  Uiso   1.00
H228   H     0.79302   0.29167   0.15017   0.00000  Uiso   1.00
H229   H     0.81253   0.28162   0.06706   0.00000  Uiso   1.00
H230   H     0.84804   0.19566   0.06798   0.00000  Uiso   1.00
H231   H     0.78683   0.25166   0.42215   0.00000  Uiso   1.00
H232   H     0.77357   0.26596   0.00328   0.00000  Uiso   1.00
H233   H     0.81020   0.10827   0.39966   0.00000  Uiso   1.00
H234   H     0.68068   0.20146   0.21785   0.00000  Uiso   1.00
H235   H     0.94162   0.11796   0.09185   0.00000  Uiso   1.00
H236   H     0.97410   0.07523   0.13178   0.00000  Uiso   1.00
N237   N     0.82859   0.01582   0.42097   0.00000  Uiso   1.00
N238   N     0.89266   0.01394   0.48135   0.00000  Uiso   1.00
O239   O     0.83333   0.16667   0.25000   0.00000  Uiso   1.00
O240   O     0.82118   0.12637   0.15458   0.00000  Uiso   1.00
O241   O     0.79607   0.20391   0.34968   0.00000  Uiso   1.00
O242   O     0.87491   0.17759   0.14606   0.00000  Uiso   1.00
O243   O     0.84118   0.15880   0.34968   0.00000  Uiso   1.00
O244   O     0.84597   0.08019   0.28213   0.00000  Uiso   1.00
O245   O     0.81298   0.26085   0.27013   0.00000  Uiso   1.00
O246   O     0.74078   0.13291   0.23413   0.00000  Uiso   1.00
O247   O     0.93360   0.19272   0.21360   0.00000  Uiso   1.00
O248   O     0.73738   0.18878   0.28213   0.00000  Uiso   1.00
O249   O     0.92158   0.15226   0.27013   0.00000  Uiso   1.00
O250   O     0.80426   0.06944   0.23413   0.00000  Uiso   1.00
O251   O     0.87012   0.25620   0.21360   0.00000  Uiso   1.00
Zn252  Zn    0.86005   0.13994   0.28734   0.00000  Uiso   1.00
Zn253  Zn    0.80046   0.12458   0.21875   0.00000  Uiso   1.00
Zn254  Zn    0.87723   0.19775   0.20657   0.00000  Uiso   1.00
Zn255  Zn    0.79560   0.20439   0.28733   0.00000  Uiso   1.00
C256   C     0.05270   0.49272   0.25988   0.00000  Uiso   1.00
C257   C     0.18160   0.49690   0.05486   0.00000  Uiso   1.00
C258   C     0.20192   0.43037   0.06219   0.00000  Uiso   1.00
C259   C     0.28061   0.50748   0.24054   0.00000  Uiso   1.00
C260   C     0.14008   0.52442   0.42090   0.00000  Uiso   1.00
C261   C     0.32602   0.51232   0.23887   0.00000  Uiso   1.00
C262   C     0.00750   0.48938   0.26313   0.00000  Uiso   1.00
C263   C     0.18036   0.65597   0.23945   0.00000  Uiso   1.00
C264   C     0.14980   0.34542   0.26366   0.00000  Uiso   1.00
C265   C     0.15637   0.38921   0.25963   0.00000  Uiso   1.00
C266   C     0.17631   0.61114   0.24046   0.00000  Uiso   1.00
C267   C     0.12049   0.57117   0.48789   0.00000  Uiso   1.00
C268   C     0.18510   0.48115   0.12918   0.00000  Uiso   1.00
C269   C     0.14792   0.51722   0.37124   0.00000  Uiso   1.00
C270   C     0.19592   0.41613   0.01877   0.00000  Uiso   1.00
C271   C     0.19268   0.47034   0.08055   0.00000  Uiso   1.00
C272   C     0.12681   0.56236   0.44164   0.00000  Uiso   1.00
C273   C     0.22070   0.40492   0.08748   0.00000  Uiso   1.00
C274   C     0.25915   0.42058   0.09998   0.00000  Uiso   1.00
C275   C     0.27774   0.39641   0.12242   0.00000  Uiso   1.00
C276   C     0.25823   0.35642   0.13239   0.00000  Uiso   1.00
C277   C     0.21974   0.34079   0.12058   0.00000  Uiso   1.00
C278   C     0.13040   0.54381   0.01436   0.00000  Uiso   1.00
C279   C     0.20082   0.36502   0.09850   0.00000  Uiso   1.00
C280   C     0.10654   0.66147   0.28825   0.00000  Uiso   1.00
C281   C     0.09547   0.66499   0.33550   0.00000  Uiso   1.00
C282   C     0.05498   0.64803   0.35875   0.00000  Uiso   1.00
C283   C     0.02524   0.62786   0.33494   0.00000  Uiso   1.00
C284   C     0.03583   0.62494   0.28785   0.00000  Uiso   1.00
C285   C     0.07627   0.64191   0.26452   0.00000  Uiso   1.00
C286   C     0.16336   0.38345   0.43604   0.00000  Uiso   1.00
C287   C     0.21250   0.37782   0.49775   0.00000  Uiso   1.00
C288   C     0.11491   0.55154   0.06393   0.00000  Uiso   1.00
C289   C     0.14935   0.50732   0.49306   0.00000  Uiso   1.00
C290   C     0.09040   0.51955   0.08948   0.00000  Uiso   1.00
C291   C     0.08048   0.52510   0.13646   0.00000  Uiso   1.00
C292   C     0.09382   0.56296   0.15832   0.00000  Uiso   1.00
C293   C     0.11636   0.59560   0.13319   0.00000  Uiso   1.00
C294   C     0.12693   0.58999   0.08614   0.00000  Uiso   1.00
C295   C     0.14811   0.49533   0.44760   0.00000  Uiso   1.00
C296   C     0.16866   0.48184   0.01503   0.00000  Uiso   1.00
C297   C     0.17660   0.44075   0.49586   0.00000  Uiso   1.00
C298   C     0.16488   0.42637   0.45469   0.00000  Uiso   1.00
C299   C     0.15234   0.45385   0.43078   0.00000  Uiso   1.00
H300   H     0.32005   0.46579   0.28321   0.00000  Uiso   1.00
H301   H     0.27286   0.33759   0.14941   0.00000  Uiso   1.00
H302   H     0.20471   0.64318   0.12851   0.00000  Uiso   1.00
H303   H     0.17088   0.35276   0.08974   0.00000  Uiso   1.00
H304   H     0.11830   0.34719   0.35417   0.00000  Uiso   1.00
H305   H     0.04667   0.65047   0.39521   0.00000  Uiso   1.00
H306   H     0.32728   0.61468   0.35297   0.00000  Uiso   1.00
H307   H     0.01271   0.60958   0.26944   0.00000  Uiso   1.00
H308   H     0.08408   0.63983   0.22811   0.00000  Uiso   1.00
H309   H     0.08050   0.48979   0.07302   0.00000  Uiso   1.00
H310   H     0.06305   0.49975   0.15581   0.00000  Uiso   1.00
H311   H     0.20976   0.33791   0.21938   0.00000  Uiso   1.00
H312   H     0.08683   0.56695   0.19471   0.00000  Uiso   1.00
H313   H     0.12635   0.62500   0.15017   0.00000  Uiso   1.00
H314   H     0.14586   0.61495   0.06706   0.00000  Uiso   1.00
H315   H     0.18137   0.52900   0.06798   0.00000  Uiso   1.00
H316   H     0.12016   0.58499   0.42215   0.00000  Uiso   1.00
H317   H     0.10691   0.59930   0.00328   0.00000  Uiso   1.00
H318   H     0.14353   0.44160   0.39966   0.00000  Uiso   1.00
H319   H     0.01401   0.53480   0.21785   0.00000  Uiso   1.00
H320   H     0.27496   0.45130   0.09185   0.00000  Uiso   1.00
H321   H     0.30744   0.40857   0.13178   0.00000  Uiso   1.00
N322   N     0.16192   0.34915   0.42097   0.00000  Uiso   1.00
N323   N     0.22599   0.34727   0.48135   0.00000  Uiso   1.00
O324   O     0.16667   0.50000   0.25000   0.00000  Uiso   1.00
O325   O     0.15451   0.45970   0.15458   0.00000  Uiso   1.00
O326   O     0.12940   0.53724   0.34968   0.00000  Uiso   1.00
O327   O     0.20824   0.51092   0.14606   0.00000  Uiso   1.00
O328   O     0.17451   0.49213   0.34968   0.00000  Uiso   1.00
O329   O     0.17930   0.41352   0.28213   0.00000  Uiso   1.00
O330   O     0.14632   0.59418   0.27013   0.00000  Uiso   1.00
O331   O     0.07412   0.46625   0.23413   0.00000  Uiso   1.00
O332   O     0.26693   0.52605   0.21360   0.00000  Uiso   1.00
O333   O     0.07071   0.52211   0.28213   0.00000  Uiso   1.00
O334   O     0.25491   0.48559   0.27013   0.00000  Uiso   1.00
O335   O     0.13760   0.40277   0.23413   0.00000  Uiso   1.00
O336   O     0.20345   0.58953   0.21360   0.00000  Uiso   1.00
Zn337  Zn    0.19338   0.47327   0.28734   0.00000  Uiso   1.00
Zn338  Zn    0.13379   0.45791   0.21875   0.00000  Uiso   1.00
Zn339  Zn    0.21056   0.53109   0.20657   0.00000  Uiso   1.00
Zn340  Zn    0.12893   0.53773   0.28733   0.00000  Uiso   1.00
C341   C     0.38603   0.49272   0.25988   0.00000  Uiso   1.00
C342   C     0.51494   0.49690   0.05486   0.00000  Uiso   1.00
C343   C     0.53525   0.43037   0.06219   0.00000  Uiso   1.00
C344   C     0.61395   0.50748   0.24054   0.00000  Uiso   1.00
C345   C     0.47341   0.52442   0.42090   0.00000  Uiso   1.00
C346   C     0.65935   0.51232   0.23887   0.00000  Uiso   1.00
C347   C     0.34083   0.48938   0.26313   0.00000  Uiso   1.00
C348   C     0.51369   0.65597   0.23945   0.00000  Uiso   1.00
C349   C     0.48314   0.34542   0.26366   0.00000  Uiso   1.00
C350   C     0.48971   0.38921   0.25963   0.00000  Uiso   1.00
C351   C     0.50965   0.61114   0.24046   0.00000  Uiso   1.00
C352   C     0.45383   0.57117   0.48789   0.00000  Uiso   1.00
C353   C     0.51843   0.48115   0.12918   0.00000  Uiso   1.00
C354   C     0.48125   0.51722   0.37124   0.00000  Uiso   1.00
C355   C     0.52925   0.41613   0.01877   0.00000  Uiso   1.00
C356   C     0.52602   0.47034   0.08055   0.00000  Uiso   1.00
C357   C     0.46014   0.56236   0.44164   0.00000  Uiso   1.00
C358   C     0.55404   0.40492   0.08748   0.00000  Uiso   1.00
C359   C     0.59249   0.42058   0.09998   0.00000  Uiso   1.00
C360   C     0.61107   0.39641   0.12242   0.00000  Uiso   1.00
C361   C     0.59156   0.35642   0.13239   0.00000  Uiso   1.00
C362   C     0.55308   0.34079   0.12058   0.00000  Uiso   1.00
C363   C     0.46374   0.54381   0.01436   0.00000  Uiso   1.00
C364   C     0.53415   0.36502   0.09850   0.00000  Uiso   1.00
C365   C     0.43987   0.66147   0.28825   0.00000  Uiso   1.00
C366   C     0.42880   0.66499   0.33550   0.00000  Uiso   1.00
C367   C     0.38831   0.64803   0.35875   0.00000  Uiso   1.00
C368   C     0.35857   0.62786   0.33494   0.00000  Uiso   1.00
C369   C     0.36917   0.62494   0.28785   0.00000  Uiso   1.00
C370   C     0.40960   0.64191   0.26452   0.00000  Uiso   1.00
C371   C     0.49669   0.38345   0.43604   0.00000  Uiso   1.00
C372   C     0.54584   0.37782   0.49775   0.00000  Uiso   1.00
C373   C     0.44824   0.55154   0.06393   0.00000  Uiso   1.00
C374   C     0.48269   0.50732   0.49306   0.00000  Uiso   1.00
C375   C     0.42373   0.51955   0.08948   0.00000  Uiso   1.00
C376   C     0.41382   0.52510   0.13646   0.00000  Uiso   1.00
C377   C     0.42715   0.56296   0.15832   0.00000  Uiso   1.00
C378   C     0.44969   0.59560   0.13319   0.00000  Uiso   1.00
C379   C     0.46027   0.58999   0.08614   0.00000  Uiso   1.00
C380   C     0.48144   0.49533   0.44760   0.00000  Uiso   1.00
C381   C     0.50199   0.48184   0.01503   0.00000  Uiso   1.00
C382   C     0.50993   0.44075   0.49586   0.00000  Uiso   1.00
C383   C     0.49821   0.42637   0.45469   0.00000  Uiso   1.00
C384   C     0.48567   0.45385   0.43078   0.00000  Uiso   1.00
H385   H     0.65339   0.46579   0.28321   0.00000  Uiso   1.00
H386   H     0.60619   0.33759   0.14941   0.00000  Uiso   1.00
H387   H     0.53804   0.64318   0.12851   0.00000  Uiso   1.00
H388   H     0.50422   0.35276   0.08974   0.00000  Uiso   1.00
H389   H     0.45163   0.34719   0.35417   0.00000  Uiso   1.00
H390   H     0.38000   0.65047   0.39521   0.00000  Uiso   1.00
H391   H     0.66061   0.61468   0.35297   0.00000  Uiso   1.00
H392   H     0.34604   0.60958   0.26944   0.00000  Uiso   1.00
H393   H     0.41742   0.63983   0.22811   0.00000  Uiso   1.00
H394   H     0.41383   0.48979   0.07302   0.00000  Uiso   1.00
H395   H     0.39638   0.49975   0.15581   0.00000  Uiso   1.00
H396   H     0.54310   0.33791   0.21938   0.00000  Uiso   1.00
H397   H     0.42016   0.56695   0.19471   0.00000  Uiso   1.00
H398   H     0.45968   0.62500   0.15017   0.00000  Uiso   1.00
H399   H     0.47920   0.61495   0.06706   0.00000  Uiso   1.00
H400   H     0.51471   0.52900   0.06798   0.00000  Uiso   1.00
H401   H     0.45350   0.58499   0.42215   0.00000  Uiso   1.00
H402   H     0.44024   0.59930   0.00328   0.00000  Uiso   1.00
H403   H     0.47687   0.44160   0.39966   0.00000  Uiso   1.00
H404   H     0.34734   0.53480   0.21785   0.00000  Uiso   1.00
H405   H     0.60829   0.45130   0.09185   0.00000  Uiso   1.00
H406   H     0.64077   0.40857   0.13178   0.00000  Uiso   1.00
N407   N     0.49526   0.34915   0.42097   0.00000  Uiso   1.00
N408   N     0.55932   0.34727   0.48135   0.00000  Uiso   1.00
O409   O     0.50000   0.50000   0.25000   0.00000  Uiso   1.00
O410   O     0.48784   0.45970   0.15458   0.00000  Uiso   1.00
O411   O     0.46274   0.53724   0.34968   0.00000  Uiso   1.00
O412   O     0.54157   0.51092   0.14606   0.00000  Uiso   1.00
O413   O     0.50785   0.49213   0.34968   0.00000  Uiso   1.00
O414   O     0.51264   0.41352   0.28213   0.00000  Uiso   1.00
O415   O     0.47965   0.59418   0.27013   0.00000  Uiso   1.00
O416   O     0.40745   0.46625   0.23413   0.00000  Uiso   1.00
O417   O     0.60026   0.52605   0.21360   0.00000  Uiso   1.00
O418   O     0.40405   0.52211   0.28213   0.00000  Uiso   1.00
O419   O     0.58824   0.48559   0.27013   0.00000  Uiso   1.00
O420   O     0.47093   0.40277   0.23413   0.00000  Uiso   1.00
O421   O     0.53678   0.58953   0.21360   0.00000  Uiso   1.00
Zn422  Zn    0.52672   0.47327   0.28734   0.00000  Uiso   1.00
Zn423  Zn    0.46713   0.45791   0.21875   0.00000  Uiso   1.00
Zn424  Zn    0.54389   0.53109   0.20657   0.00000  Uiso   1.00
Zn425  Zn    0.46226   0.53773   0.28733   0.00000  Uiso   1.00
C426   C     0.71936   0.49272   0.25988   0.00000  Uiso   1.00
C427   C     0.84827   0.49690   0.05486   0.00000  Uiso   1.00
C428   C     0.86858   0.43037   0.06219   0.00000  Uiso   1.00
C429   C     0.94728   0.50748   0.24054   0.00000  Uiso   1.00
C430   C     0.80675   0.52442   0.42090   0.00000  Uiso   1.00
C431   C     0.99268   0.51232   0.23887   0.00000  Uiso   1.00
C432   C     0.67416   0.48938   0.26313   0.00000  Uiso   1.00
C433   C     0.84703   0.65597   0.23945   0.00000  Uiso   1.00
C434   C     0.81647   0.34542   0.26366   0.00000  Uiso   1.00
C435   C     0.82304   0.38921   0.25963   0.00000  Uiso   1.00
C436   C     0.84298   0.61114   0.24046   0.00000  Uiso   1.00
C437   C     0.78716   0.57117   0.48789   0.00000  Uiso   1.00
C438   C     0.85177   0.48115   0.12918   0.00000  Uiso   1.00
C439   C     0.81459   0.51722   0.37124   0.00000  Uiso   1.00
C440   C     0.86259   0.41613   0.01877   0.00000  Uiso   1.00
C441   C     0.85935   0.47034   0.08055   0.00000  Uiso   1.00
C442   C     0.79347   0.56236   0.44164   0.00000  Uiso   1.00
C443   C     0.88737   0.40492   0.08748   0.00000  Uiso   1.00
C444   C     0.92582   0.42058   0.09998   0.00000  Uiso   1.00
C445   C     0.94441   0.39641   0.12242   0.00000  Uiso   1.00
C446   C     0.92490   0.35642   0.13239   0.00000  Uiso   1.00
C447   C     0.88641   0.34079   0.12058   0.00000  Uiso   1.00
C448   C     0.79707   0.54381   0.01436   0.00000  Uiso   1.00
C449   C     0.86748   0.36502   0.09850   0.00000  Uiso   1.00
C450   C     0.77321   0.66147   0.28825   0.00000  Uiso   1.00
C451   C     0.76213   0.66499   0.33550   0.00000  Uiso   1.00
C452   C     0.72164   0.64803   0.35875   0.00000  Uiso   1.00
C453   C     0.69191   0.62786   0.33494   0.00000  Uiso   1.00
C454   C     0.70250   0.62494   0.28785   0.00000  Uiso   1.00
C455   C     0.74294   0.64191   0.26452   0.00000  Uiso   1.00
C456   C     0.83002   0.38345   0.43604   0.00000  Uiso   1.00
C457   C     0.87917   0.37782   0.49775   0.00000  Uiso   1.00
C458   C     0.78158   0.55154   0.06393   0.00000  Uiso   1.00
C459   C     0.81602   0.50732   0.49306   0.00000  Uiso   1.00
C460   C     0.75706   0.51955   0.08948   0.00000  Uiso   1.00
C461   C     0.74715   0.52510   0.13646   0.00000  Uiso   1.00
C462   C     0.76049   0.56296   0.15832   0.00000  Uiso   1.00
C463   C     0.78303   0.59560   0.13319   0.00000  Uiso   1.00
C464   C     0.79360   0.58999   0.08614   0.00000  Uiso   1.00
C465   C     0.81477   0.49533   0.44760   0.00000  Uiso   1.00
C466   C     0.83532   0.48184   0.01503   0.00000  Uiso   1.00
C467   C     0.84326   0.44075   0.49586   0.00000  Uiso   1.00
C468   C     0.83154   0.42637   0.45469   0.00000  Uiso   1.00
C469   C     0.81901   0.45385   0.43078   0.00000  Uiso   1.00
H470   H     0.98672   0.46579   0.28321   0.00000  Uiso   1.00
H471   H     0.93952   0.33759   0.14941   0.00000  Uiso   1.00
H472   H     0.87137   0.64318   0.12851   0.00000  Uiso   1.00
H473   H     0.83755   0.35276   0.08974   0.00000  Uiso   1.00
H474   H     0.78496   0.34719   0.35417   0.00000  Uiso   1.00
H475   H     0.71334   0.65047   0.39521   0.00000  Uiso   1.00
H476   H     0.99394   0.61468   0.35297   0.00000  Uiso   1.00
H477   H     0.67937   0.60958   0.26944   0.00000  Uiso   1.00
H478   H     0.75075   0.63983   0.22811   0.00000  Uiso   1.00
H479   H     0.74717   0.48979   0.07302   0.00000  Uiso   1.00
H480   H     0.72971   0.49975   0.15581   0.00000  Uiso   1.00
H481   H     0.87643   0.33791   0.21938   0.00000  Uiso   1.00
H482   H     0.75349   0.56695   0.19471   0.00000  Uiso   1.00
H483   H     0.79302   0.62500   0.15017   0.00000  Uiso   1.00
H484   H     0.81253   0.61495   0.06706   0.00000  Uiso   1.00
H485   H     0.84804   0.52900   0.06798   0.00000  Uiso   1.00
H486   H     0.78683   0.58499   0.42215   0.00000  Uiso   1.00
H487   H     0.77357   0.59930   0.00328   0.00000  Uiso   1.00
H488   H     0.81020   0.44160   0.39966   0.00000  Uiso   1.00
H489   H     0.68068   0.53480   0.21785   0.00000  Uiso   1.00
H490   H     0.94162   0.45130   0.09185   0.00000  Uiso   1.00
H491   H     0.97410   0.40857   0.13178   0.00000  Uiso   1.00
N492   N     0.82859   0.34915   0.42097   0.00000  Uiso   1.00
N493   N     0.89266   0.34727   0.48135   0.00000  Uiso   1.00
O494   O     0.83333   0.50000   0.25000   0.00000  Uiso   1.00
O495   O     0.82118   0.45970   0.15458   0.00000  Uiso   1.00
O496   O     0.79607   0.53724   0.34968   0.00000  Uiso   1.00
O497   O     0.87491   0.51092   0.14606   0.00000  Uiso   1.00
O498   O     0.84118   0.49213   0.34968   0.00000  Uiso   1.00
O499   O     0.84597   0.41352   0.28213   0.00000  Uiso   1.00
O500   O     0.81298   0.59418   0.27013   0.00000  Uiso   1.00
O501   O     0.74078   0.46625   0.23413   0.00000  Uiso   1.00
O502   O     0.93360   0.52605   0.21360   0.00000  Uiso   1.00
O503   O     0.73738   0.52211   0.28213   0.00000  Uiso   1.00
O504   O     0.92158   0.48559   0.27013   0.00000  Uiso   1.00
O505   O     0.80426   0.40277   0.23413   0.00000  Uiso   1.00
O506   O     0.87012   0.58953   0.21360   0.00000  Uiso   1.00
Zn507  Zn    0.86005   0.47327   0.28734   0.00000  Uiso   1.00
Zn508  Zn    0.80046   0.45791   0.21875   0.00000  Uiso   1.00
Zn509  Zn    0.87723   0.53109   0.20657   0.00000  Uiso   1.00
Zn510  Zn    0.79560   0.53773   0.28733   0.00000  Uiso   1.00
C511   C     0.05270   0.82606   0.25988   0.00000  Uiso   1.00
C512   C     0.18160   0.83023   0.05486   0.00000  Uiso   1.00
C513   C     0.20192   0.76370   0.06219   0.00000  Uiso   1.00
C514   C     0.28061   0.84081   0.24054   0.00000  Uiso   1.00
C515   C     0.14008   0.85775   0.42090   0.00000  Uiso   1.00
C516   C     0.32602   0.84565   0.23887   0.00000  Uiso   1.00
C517   C     0.00750   0.82271   0.26313   0.00000  Uiso   1.00
C518   C     0.18036   0.98930   0.23945   0.00000  Uiso   1.00
C519   C     0.14980   0.67875   0.26366   0.00000  Uiso   1.00
C520   C     0.15637   0.72255   0.25963   0.00000  Uiso   1.00
C521   C     0.17631   0.94447   0.24046   0.00000  Uiso   1.00
C522   C     0.12049   0.90451   0.48789   0.00000  Uiso   1.00
C523   C     0.18510   0.81448   0.12918   0.00000  Uiso   1.00
C524   C     0.14792   0.85055   0.37124   0.00000  Uiso   1.00
C525   C     0.19592   0.74947   0.01877   0.00000  Uiso   1.00
C526   C     0.19268   0.80368   0.08055   0.00000  Uiso   1.00
C527   C     0.12681   0.89569   0.44164   0.00000  Uiso   1.00
C528   C     0.22070   0.73826   0.08748   0.00000  Uiso   1.00
C529   C     0.25915   0.75391   0.09998   0.00000  Uiso   1.00
C530   C     0.27774   0.72974   0.12242   0.00000  Uiso   1.00
C531   C     0.25823   0.68975   0.13239   0.00000  Uiso   1.00
C532   C     0.21974   0.67412   0.12058   0.00000  Uiso   1.00
C533   C     0.13040   0.87714   0.01436   0.00000  Uiso   1.00
C534   C     0.20082   0.69836   0.09850   0.00000  Uiso   1.00
C535   C     0.10654   0.99480   0.28825   0.00000  Uiso   1.00
C536   C     0.09547   0.99832   0.33550   0.00000  Uiso   1.00
C537   C     0.05498   0.98136   0.35875   0.00000  Uiso   1.00
C538   C     0.02524   0.96120   0.33494   0.00000  Uiso   1.00
C539   C     0.03583   0.95828   0.28785   0.00000  Uiso   1.00
C540   C     0.07627   0.97525   0.26452   0.00000  Uiso   1.00
C541   C     0.16336   0.71678   0.43604   0.00000  Uiso   1.00
C542   C     0.21250   0.71115   0.49775   0.00000  Uiso   1.00
C543   C     0.11491   0.88487   0.06393   0.00000  Uiso   1.00
C544   C     0.14935   0.84066   0.49306   0.00000  Uiso   1.00
C545   C     0.09040   0.85288   0.08948   0.00000  Uiso   1.00
C546   C     0.08048   0.85844   0.13646   0.00000  Uiso   1.00
C547   C     0.09382   0.89629   0.15832   0.00000  Uiso   1.00
C548   C     0.11636   0.92894   0.13319   0.00000  Uiso   1.00
C549   C     0.12693   0.92333   0.08614   0.00000  Uiso   1.00
C550   C     0.14811   0.82867   0.44760   0.00000  Uiso   1.00
C551   C     0.16866   0.81517   0.01503   0.00000  Uiso   1.00
C552   C     0.17660   0.77408   0.49586   0.00000  Uiso   1.00
C553   C     0.16488   0.75970   0.45469   0.00000  Uiso   1.00
C554   C     0.15234   0.78719   0.43078   0.00000  Uiso   1.00
H555   H     0.32005   0.79912   0.28321   0.00000  Uiso   1.00
H556   H     0.27286   0.67092   0.14941   0.00000  Uiso   1.00
H557   H     0.20471   0.97652   0.12851   0.00000  Uiso   1.00
H558   H     0.17088   0.68609   0.08974   0.00000  Uiso   1.00
H559   H     0.11830   0.68052   0.35417   0.00000  Uiso   1.00
H560   H     0.04667   0.98381   0.39521   0.00000  Uiso   1.00
H561   H     0.32728   0.94802   0.35297   0.00000  Uiso   1.00
H562   H     0.01271   0.94292   0.26944   0.00000  Uiso   1.00
H563   H     0.08408   0.97317   0.22811   0.00000  Uiso   1.00
H564   H     0.08050   0.82312   0.07302   0.00000  Uiso   1.00
H565   H     0.06305   0.83309   0.15581   0.00000  Uiso   1.00
H566   H     0.20976   0.67124   0.21938   0.00000  Uiso   1.00
H567   H     0.08683   0.90028   0.19471   0.00000  Uiso   1.00
H568   H     0.12635   0.95833   0.15017   0.00000  Uiso   1.00
H569   H     0.14586   0.94828   0.06706   0.00000  Uiso   1.00
H570   H     0.18137   0.86233   0.06798   0.00000  Uiso   1.00
H571   H     0.12016   0.91833   0.42215   0.00000  Uiso   1.00
H572   H     0.10691   0.93263   0.00328   0.00000  Uiso   1.00
H573   H     0.14353   0.77493   0.39966   0.00000  Uiso   1.00
H574   H     0.01401   0.86813   0.21785   0.00000  Uiso   1.00
H575   H     0.27496   0.78463   0.09185   0.00000  Uiso   1.00
H576   H     0.30744   0.74190   0.13178   0.00000  Uiso   1.00
N577   N     0.16192   0.68249   0.42097   0.00000  Uiso   1.00
N578   N     0.22599   0.68060   0.48135   0.00000  Uiso   1.00
O579   O     0.16667   0.83333   0.25000   0.00000  Uiso   1.00
O580   O     0.15451   0.79304   0.15458   0.00000  Uiso   1.00
O581   O     0.12940   0.87058   0.34968   0.00000  Uiso   1.00
O582   O     0.20824   0.84425   0.14606   0.00000  Uiso   1.00
O583   O     0.17451   0.82546   0.34968   0.00000  Uiso   1.00
O584   O     0.17930   0.74686   0.28213   0.00000  Uiso   1.00
O585   O     0.14632   0.92751   0.27013   0.00000  Uiso   1.00
O586   O     0.07412   0.79958   0.23413   0.00000  Uiso   1.00
O587   O     0.26693   0.85939   0.21360   0.00000  Uiso   1.00
O588   O     0.07071   0.85544   0.28213   0.00000  Uiso   1.00
O589   O     0.25491   0.81892   0.27013   0.00000  Uiso   1.00
O590   O     0.13760   0.73610   0.23413   0.00000  Uiso   1.00
O591   O     0.20345   0.92286   0.21360   0.00000  Uiso   1.00
Zn592  Zn    0.19338   0.80661   0.28734   0.00000  Uiso   1.00
Zn593  Zn    0.13379   0.79124   0.21875   0.00000  Uiso   1.00
Zn594  Zn    0.21056   0.86442   0.20657   0.00000  Uiso   1.00
Zn595  Zn    0.12893   0.87106   0.28733   0.00000  Uiso   1.00
C596   C     0.38603   0.82606   0.25988   0.00000  Uiso   1.00
C597   C     0.51494   0.83023   0.05486   0.00000  Uiso   1.00
C598   C     0.53525   0.76370   0.06219   0.00000  Uiso   1.00
C599   C     0.61395   0.84081   0.24054   0.00000  Uiso   1.00
C600   C     0.47341   0.85775   0.42090   0.00000  Uiso   1.00
C601   C     0.65935   0.84565   0.23887   0.00000  Uiso   1.00
C602   C     0.34083   0.82271   0.26313   0.00000  Uiso   1.00
C603   C     0.51369   0.98930   0.23945   0.00000  Uiso   1.00
C604   C     0.48314   0.67875   0.26366   0.00000  Uiso   1.00
C605   C     0.48971   0.72255   0.25963   0.00000  Uiso   1.00
C606   C     0.50965   0.94447   0.24046   0.00000  Uiso   1.00
C607   C     0.45383   0.90451   0.48789   0.00000  Uiso   1.00
C608   C     0.51843   0.81448   0.12918   0.00000  Uiso   1.00
C609   C     0.48125   0.85055   0.37124   0.00000  Uiso   1.00
C610   C     0.52925   0.74947   0.01877   0.00000  Uiso   1.00
C611   C     0.52602   0.80368   0.08055   0.00000  Uiso   1.00
C612   C     0.46014   0.89569   0.44164   0.00000  Uiso   1.00
C613   C     0.55404   0.73826   0.08748   0.00000  Uiso   1.00
C614   C     0.59249   0.75391   0.09998   0.00000  Uiso   1.00
C615   C     0.61107   0.72974   0.12242   0.00000  Uiso   1.00
C616   C     0.59156   0.68975   0.13239   0.00000  Uiso   1.00
C617   C     0.55308   0.67412   0.12058   0.00000  Uiso   1.00
C618   C     0.46374   0.87714   0.01436   0.00000  Uiso   1.00
C619   C     0.53415   0.69836   0.09850   0.00000  Uiso   1.00
C620   C     0.43987   0.99480   0.28825   0.00000  Uiso   1.00
C621   C     0.42880   0.99832   0.33550   0.00000  Uiso   1.00
C622   C     0.38831   0.98136   0.35875   0.00000  Uiso   1.00
C623   C     0.35857   0.96120   0.33494   0.00000  Uiso   1.00
C624   C     0.36917   0.95828   0.28785   0.00000  Uiso   1.00
C625   C     0.40960   0.97525   0.26452   0.00000  Uiso   1.00
C626   C     0.49669   0.71678   0.43604   0.00000  Uiso   1.00
C627   C     0.54584   0.71115   0.49775   0.00000  Uiso   1.00
C628   C     0.44824   0.88487   0.06393   0.00000  Uiso   1.00
C629   C     0.48269   0.84066   0.49306   0.00000  Uiso   1.00
C630   C     0.42373   0.85288   0.08948   0.00000  Uiso   1.00
C631   C     0.41382   0.85844   0.13646   0.00000  Uiso   1.00
C632   C     0.42715   0.89629   0.15832   0.00000  Uiso   1.00
C633   C     0.44969   0.92894   0.13319   0.00000  Uiso   1.00
C634   C     0.46027   0.92333   0.08614   0.00000  Uiso   1.00
C635   C     0.48144   0.82867   0.44760   0.00000  Uiso   1.00
C636   C     0.50199   0.81517   0.01503   0.00000  Uiso   1.00
C637   C     0.50993   0.77408   0.49586   0.00000  Uiso   1.00
C638   C     0.49821   0.75970   0.45469   0.00000  Uiso   1.00
C639   C     0.48567   0.78719   0.43078   0.00000  Uiso   1.00
H640   H     0.65339   0.79912   0.28321   0.00000  Uiso   1.00
H641   H     0.60619   0.67092   0.14941   0.00000  Uiso   1.00
H642   H     0.53804   0.97652   0.12851   0.00000  Uiso   1.00
H643   H     0.50422   0.68609   0.08974   0.00000  Uiso   1.00
H644   H     0.45163   0.68052   0.35417   0.00000  Uiso   1.00
H645   H     0.38000   0.98381   0.39521   0.00000  Uiso   1.00
H646   H     0.66061   0.94802   0.35297   0.00000  Uiso   1.00
H647   H     0.34604   0.94292   0.26944   0.00000  Uiso   1.00
H648   H     0.41742   0.97317   0.22811   0.00000  Uiso   1.00
H649   H     0.41383   0.82312   0.07302   0.00000  Uiso   1.00
H650   H     0.39638   0.83309   0.15581   0.00000  Uiso   1.00
H651   H     0.54310   0.67124   0.21938   0.00000  Uiso   1.00
H652   H     0.42016   0.90028   0.19471   0.00000  Uiso   1.00
H653   H     0.45968   0.95833   0.15017   0.00000  Uiso   1.00
H654   H     0.47920   0.94828   0.06706   0.00000  Uiso   1.00
H655   H     0.51471   0.86233   0.06798   0.00000  Uiso   1.00
H656   H     0.45350   0.91833   0.42215   0.00000  Uiso   1.00
H657   H     0.44024   0.93263   0.00328   0.00000  Uiso   1.00
H658   H     0.47687   0.77493   0.39966   0.00000  Uiso   1.00
H659   H     0.34734   0.86813   0.21785   0.00000  Uiso   1.00
H660   H     0.60829   0.78463   0.09185   0.00000  Uiso   1.00
H661   H     0.64077   0.74190   0.13178   0.00000  Uiso   1.00
N662   N     0.49526   0.68249   0.42097   0.00000  Uiso   1.00
N663   N     0.55932   0.68060   0.48135   0.00000  Uiso   1.00
O664   O     0.50000   0.83333   0.25000   0.00000  Uiso   1.00
O665   O     0.48784   0.79304   0.15458   0.00000  Uiso   1.00
O666   O     0.46274   0.87058   0.34968   0.00000  Uiso   1.00
O667   O     0.54157   0.84425   0.14606   0.00000  Uiso   1.00
O668   O     0.50785   0.82546   0.34968   0.00000  Uiso   1.00
O669   O     0.51264   0.74686   0.28213   0.00000  Uiso   1.00
O670   O     0.47965   0.92751   0.27013   0.00000  Uiso   1.00
O671   O     0.40745   0.79958   0.23413   0.00000  Uiso   1.00
O672   O     0.60026   0.85939   0.21360   0.00000  Uiso   1.00
O673   O     0.40405   0.85544   0.28213   0.00000  Uiso   1.00
O674   O     0.58824   0.81892   0.27013   0.00000  Uiso   1.00
O675   O     0.47093   0.73610   0.23413   0.00000  Uiso   1.00
O676   O     0.53678   0.92286   0.21360   0.00000  Uiso   1.00
Zn677  Zn    0.52672   0.80661   0.28734   0.00000  Uiso   1.00
Zn678  Zn    0.46713   0.79124   0.21875   0.00000  Uiso   1.00
Zn679  Zn    0.54389   0.86442   0.20657   0.00000  Uiso   1.00
Zn680  Zn    0.46226   0.87106   0.28733   0.00000  Uiso   1.00
C681   C     0.71936   0.82606   0.25988   0.00000  Uiso   1.00
C682   C     0.84827   0.83023   0.05486   0.00000  Uiso   1.00
C683   C     0.86858   0.76370   0.06219   0.00000  Uiso   1.00
C684   C     0.94728   0.84081   0.24054   0.00000  Uiso   1.00
C685   C     0.80675   0.85775   0.42090   0.00000  Uiso   1.00
C686   C     0.99268   0.84565   0.23887   0.00000  Uiso   1.00
C687   C     0.67416   0.82271   0.26313   0.00000  Uiso   1.00
C688   C     0.84703   0.98930   0.23945   0.00000  Uiso   1.00
C689   C     0.81647   0.67875   0.26366   0.00000  Uiso   1.00
C690   C     0.82304   0.72255   0.25963   0.00000  Uiso   1.00
C691   C     0.84298   0.94447   0.24046   0.00000  Uiso   1.00
C692   C     0.78716   0.90451   0.48789   0.00000  Uiso   1.00
C693   C     0.85177   0.81448   0.12918   0.00000  Uiso   1.00
C694   C     0.81459   0.85055   0.37124   0.00000  Uiso   1.00
C695   C     0.86259   0.74947   0.01877   0.00000  Uiso   1.00
C696   C     0.85935   0.80368   0.08055   0.00000  Uiso   1.00
C697   C     0.79347   0.89569   0.44164   0.00000  Uiso   1.00
C698   C     0.88737   0.73826   0.08748   0.00000  Uiso   1.00
C699   C     0.92582   0.75391   0.09998   0.00000  Uiso   1.00
C700   C     0.94441   0.72974   0.12242   0.00000  Uiso   1.00
C701   C     0.92490   0.68975   0.13239   0.00000  Uiso   1.00
C702   C     0.88641   0.67412   0.12058   0.00000  Uiso   1.00
C703   C     0.79707   0.87714   0.01436   0.00000  Uiso   1.00
C704   C     0.86748   0.69836   0.09850   0.00000  Uiso   1.00
C705   C     0.77321   0.99480   0.28825   0.00000  Uiso   1.00
C706   C     0.76213   0.99832   0.33550   0.00000  Uiso   1.00
C707   C     0.72164   0.98136   0.35875   0.00000  Uiso   1.00
C708   C     0.69191   0.96120   0.33494   0.00000  Uiso   1.00
C709   C     0.70250   0.95828   0.28785   0.00000  Uiso   1.00
C710   C     0.74294   0.97525   0.26452   0.00000  Uiso   1.00
C711   C     0.83002   0.71678   0.43604   0.00000  Uiso   1.00
C712   C     0.87917   0.71115   0.49775   0.00000  Uiso   1.00
C713   C     0.78158   0.88487   0.06393   0.00000  Uiso   1.00
C714   C     0.81602   0.84066   0.49306   0.00000  Uiso   1.00
C715   C     0.75706   0.85288   0.08948   0.00000  Uiso   1.00
C716   C     0.74715   0.85844   0.13646   0.00000  Uiso   1.00
C717   C     0.76049   0.89629   0.15832   0.00000  Uiso   1.00
C718   C     0.78303   0.92894   0.13319   0.00000  Uiso   1.00
C719   C     0.79360   0.92333   0.08614   0.00000  Uiso   1.00
C720   C     0.81477   0.82867   0.44760   0.00000  Uiso   1.00
C721   C     0.83532   0.81517   0.01503   0.00000  Uiso   1.00
C722   C     0.84326   0.77408   0.49586   0.00000  Uiso   1.00
C723   C     0.83154   0.75970   0.45469   0.00000  Uiso   1.00
C724   C     0.81901   0.78719   0.43078   0.00000  Uiso   1.00
H725   H     0.98672   0.79912   0.28321   0.00000  Uiso   1.00
H726   H     0.93952   0.67092   0.14941   0.00000  Uiso   1.00
H727   H     0.87137   0.97652   0.12851   0.00000  Uiso   1.00
H728   H     0.83755   0.68609   0.08974   0.00000  Uiso   1.00
H729   H     0.78496   0.68052   0.35417   0.00000  Uiso   1.00
H730   H     0.71334   0.98381   0.39521   0.00000  Uiso   1.00
H731   H     0.99394   0.94802   0.35297   0.00000  Uiso   1.00
H732   H     0.67937   0.94292   0.26944   0.00000  Uiso   1.00
H733   H     0.75075   0.97317   0.22811   0.00000  Uiso   1.00
H734   H     0.74717   0.82312   0.07302   0.00000  Uiso   1.00
H735   H     0.72971   0.83309   0.15581   0.00000  Uiso   1.00
H736   H     0.87643   0.67124   0.21938   0.00000  Uiso   1.00
H737   H     0.75349   0.90028   0.19471   0.00000  Uiso   1.00
H738   H     0.79302   0.95833   0.15017   0.00000  Uiso   1.00
H739   H     0.81253   0.94828   0.06706   0.00000  Uiso   1.00
H740   H     0.84804   0.86233   0.06798   0.00000  Uiso   1.00
H741   H     0.78683   0.91833   0.42215   0.00000  Uiso   1.00
H742   H     0.77357   0.93263   0.00328   0.00000  Uiso   1.00
H743   H     0.81020   0.77493   0.39966   0.00000  Uiso   1.00
H744   H     0.68068   0.86813   0.21785   0.00000  Uiso   1.00
H745   H     0.94162   0.78463   0.09185   0.00000  Uiso   1.00
H746   H     0.97410   0.74190   0.13178   0.00000  Uiso   1.00
N747   N     0.82859   0.68249   0.42097   0.00000  Uiso   1.00
N748   N     0.89266   0.68060   0.48135   0.00000  Uiso   1.00
O749   O     0.83333   0.83333   0.25000   0.00000  Uiso   1.00
O750   O     0.82118   0.79304   0.15458   0.00000  Uiso   1.00
O751   O     0.79607   0.87058   0.34968   0.00000  Uiso   1.00
O752   O     0.87491   0.84425   0.14606   0.00000  Uiso   1.00
O753   O     0.84118   0.82546   0.34968   0.00000  Uiso   1.00
O754   O     0.84597   0.74686   0.28213   0.00000  Uiso   1.00
O755   O     0.81298   0.92751   0.27013   0.00000  Uiso   1.00
O756   O     0.74078   0.79958   0.23413   0.00000  Uiso   1.00
O757   O     0.93360   0.85939   0.21360   0.00000  Uiso   1.00
O758   O     0.73738   0.85544   0.28213   0.00000  Uiso   1.00
O759   O     0.92158   0.81892   0.27013   0.00000  Uiso   1.00
O760   O     0.80426   0.73610   0.23413   0.00000  Uiso   1.00
O761   O     0.87012   0.92286   0.21360   0.00000  Uiso   1.00
Zn762  Zn    0.86005   0.80661   0.28734   0.00000  Uiso   1.00
Zn763  Zn    0.80046   0.79124   0.21875   0.00000  Uiso   1.00
Zn764  Zn    0.87723   0.86442   0.20657   0.00000  Uiso   1.00
Zn765  Zn    0.79560   0.87106   0.28733   0.00000  Uiso   1.00
C766   C     0.05270   0.15939   0.75988   0.00000  Uiso   1.00
C767   C     0.18160   0.16357   0.55486   0.00000  Uiso   1.00
C768   C     0.20192   0.09703   0.56219   0.00000  Uiso   1.00
C769   C     0.28061   0.17415   0.74054   0.00000  Uiso   1.00
C770   C     0.14008   0.19108   0.92090   0.00000  Uiso   1.00
C771   C     0.32602   0.17898   0.73887   0.00000  Uiso   1.00
C772   C     0.00750   0.15604   0.76313   0.00000  Uiso   1.00
C773   C     0.18036   0.32264   0.73945   0.00000  Uiso   1.00
C774   C     0.14980   0.01208   0.76366   0.00000  Uiso   1.00
C775   C     0.15637   0.05588   0.75963   0.00000  Uiso   1.00
C776   C     0.17631   0.27781   0.74046   0.00000  Uiso   1.00
C777   C     0.12049   0.23784   0.98789   0.00000  Uiso   1.00
C778   C     0.18510   0.14781   0.62918   0.00000  Uiso   1.00
C779   C     0.14792   0.18389   0.87124   0.00000  Uiso   1.00
C780   C     0.19592   0.08280   0.51877   0.00000  Uiso   1.00
C781   C     0.19268   0.13701   0.58055   0.00000  Uiso   1.00
C782   C     0.12681   0.22903   0.94164   0.00000  Uiso   1.00
C783   C     0.22070   0.07159   0.58748   0.00000  Uiso   1.00
C784   C     0.25915   0.08725   0.59998   0.00000  Uiso   1.00
C785   C     0.27774   0.06308   0.62242   0.00000  Uiso   1.00
C786   C     0.25823   0.02309   0.63239   0.00000  Uiso   1.00
C787   C     0.21974   0.00746   0.62058   0.00000  Uiso   1.00
C788   C     0.13040   0.21048   0.51436   0.00000  Uiso   1.00
C789   C     0.20082   0.03169   0.59850   0.00000  Uiso   1.00
C790   C     0.10654   0.32814   0.78825   0.00000  Uiso   1.00
C791   C     0.09547   0.33166   0.83550   0.00000  Uiso   1.00
C792   C     0.05498   0.31469   0.85875   0.00000  Uiso   1.00
C793   C     0.02524   0.29453   0.83494   0.00000  Uiso   1.00
C794   C     0.03583   0.29161   0.78785   0.00000  Uiso   1.00
C795   C     0.07627   0.30858   0.76452   0.00000  Uiso   1.00
C796   C     0.16336   0.05012   0.93604   0.00000  Uiso   1.00
C797   C     0.21250   0.04449   0.99775   0.00000  Uiso   1.00
C798   C     0.11491   0.21820   0.56393   0.00000  Uiso   1.00
C799   C     0.14935   0.17399   0.99306   0.00000  Uiso   1.00
C800   C     0.09040   0.18621   0.58948   0.00000  Uiso   1.00
C801   C     0.08048   0.19177   0.63646   0.00000  Uiso   1.00
C802   C     0.09382   0.22962   0.65832   0.00000  Uiso   1.00
C803   C     0.11636   0.26227   0.63319   0.00000  Uiso   1.00
C804   C     0.12693   0.25666   0.58614   0.00000  Uiso   1.00
C805   C     0.14811   0.16200   0.94760   0.00000  Uiso   1.00
C806   C     0.16866   0.14850   0.51503   0.00000  Uiso   1.00
C807   C     0.17660   0.10742   0.99586   0.00000  Uiso   1.00
C808   C     0.16488   0.09304   0.95469   0.00000  Uiso   1.00
C809   C     0.15234   0.12052   0.93078   0.00000  Uiso   1.00
H810   H     0.32005   0.13246   0.78321   0.00000  Uiso   1.00
H811   H     0.27286   0.00425   0.64941   0.00000  Uiso   1.00
H812   H     0.20471   0.30985   0.62851   0.00000  Uiso   1.00
H813   H     0.17088   0.01943   0.58974   0.00000  Uiso   1.00
H814   H     0.11830   0.01385   0.85417   0.00000  Uiso   1.00
H815   H     0.04667   0.31714   0.89521   0.00000  Uiso   1.00
H816   H     0.32728   0.28135   0.85297   0.00000  Uiso   1.00
H817   H     0.01271   0.27625   0.76944   0.00000  Uiso   1.00
H818   H     0.08408   0.30650   0.72811   0.00000  Uiso   1.00
H819   H     0.08050   0.15645   0.57302   0.00000  Uiso   1.00
H820   H     0.06305   0.16642   0.65581   0.00000  Uiso   1.00
H821   H     0.20976   0.00458   0.71938   0.00000  Uiso   1.00
H822   H     0.08683   0.23362   0.69471   0.00000  Uiso   1.00
H823   H     0.12635   0.29167   0.65017   0.00000  Uiso   1.00
H824   H     0.14586   0.28162   0.56706   0.00000  Uiso   1.00
H825   H     0.18137   0.19566   0.56798   0.00000  Uiso   1.00
H826   H     0.12016   0.25166   0.92215   0.00000  Uiso   1.00
H827   H     0.10691   0.26596   0.50328   0.00000  Uiso   1.00
H828   H     0.14353   0.10827   0.89966   0.00000  Uiso   1.00
H829   H     0.01401   0.20146   0.71785   0.00000  Uiso   1.00
H830   H     0.27496   0.11796   0.59185   0.00000  Uiso   1.00
H831   H     0.30744   0.07523   0.63178   0.00000  Uiso   1.00
N832   N     0.16192   0.01582   0.92097   0.00000  Uiso   1.00
N833   N     0.22599   0.01394   0.98135   0.00000  Uiso   1.00
O834   O     0.16667   0.16667   0.75000   0.00000  Uiso   1.00
O835   O     0.15451   0.12637   0.65458   0.00000  Uiso   1.00
O836   O     0.12940   0.20391   0.84968   0.00000  Uiso   1.00
O837   O     0.20824   0.17759   0.64606   0.00000  Uiso   1.00
O838   O     0.17451   0.15880   0.84968   0.00000  Uiso   1.00
O839   O     0.17930   0.08019   0.78213   0.00000  Uiso   1.00
O840   O     0.14632   0.26085   0.77013   0.00000  Uiso   1.00
O841   O     0.07412   0.13291   0.73413   0.00000  Uiso   1.00
O842   O     0.26693   0.19272   0.71360   0.00000  Uiso   1.00
O843   O     0.07071   0.18878   0.78213   0.00000  Uiso   1.00
O844   O     0.25491   0.15226   0.77013   0.00000  Uiso   1.00
O845   O     0.13760   0.06944   0.73413   0.00000  Uiso   1.00
O846   O     0.20345   0.25620   0.71360   0.00000  Uiso   1.00
Zn847  Zn    0.19338   0.13994   0.78734   0.00000  Uiso   1.00
Zn848  Zn    0.13379   0.12458   0.71875   0.00000  Uiso   1.00
Zn849  Zn    0.21056   0.19775   0.70657   0.00000  Uiso   1.00
Zn850  Zn    0.12893   0.20439   0.78733   0.00000  Uiso   1.00
C851   C     0.38603   0.15939   0.75988   0.00000  Uiso   1.00
C852   C     0.51494   0.16357   0.55486   0.00000  Uiso   1.00
C853   C     0.53525   0.09703   0.56219   0.00000  Uiso   1.00
C854   C     0.61395   0.17415   0.74054   0.00000  Uiso   1.00
C855   C     0.47341   0.19108   0.92090   0.00000  Uiso   1.00
C856   C     0.65935   0.17898   0.73887   0.00000  Uiso   1.00
C857   C     0.34083   0.15604   0.76313   0.00000  Uiso   1.00
C858   C     0.51369   0.32264   0.73945   0.00000  Uiso   1.00
C859   C     0.48314   0.01208   0.76366   0.00000  Uiso   1.00
C860   C     0.48971   0.05588   0.75963   0.00000  Uiso   1.00
C861   C     0.50965   0.27781   0.74046   0.00000  Uiso   1.00
C862   C     0.45383   0.23784   0.98789   0.00000  Uiso   1.00
C863   C     0.51843   0.14781   0.62918   0.00000  Uiso   1.00
C864   C     0.48125   0.18389   0.87124   0.00000  Uiso   1.00
C865   C     0.52925   0.08280   0.51877   0.00000  Uiso   1.00
C866   C     0.52602   0.13701   0.58055   0.00000  Uiso   1.00
C867   C     0.46014   0.22903   0.94164   0.00000  Uiso   1.00
C868   C     0.55404   0.07159   0.58748   0.00000  Uiso   1.00
C869   C     0.59249   0.08725   0.59998   0.00000  Uiso   1.00
C870   C     0.61107   0.06308   0.62242   0.00000  Uiso   1.00
C871   C     0.59156   0.02309   0.63239   0.00000  Uiso   1.00
C872   C     0.55308   0.00746   0.62058   0.00000  Uiso   1.00
C873   C     0.46374   0.21048   0.51436   0.00000  Uiso   1.00
C874   C     0.53415   0.03169   0.59850   0.00000  Uiso   1.00
C875   C     0.43987   0.32814   0.78825   0.00000  Uiso   1.00
C876   C     0.42880   0.33166   0.83550   0.00000  Uiso   1.00
C877   C     0.38831   0.31469   0.85875   0.00000  Uiso   1.00
C878   C     0.35857   0.29453   0.83494   0.00000  Uiso   1.00
C879   C     0.36917   0.29161   0.78785   0.00000  Uiso   1.00
C880   C     0.40960   0.30858   0.76452   0.00000  Uiso   1.00
C881   C     0.49669   0.05012   0.93604   0.00000  Uiso   1.00
C882   C     0.54584   0.04449   0.99775   0.00000  Uiso   1.00
C883   C     0.44824   0.21820   0.56393   0.00000  Uiso   1.00
C884   C     0.48269   0.17399   0.99306   0.00000  Uiso   1.00
C885   C     0.42373   0.18621   0.58948   0.00000  Uiso   1.00
C886   C     0.41382   0.19177   0.63646   0.00000  Uiso   1.00
C887   C     0.42715   0.22962   0.65832   0.00000  Uiso   1.00
C888   C     0.44969   0.26227   0.63319   0.00000  Uiso   1.00
C889   C     0.46027   0.25666   0.58614   0.00000  Uiso   1.00
C890   C     0.48144   0.16200   0.94760   0.00000  Uiso   1.00
C891   C     0.50199   0.14850   0.51503   0.00000  Uiso   1.00
C892   C     0.50993   0.10742   0.99586   0.00000  Uiso   1.00
C893   C     0.49821   0.09304   0.95469   0.00000  Uiso   1.00
C894   C     0.48567   0.12052   0.93078   0.00000  Uiso   1.00
H895   H     0.65339   0.13246   0.78321   0.00000  Uiso   1.00
H896   H     0.60619   0.00425   0.64941   0.00000  Uiso   1.00
H897   H     0.53804   0.30985   0.62851   0.00000  Uiso   1.00
H898   H     0.50422   0.01943   0.58974   0.00000  Uiso   1.00
H899   H     0.45163   0.01385   0.85417   0.00000  Uiso   1.00
H900   H     0.38000   0.31714   0.89521   0.00000  Uiso   1.00
H901   H     0.66061   0.28135   0.85297   0.00000  Uiso   1.00
H902   H     0.34604   0.27625   0.76944   0.00000  Uiso   1.00
H903   H     0.41742   0.30650   0.72811   0.00000  Uiso   1.00
H904   H     0.41383   0.15645   0.57302   0.00000  Uiso   1.00
H905   H     0.39638   0.16642   0.65581   0.00000  Uiso   1.00
H906   H     0.54310   0.00458   0.71938   0.00000  Uiso   1.00
H907   H     0.42016   0.23362   0.69471   0.00000  Uiso   1.00
H908   H     0.45968   0.29167   0.65017   0.00000  Uiso   1.00
H909   H     0.47920   0.28162   0.56706   0.00000  Uiso   1.00
H910   H     0.51471   0.19566   0.56798   0.00000  Uiso   1.00
H911   H     0.45350   0.25166   0.92215   0.00000  Uiso   1.00
H912   H     0.44024   0.26596   0.50328   0.00000  Uiso   1.00
H913   H     0.47687   0.10827   0.89966   0.00000  Uiso   1.00
H914   H     0.34734   0.20146   0.71785   0.00000  Uiso   1.00
H915   H     0.60829   0.11796   0.59185   0.00000  Uiso   1.00
H916   H     0.64077   0.07523   0.63178   0.00000  Uiso   1.00
N917   N     0.49526   0.01582   0.92097   0.00000  Uiso   1.00
N918   N     0.55932   0.01394   0.98135   0.00000  Uiso   1.00
O919   O     0.50000   0.16667   0.75000   0.00000  Uiso   1.00
O920   O     0.48784   0.12637   0.65458   0.00000  Uiso   1.00
O921   O     0.46274   0.20391   0.84968   0.00000  Uiso   1.00
O922   O     0.54157   0.17759   0.64606   0.00000  Uiso   1.00
O923   O     0.50785   0.15880   0.84968   0.00000  Uiso   1.00
O924   O     0.51264   0.08019   0.78213   0.00000  Uiso   1.00
O925   O     0.47965   0.26085   0.77013   0.00000  Uiso   1.00
O926   O     0.40745   0.13291   0.73413   0.00000  Uiso   1.00
O927   O     0.60026   0.19272   0.71360   0.00000  Uiso   1.00
O928   O     0.40405   0.18878   0.78213   0.00000  Uiso   1.00
O929   O     0.58824   0.15226   0.77013   0.00000  Uiso   1.00
O930   O     0.47093   0.06944   0.73413   0.00000  Uiso   1.00
O931   O     0.53678   0.25620   0.71360   0.00000  Uiso   1.00
Zn932  Zn    0.52672   0.13994   0.78734   0.00000  Uiso   1.00
Zn933  Zn    0.46713   0.12458   0.71875   0.00000  Uiso   1.00
Zn934  Zn    0.54389   0.19775   0.70657   0.00000  Uiso   1.00
Zn935  Zn    0.46226   0.20439   0.78733   0.00000  Uiso   1.00
C936   C     0.71936   0.15939   0.75988   0.00000  Uiso   1.00
C937   C     0.84827   0.16357   0.55486   0.00000  Uiso   1.00
C938   C     0.86858   0.09703   0.56219   0.00000  Uiso   1.00
C939   C     0.94728   0.17415   0.74054   0.00000  Uiso   1.00
C940   C     0.80675   0.19108   0.92090   0.00000  Uiso   1.00
C941   C     0.99268   0.17898   0.73887   0.00000  Uiso   1.00
C942   C     0.67416   0.15604   0.76313   0.00000  Uiso   1.00
C943   C     0.84703   0.32264   0.73945   0.00000  Uiso   1.00
C944   C     0.81647   0.01208   0.76366   0.00000  Uiso   1.00
C945   C     0.82304   0.05588   0.75963   0.00000  Uiso   1.00
C946   C     0.84298   0.27781   0.74046   0.00000  Uiso   1.00
C947   C     0.78716   0.23784   0.98789   0.00000  Uiso   1.00
C948   C     0.85177   0.14781   0.62918   0.00000  Uiso   1.00
C949   C     0.81459   0.18389   0.87124   0.00000  Uiso   1.00
C950   C     0.86259   0.08280   0.51877   0.00000  Uiso   1.00
C951   C     0.85935   0.13701   0.58055   0.00000  Uiso   1.00
C952   C     0.79347   0.22903   0.94164   0.00000  Uiso   1.00
C953   C     0.88737   0.07159   0.58748   0.00000  Uiso   1.00
C954   C     0.92582   0.08725   0.59998   0.00000  Uiso   1.00
C955   C     0.94441   0.06308   0.62242   0.00000  Uiso   1.00
C956   C     0.92490   0.02309   0.63239   0.00000  Uiso   1.00
C957   C     0.88641   0.00746   0.62058   0.00000  Uiso   1.00
C958   C     0.79707   0.21048   0.51436   0.00000  Uiso   1.00
C959   C     0.86748   0.03169   0.59850   0.00000  Uiso   1.00
C960   C     0.77321   0.32814   0.78825   0.00000  Uiso   1.00
C961   C     0.76213   0.33166   0.83550   0.00000  Uiso   1.00
C962   C     0.72164   0.31469   0.85875   0.00000  Uiso   1.00
C963   C     0.69191   0.29453   0.83494   0.00000  Uiso   1.00
C964   C     0.70250   0.29161   0.78785   0.00000  Uiso   1.00
C965   C     0.74294   0.30858   0.76452   0.00000  Uiso   1.00
C966   C     0.83002   0.05012   0.93604   0.00000  Uiso   1.00
C967   C     0.87917   0.04449   0.99775   0.00000  Uiso   1.00
C968   C     0.78158   0.21820   0.56393   0.00000  Uiso   1.00
C969   C     0.81602   0.17399   0.99306   0.00000  Uiso   1.00
C970   C     0.75706   0.18621   0.58948   0.00000  Uiso   1.00
C971   C     0.74715   0.19177   0.63646   0.00000  Uiso   1.00
C972   C     0.76049   0.22962   0.65832   0.00000  Uiso   1.00
C973   C     0.78303   0.26227   0.63319   0.00000  Uiso   1.00
C974   C     0.79360   0.25666   0.58614   0.00000  Uiso   1.00
C975   C     0.81477   0.16200   0.94760   0.00000  Uiso   1.00
C976   C     0.83532   0.14850   0.51503   0.00000  Uiso   1.00
C977   C     0.84326   0.10742   0.99586   0.00000  Uiso   1.00
C978   C     0.83154   0.09304   0.95469   0.00000  Uiso   1.00
C979   C     0.81901   0.12052   0.93078   0.00000  Uiso   1.00
H980   H     0.98672   0.13246   0.78321   0.00000  Uiso   1.00
H981   H     0.93952   0.00425   0.64941   0.00000  Uiso   1.00
H982   H     0.87137   0.30985   0.62851   0.00000  Uiso   1.00
H983   H     0.83755   0.01943   0.58974   0.00000  Uiso   1.00
H984   H     0.78496   0.01385   0.85417   0.00000  Uiso   1.00
H985   H     0.71334   0.31714   0.89521   0.00000  Uiso   1.00
H986   H     0.99394   0.28135   0.85297   0.00000  Uiso   1.00
H987   H     0.67937   0.27625   0.76944   0.00000  Uiso   1.00
H988   H     0.75075   0.30650   0.72811   0.00000  Uiso   1.00
H989   H     0.74717   0.15645   0.57302   0.00000  Uiso   1.00
H990   H     0.72971   0.16642   0.65581   0.00000  Uiso   1.00
H991   H     0.87643   0.00458   0.71938   0.00000  Uiso   1.00
H992   H     0.75349   0.23362   0.69471   0.00000  Uiso   1.00
H993   H     0.79302   0.29167   0.65017   0.00000  Uiso   1.00
H994   H     0.81253   0.28162   0.56706   0.00000  Uiso   1.00
H995   H     0.84804   0.19566   0.56798   0.00000  Uiso   1.00
H996   H     0.78683   0.25166   0.92215   0.00000  Uiso   1.00
H997   H     0.77357   0.26596   0.50328   0.00000  Uiso   1.00
H998   H     0.81020   0.10827   0.89966   0.00000  Uiso   1.00
H999   H     0.68068   0.20146   0.71785   0.00000  Uiso   1.00
H1000  H     0.94162   0.11796   0.59185   0.00000  Uiso   1.00
H1001  H     0.97410   0.07523   0.63178   0.00000  Uiso   1.00
N1002  N     0.82859   0.01582   0.92097   0.00000  Uiso   1.00
N1003  N     0.89266   0.01394   0.98135   0.00000  Uiso   1.00
O1004  O     0.83333   0.16667   0.75000   0.00000  Uiso   1.00
O1005  O     0.82118   0.12637   0.65458   0.00000  Uiso   1.00
O1006  O     0.79607   0.20391   0.84968   0.00000  Uiso   1.00
O1007  O     0.87491   0.17759   0.64606   0.00000  Uiso   1.00
O1008  O     0.84118   0.15880   0.84968   0.00000  Uiso   1.00
O1009  O     0.84597   0.08019   0.78213   0.00000  Uiso   1.00
O1010  O     0.81298   0.26085   0.77013   0.00000  Uiso   1.00
O1011  O     0.74078   0.13291   0.73413   0.00000  Uiso   1.00
O1012  O     0.93360   0.19272   0.71360   0.00000  Uiso   1.00
O1013  O     0.73738   0.18878   0.78213   0.00000  Uiso   1.00
O1014  O     0.92158   0.15226   0.77013   0.00000  Uiso   1.00
O1015  O     0.80426   0.06944   0.73413   0.00000  Uiso   1.00
O1016  O     0.87012   0.25620   0.71360   0.00000  Uiso   1.00
Zn1017 Zn    0.86005   0.13994   0.78734   0.00000  Uiso   1.00
Zn1018 Zn    0.80046   0.12458   0.71875   0.00000  Uiso   1.00
Zn1019 Zn    0.87723   0.19775   0.70657   0.00000  Uiso   1.00
Zn1020 Zn    0.79560   0.20439   0.78733   0.00000  Uiso   1.00
C1021  C     0.05270   0.49272   0.75988   0.00000  Uiso   1.00
C1022  C     0.18160   0.49690   0.55486   0.00000  Uiso   1.00
C1023  C     0.20192   0.43037   0.56219   0.00000  Uiso   1.00
C1024  C     0.28061   0.50748   0.74054   0.00000  Uiso   1.00
C1025  C     0.14008   0.52442   0.92090   0.00000  Uiso   1.00
C1026  C     0.32602   0.51232   0.73887   0.00000  Uiso   1.00
C1027  C     0.00750   0.48938   0.76313   0.00000  Uiso   1.00
C1028  C     0.18036   0.65597   0.73945   0.00000  Uiso   1.00
C1029  C     0.14980   0.34542   0.76366   0.00000  Uiso   1.00
C1030  C     0.15637   0.38921   0.75963   0.00000  Uiso   1.00
C1031  C     0.17631   0.61114   0.74046   0.00000  Uiso   1.00
C1032  C     0.12049   0.57117   0.98789   0.00000  Uiso   1.00
C1033  C     0.18510   0.48115   0.62918   0.00000  Uiso   1.00
C1034  C     0.14792   0.51722   0.87124   0.00000  Uiso   1.00
C1035  C     0.19592   0.41613   0.51877   0.00000  Uiso   1.00
C1036  C     0.19268   0.47034   0.58055   0.00000  Uiso   1.00
C1037  C     0.12681   0.56236   0.94164   0.00000  Uiso   1.00
C1038  C     0.22070   0.40492   0.58748   0.00000  Uiso   1.00
C1039  C     0.25915   0.42058   0.59998   0.00000  Uiso   1.00
C1040  C     0.27774   0.39641   0.62242   0.00000  Uiso   1.00
C1041  C     0.25823   0.35642   0.63239   0.00000  Uiso   1.00
C1042  C     0.21974   0.34079   0.62058   0.00000  Uiso   1.00
C1043  C     0.13040   0.54381   0.51436   0.00000  Uiso   1.00
C1044  C     0.20082   0.36502   0.59850   0.00000  Uiso   1.00
C1045  C     0.10654   0.66147   0.78825   0.00000  Uiso   1.00
C1046  C     0.09547   0.66499   0.83550   0.00000  Uiso   1.00
C1047  C     0.05498   0.64803   0.85875   0.00000  Uiso   1.00
C1048  C     0.02524   0.62786   0.83494   0.00000  Uiso   1.00
C1049  C     0.03583   0.62494   0.78785   0.00000  Uiso   1.00
C1050  C     0.07627   0.64191   0.76452   0.00000  Uiso   1.00
C1051  C     0.16336   0.38345   0.93604   0.00000  Uiso   1.00
C1052  C     0.21250   0.37782   0.99775   0.00000  Uiso   1.00
C1053  C     0.11491   0.55154   0.56393   0.00000  Uiso   1.00
C1054  C     0.14935   0.50732   0.99306   0.00000  Uiso   1.00
C1055  C     0.09040   0.51955   0.58948   0.00000  Uiso   1.00
C1056  C     0.08048   0.52510   0.63646   0.00000  Uiso   1.00
C1057  C     0.09382   0.56296   0.65832   0.00000  Uiso   1.00
C1058  C     0.11636   0.59560   0.63319   0.00000  Uiso   1.00
C1059  C     0.12693   0.58999   0.58614   0.00000  Uiso   1.00
C1060  C     0.14811   0.49533   0.94760   0.00000  Uiso   1.00
C1061  C     0.16866   0.48184   0.51503   0.00000  Uiso   1.00
C1062  C     0.17660   0.44075   0.99586   0.00000  Uiso   1.00
C1063  C     0.16488   0.42637   0.95469   0.00000  Uiso   1.00
C1064  C     0.15234   0.45385   0.93078   0.00000  Uiso   1.00
H1065  H     0.32005   0.46579   0.78321   0.00000  Uiso   1.00
H1066  H     0.27286   0.33759   0.64941   0.00000  Uiso   1.00
H1067  H     0.20471   0.64318   0.62851   0.00000  Uiso   1.00
H1068  H     0.17088   0.35276   0.58974   0.00000  Uiso   1.00
H1069  H     0.11830   0.34719   0.85417   0.00000  Uiso   1.00
H1070  H     0.04667   0.65047   0.89521   0.00000  Uiso   1.00
H1071  H     0.32728   0.61468   0.85297   0.00000  Uiso   1.00
H1072  H     0.01271   0.60958   0.76944   0.00000  Uiso   1.00
H1073  H     0.08408   0.63983   0.72811   0.00000  Uiso   1.00
H1074  H     0.08050   0.48979   0.57302   0.00000  Uiso   1.00
H1075  H     0.06305   0.49975   0.65581   0.00000  Uiso   1.00
H1076  H     0.20976   0.33791   0.71938   0.00000  Uiso   1.00
H1077  H     0.08683   0.56695   0.69471   0.00000  Uiso   1.00
H1078  H     0.12635   0.62500   0.65017   0.00000  Uiso   1.00
H1079  H     0.14586   0.61495   0.56706   0.00000  Uiso   1.00
H1080  H     0.18137   0.52900   0.56798   0.00000  Uiso   1.00
H1081  H     0.12016   0.58499   0.92215   0.00000  Uiso   1.00
H1082  H     0.10691   0.59930   0.50328   0.00000  Uiso   1.00
H1083  H     0.14353   0.44160   0.89966   0.00000  Uiso   1.00
H1084  H     0.01401   0.53480   0.71785   0.00000  Uiso   1.00
H1085  H     0.27496   0.45130   0.59185   0.00000  Uiso   1.00
H1086  H     0.30744   0.40857   0.63178   0.00000  Uiso   1.00
N1087  N     0.16192   0.34915   0.92097   0.00000  Uiso   1.00
N1088  N     0.22599   0.34727   0.98135   0.00000  Uiso   1.00
O1089  O     0.16667   0.50000   0.75000   0.00000  Uiso   1.00
O1090  O     0.15451   0.45970   0.65458   0.00000  Uiso   1.00
O1091  O     0.12940   0.53724   0.84968   0.00000  Uiso   1.00
O1092  O     0.20824   0.51092   0.64606   0.00000  Uiso   1.00
O1093  O     0.17451   0.49213   0.84968   0.00000  Uiso   1.00
O1094  O     0.17930   0.41352   0.78213   0.00000  Uiso   1.00
O1095  O     0.14632   0.59418   0.77013   0.00000  Uiso   1.00
O1096  O     0.07412   0.46625   0.73413   0.00000  Uiso   1.00
O1097  O     0.26693   0.52605   0.71360   0.00000  Uiso   1.00
O1098  O     0.07071   0.52211   0.78213   0.00000  Uiso   1.00
O1099  O     0.25491   0.48559   0.77013   0.00000  Uiso   1.00
O1100  O     0.13760   0.40277   0.73413   0.00000  Uiso   1.00
O1101  O     0.20345   0.58953   0.71360   0.00000  Uiso   1.00
Zn1102 Zn    0.19338   0.47327   0.78734   0.00000  Uiso   1.00
Zn1103 Zn    0.13379   0.45791   0.71875   0.00000  Uiso   1.00
Zn1104 Zn    0.21056   0.53109   0.70657   0.00000  Uiso   1.00
Zn1105 Zn    0.12893   0.53773   0.78733   0.00000  Uiso   1.00
C1106  C     0.38603   0.49272   0.75988   0.00000  Uiso   1.00
C1107  C     0.51494   0.49690   0.55486   0.00000  Uiso   1.00
C1108  C     0.53525   0.43037   0.56219   0.00000  Uiso   1.00
C1109  C     0.61395   0.50748   0.74054   0.00000  Uiso   1.00
C1110  C     0.47341   0.52442   0.92090   0.00000  Uiso   1.00
C1111  C     0.65935   0.51232   0.73887   0.00000  Uiso   1.00
C1112  C     0.34083   0.48938   0.76313   0.00000  Uiso   1.00
C1113  C     0.51369   0.65597   0.73945   0.00000  Uiso   1.00
C1114  C     0.48314   0.34542   0.76366   0.00000  Uiso   1.00
C1115  C     0.48971   0.38921   0.75963   0.00000  Uiso   1.00
C1116  C     0.50965   0.61114   0.74046   0.00000  Uiso   1.00
C1117  C     0.45383   0.57117   0.98789   0.00000  Uiso   1.00
C1118  C     0.51843   0.48115   0.62918   0.00000  Uiso   1.00
C1119  C     0.48125   0.51722   0.87124   0.00000  Uiso   1.00
C1120  C     0.52925   0.41613   0.51877   0.00000  Uiso   1.00
C1121  C     0.52602   0.47034   0.58055   0.00000  Uiso   1.00
C1122  C     0.46014   0.56236   0.94164   0.00000  Uiso   1.00
C1123  C     0.55404   0.40492   0.58748   0.00000  Uiso   1.00
C1124  C     0.59249   0.42058   0.59998   0.00000  Uiso   1.00
C1125  C     0.61107   0.39641   0.62242   0.00000  Uiso   1.00
C1126  C     0.59156   0.35642   0.63239   0.00000  Uiso   1.00
C1127  C     0.55308   0.34079   0.62058   0.00000  Uiso   1.00
C1128  C     0.46374   0.54381   0.51436   0.00000  Uiso   1.00
C1129  C     0.53415   0.36502   0.59850   0.00000  Uiso   1.00
C1130  C     0.43987   0.66147   0.78825   0.00000  Uiso   1.00
C1131  C     0.42880   0.66499   0.83550   0.00000  Uiso   1.00
C1132  C     0.38831   0.64803   0.85875   0.00000  Uiso   1.00
C1133  C     0.35857   0.62786   0.83494   0.00000  Uiso   1.00
C1134  C     0.36917   0.62494   0.78785   0.00000  Uiso   1.00
C1135  C     0.40960   0.64191   0.76452   0.00000  Uiso   1.00
C1136  C     0.49669   0.38345   0.93604   0.00000  Uiso   1.00
C1137  C     0.54584   0.37782   0.99775   0.00000  Uiso   1.00
C1138  C     0.44824   0.55154   0.56393   0.00000  Uiso   1.00
C1139  C     0.48269   0.50732   0.99306   0.00000  Uiso   1.00
C1140  C     0.42373   0.51955   0.58948   0.00000  Uiso   1.00
C1141  C     0.41382   0.52510   0.63646   0.00000  Uiso   1.00
C1142  C     0.42715   0.56296   0.65832   0.00000  Uiso   1.00
C1143  C     0.44969   0.59560   0.63319   0.00000  Uiso   1.00
C1144  C     0.46027   0.58999   0.58614   0.00000  Uiso   1.00
C1145  C     0.48144   0.49533   0.94760   0.00000  Uiso   1.00
C1146  C     0.50199   0.48184   0.51503   0.00000  Uiso   1.00
C1147  C     0.50993   0.44075   0.99586   0.00000  Uiso   1.00
C1148  C     0.49821   0.42637   0.95469   0.00000  Uiso   1.00
C1149  C     0.48567   0.45385   0.93078   0.00000  Uiso   1.00
H1150  H     0.65339   0.46579   0.78321   0.00000  Uiso   1.00
H1151  H     0.60619   0.33759   0.64941   0.00000  Uiso   1.00
H1152  H     0.53804   0.64318   0.62851   0.00000  Uiso   1.00
H1153  H     0.50422   0.35276   0.58974   0.00000  Uiso   1.00
H1154  H     0.45163   0.34719   0.85417   0.00000  Uiso   1.00
H1155  H     0.38000   0.65047   0.89521   0.00000  Uiso   1.00
H1156  H     0.66061   0.61468   0.85297   0.00000  Uiso   1.00
H1157  H     0.34604   0.60958   0.76944   0.00000  Uiso   1.00
H1158  H     0.41742   0.63983   0.72811   0.00000  Uiso   1.00
H1159  H     0.41383   0.48979   0.57302   0.00000  Uiso   1.00
H1160  H     0.39638   0.49975   0.65581   0.00000  Uiso   1.00
H1161  H     0.54310   0.33791   0.71938   0.00000  Uiso   1.00
H1162  H     0.42016   0.56695   0.69471   0.00000  Uiso   1.00
H1163  H     0.45968   0.62500   0.65017   0.00000  Uiso   1.00
H1164  H     0.47920   0.61495   0.56706   0.00000  Uiso   1.00
H1165  H     0.51471   0.52900   0.56798   0.00000  Uiso   1.00
H1166  H     0.45350   0.58499   0.92215   0.00000  Uiso   1.00
H1167  H     0.44024   0.59930   0.50328   0.00000  Uiso   1.00
H1168  H     0.47687   0.44160   0.89966   0.00000  Uiso   1.00
H1169  H     0.34734   0.53480   0.71785   0.00000  Uiso   1.00
H1170  H     0.60829   0.45130   0.59185   0.00000  Uiso   1.00
H1171  H     0.64077   0.40857   0.63178   0.00000  Uiso   1.00
N1172  N     0.49526   0.34915   0.92097   0.00000  Uiso   1.00
N1173  N     0.55932   0.34727   0.98135   0.00000  Uiso   1.00
O1174  O     0.50000   0.50000   0.75000   0.00000  Uiso   1.00
O1175  O     0.48784   0.45970   0.65458   0.00000  Uiso   1.00
O1176  O     0.46274   0.53724   0.84968   0.00000  Uiso   1.00
O1177  O     0.54157   0.51092   0.64606   0.00000  Uiso   1.00
O1178  O     0.50785   0.49213   0.84968   0.00000  Uiso   1.00
O1179  O     0.51264   0.41352   0.78213   0.00000  Uiso   1.00
O1180  O     0.47965   0.59418   0.77013   0.00000  Uiso   1.00
O1181  O     0.40745   0.46625   0.73413   0.00000  Uiso   1.00
O1182  O     0.60026   0.52605   0.71360   0.00000  Uiso   1.00
O1183  O     0.40405   0.52211   0.78213   0.00000  Uiso   1.00
O1184  O     0.58824   0.48559   0.77013   0.00000  Uiso   1.00
O1185  O     0.47093   0.40277   0.73413   0.00000  Uiso   1.00
O1186  O     0.53678   0.58953   0.71360   0.00000  Uiso   1.00
Zn1187 Zn    0.52672   0.47327   0.78734   0.00000  Uiso   1.00
Zn1188 Zn    0.46713   0.45791   0.71875   0.00000  Uiso   1.00
Zn1189 Zn    0.54389   0.53109   0.70657   0.00000  Uiso   1.00
Zn1190 Zn    0.46226   0.53773   0.78733   0.00000  Uiso   1.00
C1191  C     0.71936   0.49272   0.75988   0.00000  Uiso   1.00
C1192  C     0.84827   0.49690   0.55486   0.00000  Uiso   1.00
C1193  C     0.86858   0.43037   0.56219   0.00000  Uiso   1.00
C1194  C     0.94728   0.50748   0.74054   0.00000  Uiso   1.00
C1195  C     0.80675   0.52442   0.92090   0.00000  Uiso   1.00
C1196  C     0.99268   0.51232   0.73887   0.00000  Uiso   1.00
C1197  C     0.67416   0.48938   0.76313   0.00000  Uiso   1.00
C1198  C     0.84703   0.65597   0.73945   0.00000  Uiso   1.00
C1199  C     0.81647   0.34542   0.76366   0.00000  Uiso   1.00
C1200  C     0.82304   0.38921   0.75963   0.00000  Uiso   1.00
C1201  C     0.84298   0.61114   0.74046   0.00000  Uiso   1.00
C1202  C     0.78716   0.57117   0.98789   0.00000  Uiso   1.00
C1203  C     0.85177   0.48115   0.62918   0.00000  Uiso   1.00
C1204  C     0.81459   0.51722   0.87124   0.00000  Uiso   1.00
C1205  C     0.86259   0.41613   0.51877   0.00000  Uiso   1.00
C1206  C     0.85935   0.47034   0.58055   0.00000  Uiso   1.00
C1207  C     0.79347   0.56236   0.94164   0.00000  Uiso   1.00
C1208  C     0.88737   0.40492   0.58748   0.00000  Uiso   1.00
C1209  C     0.92582   0.42058   0.59998   0.00000  Uiso   1.00
C1210  C     0.94441   0.39641   0.62242   0.00000  Uiso   1.00
C1211  C     0.92490   0.35642   0.63239   0.00000  Uiso   1.00
C1212  C     0.88641   0.34079   0.62058   0.00000  Uiso   1.00
C1213  C     0.79707   0.54381   0.51436   0.00000  Uiso   1.00
C1214  C     0.86748   0.36502   0.59850   0.00000  Uiso   1.00
C1215  C     0.77321   0.66147   0.78825   0.00000  Uiso   1.00
C1216  C     0.76213   0.66499   0.83550   0.00000  Uiso   1.00
C1217  C     0.72164   0.64803   0.85875   0.00000  Uiso   1.00
C1218  C     0.69191   0.62786   0.83494   0.00000  Uiso   1.00
C1219  C     0.70250   0.62494   0.78785   0.00000  Uiso   1.00
C1220  C     0.74294   0.64191   0.76452   0.00000  Uiso   1.00
C1221  C     0.83002   0.38345   0.93604   0.00000  Uiso   1.00
C1222  C     0.87917   0.37782   0.99775   0.00000  Uiso   1.00
C1223  C     0.78158   0.55154   0.56393   0.00000  Uiso   1.00
C1224  C     0.81602   0.50732   0.99306   0.00000  Uiso   1.00
C1225  C     0.75706   0.51955   0.58948   0.00000  Uiso   1.00
C1226  C     0.74715   0.52510   0.63646   0.00000  Uiso   1.00
C1227  C     0.76049   0.56296   0.65832   0.00000  Uiso   1.00
C1228  C     0.78303   0.59560   0.63319   0.00000  Uiso   1.00
C1229  C     0.79360   0.58999   0.58614   0.00000  Uiso   1.00
C1230  C     0.81477   0.49533   0.94760   0.00000  Uiso   1.00
C1231  C     0.83532   0.48184   0.51503   0.00000  Uiso   1.00
C1232  C     0.84326   0.44075   0.99586   0.00000  Uiso   1.00
C1233  C     0.83154   0.42637   0.95469   0.00000  Uiso   1.00
C1234  C     0.81901   0.45385   0.93078   0.00000  Uiso   1.00
H1235  H     0.98672   0.46579   0.78321   0.00000  Uiso   1.00
H1236  H     0.93952   0.33759   0.64941   0.00000  Uiso   1.00
H1237  H     0.87137   0.64318   0.62851   0.00000  Uiso   1.00
H1238  H     0.83755   0.35276   0.58974   0.00000  Uiso   1.00
H1239  H     0.78496   0.34719   0.85417   0.00000  Uiso   1.00
H1240  H     0.71334   0.65047   0.89521   0.00000  Uiso   1.00
H1241  H     0.99394   0.61468   0.85297   0.00000  Uiso   1.00
H1242  H     0.67937   0.60958   0.76944   0.00000  Uiso   1.00
H1243  H     0.75075   0.63983   0.72811   0.00000  Uiso   1.00
H1244  H     0.74717   0.48979   0.57302   0.00000  Uiso   1.00
H1245  H     0.72971   0.49975   0.65581   0.00000  Uiso   1.00
H1246  H     0.87643   0.33791   0.71938   0.00000  Uiso   1.00
H1247  H     0.75349   0.56695   0.69471   0.00000  Uiso   1.00
H1248  H     0.79302   0.62500   0.65017   0.00000  Uiso   1.00
H1249  H     0.81253   0.61495   0.56706   0.00000  Uiso   1.00
H1250  H     0.84804   0.52900   0.56798   0.00000  Uiso   1.00
H1251  H     0.78683   0.58499   0.92215   0.00000  Uiso   1.00
H1252  H     0.77357   0.59930   0.50328   0.00000  Uiso   1.00
H1253  H     0.81020   0.44160   0.89966   0.00000  Uiso   1.00
H1254  H     0.68068   0.53480   0.71785   0.00000  Uiso   1.00
H1255  H     0.94162   0.45130   0.59185   0.00000  Uiso   1.00
H1256  H     0.97410   0.40857   0.63178   0.00000  Uiso   1.00
N1257  N     0.82859   0.34915   0.92097   0.00000  Uiso   1.00
N1258  N     0.89266   0.34727   0.98135   0.00000  Uiso   1.00
O1259  O     0.83333   0.50000   0.75000   0.00000  Uiso   1.00
O1260  O     0.82118   0.45970   0.65458   0.00000  Uiso   1.00
O1261  O     0.79607   0.53724   0.84968   0.00000  Uiso   1.00
O1262  O     0.87491   0.51092   0.64606   0.00000  Uiso   1.00
O1263  O     0.84118   0.49213   0.84968   0.00000  Uiso   1.00
O1264  O     0.84597   0.41352   0.78213   0.00000  Uiso   1.00
O1265  O     0.81298   0.59418   0.77013   0.00000  Uiso   1.00
O1266  O     0.74078   0.46625   0.73413   0.00000  Uiso   1.00
O1267  O     0.93360   0.52605   0.71360   0.00000  Uiso   1.00
O1268  O     0.73738   0.52211   0.78213   0.00000  Uiso   1.00
O1269  O     0.92158   0.48559   0.77013   0.00000  Uiso   1.00
O1270  O     0.80426   0.40277   0.73413   0.00000  Uiso   1.00
O1271  O     0.87012   0.58953   0.71360   0.00000  Uiso   1.00
Zn1272 Zn    0.86005   0.47327   0.78734   0.00000  Uiso   1.00
Zn1273 Zn    0.80046   0.45791   0.71875   0.00000  Uiso   1.00
Zn1274 Zn    0.87723   0.53109   0.70657   0.00000  Uiso   1.00
Zn1275 Zn    0.79560   0.53773   0.78733   0.00000  Uiso   1.00
C1276  C     0.05270   0.82606   0.75988   0.00000  Uiso   1.00
C1277  C     0.18160   0.83023   0.55486   0.00000  Uiso   1.00
C1278  C     0.20192   0.76370   0.56219   0.00000  Uiso   1.00
C1279  C     0.28061   0.84081   0.74054   0.00000  Uiso   1.00
C1280  C     0.14008   0.85775   0.92090   0.00000  Uiso   1.00
C1281  C     0.32602   0.84565   0.73887   0.00000  Uiso   1.00
C1282  C     0.00750   0.82271   0.76313   0.00000  Uiso   1.00
C1283  C     0.18036   0.98930   0.73945   0.00000  Uiso   1.00
C1284  C     0.14980   0.67875   0.76366   0.00000  Uiso   1.00
C1285  C     0.15637   0.72255   0.75963   0.00000  Uiso   1.00
C1286  C     0.17631   0.94447   0.74046   0.00000  Uiso   1.00
C1287  C     0.12049   0.90451   0.98789   0.00000  Uiso   1.00
C1288  C     0.18510   0.81448   0.62918   0.00000  Uiso   1.00
C1289  C     0.14792   0.85055   0.87124   0.00000  Uiso   1.00
C1290  C     0.19592   0.74947   0.51877   0.00000  Uiso   1.00
C1291  C     0.19268   0.80368   0.58055   0.00000  Uiso   1.00
C1292  C     0.12681   0.89569   0.94164   0.00000  Uiso   1.00
C1293  C     0.22070   0.73826   0.58748   0.00000  Uiso   1.00
C1294  C     0.25915   0.75391   0.59998   0.00000  Uiso   1.00
C1295  C     0.27774   0.72974   0.62242   0.00000  Uiso   1.00
C1296  C     0.25823   0.68975   0.63239   0.00000  Uiso   1.00
C1297  C     0.21974   0.67412   0.62058   0.00000  Uiso   1.00
C1298  C     0.13040   0.87714   0.51436   0.00000  Uiso   1.00
C1299  C     0.20082   0.69836   0.59850   0.00000  Uiso   1.00
C1300  C     0.10654   0.99480   0.78825   0.00000  Uiso   1.00
C1301  C     0.09547   0.99832   0.83550   0.00000  Uiso   1.00
C1302  C     0.05498   0.98136   0.85875   0.00000  Uiso   1.00
C1303  C     0.02524   0.96120   0.83494   0.00000  Uiso   1.00
C1304  C     0.03583   0.95828   0.78785   0.00000  Uiso   1.00
C1305  C     0.07627   0.97525   0.76452   0.00000  Uiso   1.00
C1306  C     0.16336   0.71678   0.93604   0.00000  Uiso   1.00
C1307  C     0.21250   0.71115   0.99775   0.00000  Uiso   1.00
C1308  C     0.11491   0.88487   0.56393   0.00000  Uiso   1.00
C1309  C     0.14935   0.84066   0.99306   0.00000  Uiso   1.00
C1310  C     0.09040   0.85288   0.58948   0.00000  Uiso   1.00
C1311  C     0.08048   0.85844   0.63646   0.00000  Uiso   1.00
C1312  C     0.09382   0.89629   0.65832   0.00000  Uiso   1.00
C1313  C     0.11636   0.92894   0.63319   0.00000  Uiso   1.00
C1314  C     0.12693   0.92333   0.58614   0.00000  Uiso   1.00
C1315  C     0.14811   0.82867   0.94760   0.00000  Uiso   1.00
C1316  C     0.16866   0.81517   0.51503   0.00000  Uiso   1.00
C1317  C     0.17660   0.77408   0.99586   0.00000  Uiso   1.00
C1318  C     0.16488   0.75970   0.95469   0.00000  Uiso   1.00
C1319  C     0.15234   0.78719   0.93078   0.00000  Uiso   1.00
H1320  H     0.32005   0.79912   0.78321   0.00000  Uiso   1.00
H1321  H     0.27286   0.67092   0.64941   0.00000  Uiso   1.00
H1322  H     0.20471   0.97652   0.62851   0.00000  Uiso   1.00
H1323  H     0.17088   0.68609   0.58974   0.00000  Uiso   1.00
H1324  H     0.11830   0.68052   0.85417   0.00000  Uiso   1.00
H1325  H     0.04667   0.98381   0.89521   0.00000  Uiso   1.00
H1326  H     0.32728   0.94802   0.85297   0.00000  Uiso   1.00
H1327  H     0.01271   0.94292   0.76944   0.00000  Uiso   1.00
H1328  H     0.08408   0.97317   0.72811   0.00000  Uiso   1.00
H1329  H     0.08050   0.82312   0.57302   0.00000  Uiso   1.00
H1330  H     0.06305   0.83309   0.65581   0.00000  Uiso   1.00
H1331  H     0.20976   0.67124   0.71938   0.00000  Uiso   1.00
H1332  H     0.08683   0.90028   0.69471   0.00000  Uiso   1.00
H1333  H     0.12635   0.95833   0.65017   0.00000  Uiso   1.00
H1334  H     0.14586   0.94828   0.56706   0.00000  Uiso   1.00
H1335  H     0.18137   0.86233   0.56798   0.00000  Uiso   1.00
H1336  H     0.12016   0.91833   0.92215   0.00000  Uiso   1.00
H1337  H     0.10691   0.93263   0.50328   0.00000  Uiso   1.00
H1338  H     0.14353   0.77493   0.89966   0.00000  Uiso   1.00
H1339  H     0.01401   0.86813   0.71785   0.00000  Uiso   1.00
H1340  H     0.27496   0.78463   0.59185   0.00000  Uiso   1.00
H1341  H     0.30744   0.74190   0.63178   0.00000  Uiso   1.00
N1342  N     0.16192   0.68249   0.92097   0.00000  Uiso   1.00
N1343  N     0.22599   0.68060   0.98135   0.00000  Uiso   1.00
O1344  O     0.16667   0.83333   0.75000   0.00000  Uiso   1.00
O1345  O     0.15451   0.79304   0.65458   0.00000  Uiso   1.00
O1346  O     0.12940   0.87058   0.84968   0.00000  Uiso   1.00
O1347  O     0.20824   0.84425   0.64606   0.00000  Uiso   1.00
O1348  O     0.17451   0.82546   0.84968   0.00000  Uiso   1.00
O1349  O     0.17930   0.74686   0.78213   0.00000  Uiso   1.00
O1350  O     0.14632   0.92751   0.77013   0.00000  Uiso   1.00
O1351  O     0.07412   0.79958   0.73413   0.00000  Uiso   1.00
O1352  O     0.26693   0.85939   0.71360   0.00000  Uiso   1.00
O1353  O     0.07071   0.85544   0.78213   0.00000  Uiso   1.00
O1354  O     0.25491   0.81892   0.77013   0.00000  Uiso   1.00
O1355  O     0.13760   0.73610   0.73413   0.00000  Uiso   1.00
O1356  O     0.20345   0.92286   0.71360   0.00000  Uiso   1.00
Zn1357 Zn    0.19338   0.80661   0.78734   0.00000  Uiso   1.00
Zn1358 Zn    0.13379   0.79124   0.71875   0.00000  Uiso   1.00
Zn1359 Zn    0.21056   0.86442   0.70657   0.00000  Uiso   1.00
Zn1360 Zn    0.12893   0.87106   0.78733   0.00000  Uiso   1.00
C1361  C     0.38603   0.82606   0.75988   0.00000  Uiso   1.00
C1362  C     0.51494   0.83023   0.55486   0.00000  Uiso   1.00
C1363  C     0.53525   0.76370   0.56219   0.00000  Uiso   1.00
C1364  C     0.61395   0.84081   0.74054   0.00000  Uiso   1.00
C1365  C     0.47341   0.85775   0.92090   0.00000  Uiso   1.00
C1366  C     0.65935   0.84565   0.73887   0.00000  Uiso   1.00
C1367  C     0.34083   0.82271   0.76313   0.00000  Uiso   1.00
C1368  C     0.51369   0.98930   0.73945   0.00000  Uiso   1.00
C1369  C     0.48314   0.67875   0.76366   0.00000  Uiso   1.00
C1370  C     0.48971   0.72255   0.75963   0.00000  Uiso   1.00
C1371  C     0.50965   0.94447   0.74046   0.00000  Uiso   1.00
C1372  C     0.45383   0.90451   0.98789   0.00000  Uiso   1.00
C1373  C     0.51843   0.81448   0.62918   0.00000  Uiso   1.00
C1374  C     0.48125   0.85055   0.87124   0.00000  Uiso   1.00
C1375  C     0.52925   0.74947   0.51877   0.00000  Uiso   1.00
C1376  C     0.52602   0.80368   0.58055   0.00000  Uiso   1.00
C1377  C     0.46014   0.89569   0.94164   0.00000  Uiso   1.00
C1378  C     0.55404   0.73826   0.58748   0.00000  Uiso   1.00
C1379  C     0.59249   0.75391   0.59998   0.00000  Uiso   1.00
C1380  C     0.61107   0.72974   0.62242   0.00000  Uiso   1.00
C1381  C     0.59156   0.68975   0.63239   0.00000  Uiso   1.00
C1382  C     0.55308   0.67412   0.62058   0.00000  Uiso   1.00
C1383  C     0.46374   0.87714   0.51436   0.00000  Uiso   1.00
C1384  C     0.53415   0.69836   0.59850   0.00000  Uiso   1.00
C1385  C     0.43987   0.99480   0.78825   0.00000  Uiso   1.00
C1386  C     0.42880   0.99832   0.83550   0.00000  Uiso   1.00
C1387  C     0.38831   0.98136   0.85875   0.00000  Uiso   1.00
C1388  C     0.35857   0.96120   0.83494   0.00000  Uiso   1.00
C1389  C     0.36917   0.95828   0.78785   0.00000  Uiso   1.00
C1390  C     0.40960   0.97525   0.76452   0.00000  Uiso   1.00
C1391  C     0.49669   0.71678   0.93604   0.00000  Uiso   1.00
C1392  C     0.54584   0.71115   0.99775   0.00000  Uiso   1.00
C1393  C     0.44824   0.88487   0.56393   0.00000  Uiso   1.00
C1394  C     0.48269   0.84066   0.99306   0.00000  Uiso   1.00
C1395  C     0.42373   0.85288   0.58948   0.00000  Uiso   1.00
C1396  C     0.41382   0.85844   0.63646   0.00000  Uiso   1.00
C1397  C     0.42715   0.89629   0.65832   0.00000  Uiso   1.00
C1398  C     0.44969   0.92894   0.63319   0.00000  Uiso   1.00
C1399  C     0.46027   0.92333   0.58614   0.00000  Uiso   1.00
C1400  C     0.48144   0.82867   0.94760   0.00000  Uiso   1.00
C1401  C     0.50199   0.81517   0.51503   0.00000  Uiso   1.00
C1402  C     0.50993   0.77408   0.99586   0.00000  Uiso   1.00
C1403  C     0.49821   0.75970   0.95469   0.00000  Uiso   1.00
C1404  C     0.48567   0.78719   0.93078   0.00000  Uiso   1.00
H1405  H     0.65339   0.79912   0.78321   0.00000  Uiso   1.00
H1406  H     0.60619   0.67092   0.64941   0.00000  Uiso   1.00
H1407  H     0.53804   0.97652   0.62851   0.00000  Uiso   1.00
H1408  H     0.50422   0.68609   0.58974   0.00000  Uiso   1.00
H1409  H     0.45163   0.68052   0.85417   0.00000  Uiso   1.00
H1410  H     0.38000   0.98381   0.89521   0.00000  Uiso   1.00
H1411  H     0.66061   0.94802   0.85297   0.00000  Uiso   1.00
H1412  H     0.34604   0.94292   0.76944   0.00000  Uiso   1.00
H1413  H     0.41742   0.97317   0.72811   0.00000  Uiso   1.00
H1414  H     0.41383   0.82312   0.57302   0.00000  Uiso   1.00
H1415  H     0.39638   0.83309   0.65581   0.00000  Uiso   1.00
H1416  H     0.54310   0.67124   0.71938   0.00000  Uiso   1.00
H1417  H     0.42016   0.90028   0.69471   0.00000  Uiso   1.00
H1418  H     0.45968   0.95833   0.65017   0.00000  Uiso   1.00
H1419  H     0.47920   0.94828   0.56706   0.00000  Uiso   1.00
H1420  H     0.51471   0.86233   0.56798   0.00000  Uiso   1.00
H1421  H     0.45350   0.91833   0.92215   0.00000  Uiso   1.00
H1422  H     0.44024   0.93263   0.50328   0.00000  Uiso   1.00
H1423  H     0.47687   0.77493   0.89966   0.00000  Uiso   1.00
H1424  H     0.34734   0.86813   0.71785   0.00000  Uiso   1.00
H1425  H     0.60829   0.78463   0.59185   0.00000  Uiso   1.00
H1426  H     0.64077   0.74190   0.63178   0.00000  Uiso   1.00
N1427  N     0.49526   0.68249   0.92097   0.00000  Uiso   1.00
N1428  N     0.55932   0.68060   0.98135   0.00000  Uiso   1.00
O1429  O     0.50000   0.83333   0.75000   0.00000  Uiso   1.00
O1430  O     0.48784   0.79304   0.65458   0.00000  Uiso   1.00
O1431  O     0.46274   0.87058   0.84968   0.00000  Uiso   1.00
O1432  O     0.54157   0.84425   0.64606   0.00000  Uiso   1.00
O1433  O     0.50785   0.82546   0.84968   0.00000  Uiso   1.00
O1434  O     0.51264   0.74686   0.78213   0.00000  Uiso   1.00
O1435  O     0.47965   0.92751   0.77013   0.00000  Uiso   1.00
O1436  O     0.40745   0.79958   0.73413   0.00000  Uiso   1.00
O1437  O     0.60026   0.85939   0.71360   0.00000  Uiso   1.00
O1438  O     0.40405   0.85544   0.78213   0.00000  Uiso   1.00
O1439  O     0.58824   0.81892   0.77013   0.00000  Uiso   1.00
O1440  O     0.47093   0.73610   0.73413   0.00000  Uiso   1.00
O1441  O     0.53678   0.92286   0.71360   0.00000  Uiso   1.00
Zn1442 Zn    0.52672   0.80661   0.78734   0.00000  Uiso   1.00
Zn1443 Zn    0.46713   0.79124   0.71875   0.00000  Uiso   1.00
Zn1444 Zn    0.54389   0.86442   0.70657   0.00000  Uiso   1.00
Zn1445 Zn    0.46226   0.87106   0.78733   0.00000  Uiso   1.00
C1446  C     0.71936   0.82606   0.75988   0.00000  Uiso   1.00
C1447  C     0.84827   0.83023   0.55486   0.00000  Uiso   1.00
C1448  C     0.86858   0.76370   0.56219   0.00000  Uiso   1.00
C1449  C     0.94728   0.84081   0.74054   0.00000  Uiso   1.00
C1450  C     0.80675   0.85775   0.92090   0.00000  Uiso   1.00
C1451  C     0.99268   0.84565   0.73887   0.00000  Uiso   1.00
C1452  C     0.67416   0.82271   0.76313   0.00000  Uiso   1.00
C1453  C     0.84703   0.98930   0.73945   0.00000  Uiso   1.00
C1454  C     0.81647   0.67875   0.76366   0.00000  Uiso   1.00
C1455  C     0.82304   0.72255   0.75963   0.00000  Uiso   1.00
C1456  C     0.84298   0.94447   0.74046   0.00000  Uiso   1.00
C1457  C     0.78716   0.90451   0.98789   0.00000  Uiso   1.00
C1458  C     0.85177   0.81448   0.62918   0.00000  Uiso   1.00
C1459  C     0.81459   0.85055   0.87124   0.00000  Uiso   1.00
C1460  C     0.86259   0.74947   0.51877   0.00000  Uiso   1.00
C1461  C     0.85935   0.80368   0.58055   0.00000  Uiso   1.00
C1462  C     0.79347   0.89569   0.94164   0.00000  Uiso   1.00
C1463  C     0.88737   0.73826   0.58748   0.00000  Uiso   1.00
C1464  C     0.92582   0.75391   0.59998   0.00000  Uiso   1.00
C1465  C     0.94441   0.72974   0.62242   0.00000  Uiso   1.00
C1466  C     0.92490   0.68975   0.63239   0.00000  Uiso   1.00
C1467  C     0.88641   0.67412   0.62058   0.00000  Uiso   1.00
C1468  C     0.79707   0.87714   0.51436   0.00000  Uiso   1.00
C1469  C     0.86748   0.69836   0.59850   0.00000  Uiso   1.00
C1470  C     0.77321   0.99480   0.78825   0.00000  Uiso   1.00
C1471  C     0.76213   0.99832   0.83550   0.00000  Uiso   1.00
C1472  C     0.72164   0.98136   0.85875   0.00000  Uiso   1.00
C1473  C     0.69191   0.96120   0.83494   0.00000  Uiso   1.00
C1474  C     0.70250   0.95828   0.78785   0.00000  Uiso   1.00
C1475  C     0.74294   0.97525   0.76452   0.00000  Uiso   1.00
C1476  C     0.83002   0.71678   0.93604   0.00000  Uiso   1.00
C1477  C     0.87917   0.71115   0.99775   0.00000  Uiso   1.00
C1478  C     0.78158   0.88487   0.56393   0.00000  Uiso   1.00
C1479  C     0.81602   0.84066   0.99306   0.00000  Uiso   1.00
C1480  C     0.75706   0.85288   0.58948   0.00000  Uiso   1.00
C1481  C     0.74715   0.85844   0.63646   0.00000  Uiso   1.00
C1482  C     0.76049   0.89629   0.65832   0.00000  Uiso   1.00
C1483  C     0.78303   0.92894   0.63319   0.00000  Uiso   1.00
C1484  C     0.79360   0.92333   0.58614   0.00000  Uiso   1.00
C1485  C     0.81477   0.82867   0.94760   0.00000  Uiso   1.00
C1486  C     0.83532   0.81517   0.51503   0.00000  Uiso   1.00
C1487  C     0.84326   0.77408   0.99586   0.00000  Uiso   1.00
C1488  C     0.83154   0.75970   0.95469   0.00000  Uiso   1.00
C1489  C     0.81901   0.78719   0.93078   0.00000  Uiso   1.00
H1490  H     0.98672   0.79912   0.78321   0.00000  Uiso   1.00
H1491  H     0.93952   0.67092   0.64941   0.00000  Uiso   1.00
H1492  H     0.87137   0.97652   0.62851   0.00000  Uiso   1.00
H1493  H     0.83755   0.68609   0.58974   0.00000  Uiso   1.00
H1494  H     0.78496   0.68052   0.85417   0.00000  Uiso   1.00
H1495  H     0.71334   0.98381   0.89521   0.00000  Uiso   1.00
H1496  H     0.99394   0.94802   0.85297   0.00000  Uiso   1.00
H1497  H     0.67937   0.94292   0.76944   0.00000  Uiso   1.00
H1498  H     0.75075   0.97317   0.72811   0.00000  Uiso   1.00
H1499  H     0.74717   0.82312   0.57302   0.00000  Uiso   1.00
H1500  H     0.72971   0.83309   0.65581   0.00000  Uiso   1.00
H1501  H     0.87643   0.67124   0.71938   0.00000  Uiso   1.00
H1502  H     0.75349   0.90028   0.69471   0.00000  Uiso   1.00
H1503  H     0.79302   0.95833   0.65017   0.00000  Uiso   1.00
H1504  H     0.81253   0.94828   0.56706   0.00000  Uiso   1.00
H1505  H     0.84804   0.86233   0.56798   0.00000  Uiso   1.00
H1506  H     0.78683   0.91833   0.92215   0.00000  Uiso   1.00
H1507  H     0.77357   0.93263   0.50328   0.00000  Uiso   1.00
H1508  H     0.81020   0.77493   0.89966   0.00000  Uiso   1.00
H1509  H     0.68068   0.86813   0.71785   0.00000  Uiso   1.00
H1510  H     0.94162   0.78463   0.59185   0.00000  Uiso   1.00
H1511  H     0.97410   0.74190   0.63178   0.00000  Uiso   1.00
N1512  N     0.82859   0.68249   0.92097   0.00000  Uiso   1.00
N1513  N     0.89266   0.68060   0.98135   0.00000  Uiso   1.00
O1514  O     0.83333   0.83333   0.75000   0.00000  Uiso   1.00
O1515  O     0.82118   0.79304   0.65458   0.00000  Uiso   1.00
O1516  O     0.79607   0.87058   0.84968   0.00000  Uiso   1.00
O1517  O     0.87491   0.84425   0.64606   0.00000  Uiso   1.00
O1518  O     0.84118   0.82546   0.84968   0.00000  Uiso   1.00
O1519  O     0.84597   0.74686   0.78213   0.00000  Uiso   1.00
O1520  O     0.81298   0.92751   0.77013   0.00000  Uiso   1.00
O1521  O     0.74078   0.79958   0.73413   0.00000  Uiso   1.00
O1522  O     0.93360   0.85939   0.71360   0.00000  Uiso   1.00
O1523  O     0.73738   0.85544   0.78213   0.00000  Uiso   1.00
O1524  O     0.92158   0.81892   0.77013   0.00000  Uiso   1.00
O1525  O     0.80426   0.73610   0.73413   0.00000  Uiso   1.00
O1526  O     0.87012   0.92286   0.71360   0.00000  Uiso   1.00
Zn1527 Zn    0.86005   0.80661   0.78734   0.00000  Uiso   1.00
Zn1528 Zn    0.80046   0.79124   0.71875   0.00000  Uiso   1.00
Zn1529 Zn    0.87723   0.86442   0.70657   0.00000  Uiso   1.00
Zn1530 Zn    0.79560   0.87106   0.78733   0.00000  Uiso   1.00
loop_
_geom_bond_atom_site_label_1
_geom_bond_atom_site_label_2
_geom_bond_distance
_geom_bond_site_symmetry_2
_ccdc_geom_bond_type
C1     O78     1.268   .     A
C1     C7      1.437   .     S
C1     O76     1.264   .     A
C2     H60     1.077   .     S
C2     C41     1.406   .     A
C2     C16     1.383   .     A
C3     C18     1.490   .     S
C3     C15     1.413   .     A
C3     C16     1.403   .     A
C4     O79     1.278   .     A
C4     C6      1.450   .     S
C4     O77     1.282   .     A
C5     C17     1.400   .     A
C5     C14     1.481   .     S
C5     C40     1.420   .     A
C6     C92     1.333   .     S
C6     H149    1.084   .     S
C7     C176    1.333   1_455 S
C7     H215    1.086   1_455 S
C8     C11     1.453   .     S
C8     C264    1.346   .     S
C8     H311    1.086   .     S
C9     C10     1.429   .     S
C9     C518    1.346   1_545 S
C9     C535    1.483   1_545 S
C10    O80     1.262   .     A
C10    O74     1.271   .     A
C11    O81     1.280   .     A
C11    O75     1.267   .     A
C12    C17     1.387   .     A
C12    C788    1.401   .     S
C12    H827    1.084   .     S
C13    O70     1.274   .     A
C13    C16     1.463   .     S
C13    O72     1.279   .     A
C14    O71     1.287   .     A
C14    O73     1.286   .     A
C15    C797    1.451   1_554 S
C15    C807    1.432   1_554 S
C17    H61     1.083   .     S
C18    C24     1.405   .     A
C18    C19     1.406   .     A
C19    C20     1.398   .     A
C19    H65     1.083   .     S
C20    H66     1.082   .     S
C20    C21     1.397   .     A
C21    C22     1.398   .     A
C21    H46     1.082   .     S
C22    C24     1.399   .     A
C22    H557    1.082   1_545 S
C23    C33     1.485   .     S
C23    C777    1.401   1_554 S
C23    C799    1.434   1_554 S
C24    H48     1.082   .     S
C25    C26     1.403   .     A
C25    C30     1.404   .     A
C25    C264    1.483   .     S
C26    C27     1.399   .     A
C26    H304    1.082   .     S
C27    H50     1.082   .     S
C27    C28     1.399   .     A
C28    C29     1.398   .     A
C28    H221    1.082   1_455 S
C29    C30     1.398   .     A
C29    H52     1.082   .     S
C30    H53     1.081   .     S
C31    N67     1.158   .     T
C31    C43     1.447   .     S
C32    N68     1.158   .     T
C32    C780    1.451   .     S
C33    C39     1.406   .     A
C33    C35     1.406   .     A
C34    C40     1.416   .     A
C34    C788    1.434   .     S
C34    C806    1.433   .     S
C35    C36     1.396   .     A
C35    H54     1.083   .     S
C36    C37     1.398   .     A
C36    H55     1.081   .     S
C37    C38     1.397   .     A
C37    H57     1.081   .     S
C38    C39     1.398   .     A
C38    H58     1.082   .     S
C39    H59     1.082   .     S
C40    C44     1.404   .     A
C41    C799    1.433   1_554 S
C41    C807    1.432   1_554 S
C42    C43     1.421   .     A
C42    C806    1.432   .     S
C42    C780    1.432   .     S
C43    C44     1.391   .     A
C44    H63     1.082   .     S
H45    C92     1.086   .     S
H47    C277    1.082   .     S
H49    C536    1.082   1_545 S
H51    C113    1.082   .     S
H56    C518    1.086   1_545 S
H62    C777    1.084   1_554 S
H64    C176    1.084   1_455 S
O69    Zn82    1.953   .     S
O69    Zn83    1.927   .     S
O69    Zn85    1.936   .     S
O69    Zn84    1.946   .     S
O70    Zn83    1.925   .     S
O71    Zn85    1.926   .     S
O72    Zn84    1.916   .     S
O73    Zn82    1.917   .     S
O74    Zn82    1.932   .     S
O75    Zn85    1.941   .     S
O76    Zn83    1.932   .     S
O77    Zn84    1.934   .     S
O78    Zn85    1.928   .     S
O79    Zn82    1.930   .     S
O80    Zn83    1.945   .     S
O81    Zn84    1.936   .     S
C86    O163    1.268   .     A
C86    C92     1.437   .     S
C86    O161    1.264   .     A
C87    H145    1.077   .     S
C87    C126    1.406   .     A
C87    C101    1.383   .     A
C88    C103    1.490   .     S
C88    C100    1.413   .     A
C88    C101    1.403   .     A
C89    O164    1.278   .     A
C89    C91     1.450   .     S
C89    O162    1.282   .     A
C90    C102    1.400   .     A
C90    C99     1.481   .     S
C90    C125    1.420   .     A
C91    C177    1.333   .     S
C91    H234    1.084   .     S
C93    C96     1.453   .     S
C93    C349    1.346   .     S
C93    H396    1.086   .     S
C94    C95     1.429   .     S
C94    C603    1.346   1_545 S
C94    C620    1.483   1_545 S
C95    O165    1.262   .     A
C95    O159    1.271   .     A
C96    O166    1.280   .     A
C96    O160    1.267   .     A
C97    C102    1.387   .     A
C97    C873    1.401   .     S
C97    H912    1.084   .     S
C98    O155    1.274   .     A
C98    C101    1.463   .     S
C98    O157    1.279   .     A
C99    O156    1.287   .     A
C99    O158    1.286   .     A
C100   C882    1.451   1_554 S
C100   C892    1.432   1_554 S
C102   H146    1.083   .     S
C103   C109    1.405   .     A
C103   C104    1.406   .     A
C104   C105    1.398   .     A
C104   H150    1.083   .     S
C105   H151    1.082   .     S
C105   C106    1.397   .     A
C106   C107    1.398   .     A
C106   H131    1.082   .     S
C107   C109    1.399   .     A
C107   H642    1.082   1_545 S
C108   C118    1.485   .     S
C108   C862    1.401   1_554 S
C108   C884    1.434   1_554 S
C109   H133    1.082   .     S
C110   C111    1.403   .     A
C110   C115    1.404   .     A
C110   C349    1.483   .     S
C111   C112    1.399   .     A
C111   H389    1.082   .     S
C112   H135    1.082   .     S
C112   C113    1.399   .     A
C113   C114    1.398   .     A
C114   C115    1.398   .     A
C114   H137    1.082   .     S
C115   H138    1.081   .     S
C116   N152    1.158   .     T
C116   C128    1.447   .     S
C117   N153    1.158   .     T
C117   C865    1.451   .     S
C118   C124    1.406   .     A
C118   C120    1.406   .     A
C119   C125    1.416   .     A
C119   C873    1.434   .     S
C119   C891    1.433   .     S
C120   C121    1.396   .     A
C120   H139    1.083   .     S
C121   C122    1.398   .     A
C121   H140    1.081   .     S
C122   C123    1.397   .     A
C122   H142    1.081   .     S
C123   C124    1.398   .     A
C123   H143    1.082   .     S
C124   H144    1.082   .     S
C125   C129    1.404   .     A
C126   C884    1.433   1_554 S
C126   C892    1.432   1_554 S
C127   C128    1.421   .     A
C127   C891    1.432   .     S
C127   C865    1.432   .     S
C128   C129    1.391   .     A
C129   H148    1.082   .     S
H130   C177    1.086   .     S
H132   C362    1.082   .     S
H134   C621    1.082   1_545 S
H136   C198    1.082   .     S
H141   C603    1.086   1_545 S
H147   C862    1.084   1_554 S
O154   Zn167   1.953   .     S
O154   Zn168   1.927   .     S
O154   Zn170   1.936   .     S
O154   Zn169   1.946   .     S
O155   Zn168   1.925   .     S
O156   Zn170   1.926   .     S
O157   Zn169   1.916   .     S
O158   Zn167   1.917   .     S
O159   Zn167   1.932   .     S
O160   Zn170   1.941   .     S
O161   Zn168   1.932   .     S
O162   Zn169   1.934   .     S
O163   Zn170   1.928   .     S
O164   Zn167   1.930   .     S
O165   Zn168   1.945   .     S
O166   Zn169   1.936   .     S
C171   O248    1.268   .     A
C171   C177    1.437   .     S
C171   O246    1.264   .     A
C172   H230    1.077   .     S
C172   C211    1.406   .     A
C172   C186    1.383   .     A
C173   C188    1.490   .     S
C173   C185    1.413   .     A
C173   C186    1.403   .     A
C174   O249    1.278   .     A
C174   C176    1.450   .     S
C174   O247    1.282   .     A
C175   C187    1.400   .     A
C175   C184    1.481   .     S
C175   C210    1.420   .     A
C176   C7      1.333   1_655 S
C176   H64     1.084   1_655 S
C178   C181    1.453   .     S
C178   C434    1.346   .     S
C178   H481    1.086   .     S
C179   C180    1.429   .     S
C179   C688    1.346   1_545 S
C179   C705    1.483   1_545 S
C180   O250    1.262   .     A
C180   O244    1.271   .     A
C181   O251    1.280   .     A
C181   O245    1.267   .     A
C182   C187    1.387   .     A
C182   C958    1.401   .     S
C182   H997    1.084   .     S
C183   O240    1.274   .     A
C183   C186    1.463   .     S
C183   O242    1.279   .     A
C184   O241    1.287   .     A
C184   O243    1.286   .     A
C185   C967    1.451   1_554 S
C185   C977    1.432   1_554 S
C187   H231    1.083   .     S
C188   C194    1.405   .     A
C188   C189    1.406   .     A
C189   C190    1.398   .     A
C189   H235    1.083   .     S
C190   H236    1.082   .     S
C190   C191    1.397   .     A
C191   C192    1.398   .     A
C191   H216    1.082   .     S
C192   C194    1.399   .     A
C192   H727    1.082   1_545 S
C193   C203    1.485   .     S
C193   C947    1.401   1_554 S
C193   C969    1.434   1_554 S
C194   H218    1.082   .     S
C195   C196    1.403   .     A
C195   C200    1.404   .     A
C195   C434    1.483   .     S
C196   C197    1.399   .     A
C196   H474    1.082   .     S
C197   H220    1.082   .     S
C197   C198    1.399   .     A
C198   C199    1.398   .     A
C199   C200    1.398   .     A
C199   H222    1.082   .     S
C200   H223    1.081   .     S
C201   N237    1.158   .     T
C201   C213    1.447   .     S
C202   N238    1.158   .     T
C202   C950    1.451   .     S
C203   C209    1.406   .     A
C203   C205    1.406   .     A
C204   C210    1.416   .     A
C204   C958    1.434   .     S
C204   C976    1.433   .     S
C205   C206    1.396   .     A
C205   H224    1.083   .     S
C206   C207    1.398   .     A
C206   H225    1.081   .     S
C207   C208    1.397   .     A
C207   H227    1.081   .     S
C208   C209    1.398   .     A
C208   H228    1.082   .     S
C209   H229    1.082   .     S
C210   C214    1.404   .     A
C211   C969    1.433   1_554 S
C211   C977    1.432   1_554 S
C212   C213    1.421   .     A
C212   C976    1.432   .     S
C212   C950    1.432   .     S
C213   C214    1.391   .     A
C214   H233    1.082   .     S
H215   C7      1.086   1_655 S
H217   C447    1.082   .     S
H219   C706    1.082   1_545 S
H221   C28     1.082   1_655 S
H226   C688    1.086   1_545 S
H232   C947    1.084   1_554 S
O239   Zn252   1.953   .     S
O239   Zn253   1.927   .     S
O239   Zn255   1.936   .     S
O239   Zn254   1.946   .     S
O240   Zn253   1.925   .     S
O241   Zn255   1.926   .     S
O242   Zn254   1.916   .     S
O243   Zn252   1.917   .     S
O244   Zn252   1.932   .     S
O245   Zn255   1.941   .     S
O246   Zn253   1.932   .     S
O247   Zn254   1.934   .     S
O248   Zn255   1.928   .     S
O249   Zn252   1.930   .     S
O250   Zn253   1.945   .     S
O251   Zn254   1.936   .     S
C256   O333    1.268   .     A
C256   C262    1.437   .     S
C256   O331    1.264   .     A
C257   H315    1.077   .     S
C257   C296    1.406   .     A
C257   C271    1.383   .     A
C258   C273    1.490   .     S
C258   C270    1.413   .     A
C258   C271    1.403   .     A
C259   O334    1.278   .     A
C259   C261    1.450   .     S
C259   O332    1.282   .     A
C260   C272    1.400   .     A
C260   C269    1.481   .     S
C260   C295    1.420   .     A
C261   C347    1.333   .     S
C261   H404    1.084   .     S
C262   C431    1.333   1_455 S
C262   H470    1.086   1_455 S
C263   C266    1.453   .     S
C263   C519    1.346   .     S
C263   H566    1.086   .     S
C264   C265    1.429   .     S
C265   O335    1.262   .     A
C265   O329    1.271   .     A
C266   O336    1.280   .     A
C266   O330    1.267   .     A
C267   C272    1.387   .     A
C267   C1043   1.401   .     S
C267   H1082   1.084   .     S
C268   O325    1.274   .     A
C268   C271    1.463   .     S
C268   O327    1.279   .     A
C269   O326    1.287   .     A
C269   O328    1.286   .     A
C270   C1052   1.451   1_554 S
C270   C1062   1.432   1_554 S
C272   H316    1.083   .     S
C273   C279    1.405   .     A
C273   C274    1.406   .     A
C274   C275    1.398   .     A
C274   H320    1.083   .     S
C275   H321    1.082   .     S
C275   C276    1.397   .     A
C276   C277    1.398   .     A
C276   H301    1.082   .     S
C277   C279    1.399   .     A
C278   C288    1.485   .     S
C278   C1032   1.401   1_554 S
C278   C1054   1.434   1_554 S
C279   H303    1.082   .     S
C280   C281    1.403   .     A
C280   C285    1.404   .     A
C280   C519    1.483   .     S
C281   C282    1.399   .     A
C281   H559    1.082   .     S
C282   H305    1.082   .     S
C282   C283    1.399   .     A
C283   C284    1.398   .     A
C283   H476    1.082   1_455 S
C284   C285    1.398   .     A
C284   H307    1.082   .     S
C285   H308    1.081   .     S
C286   N322    1.158   .     T
C286   C298    1.447   .     S
C287   N323    1.158   .     T
C287   C1035   1.451   .     S
C288   C294    1.406   .     A
C288   C290    1.406   .     A
C289   C295    1.416   .     A
C289   C1043   1.434   .     S
C289   C1061   1.433   .     S
C290   C291    1.396   .     A
C290   H309    1.083   .     S
C291   C292    1.398   .     A
C291   H310    1.081   .     S
C292   C293    1.397   .     A
C292   H312    1.081   .     S
C293   C294    1.398   .     A
C293   H313    1.082   .     S
C294   H314    1.082   .     S
C295   C299    1.404   .     A
C296   C1054   1.433   1_554 S
C296   C1062   1.432   1_554 S
C297   C298    1.421   .     A
C297   C1061   1.432   .     S
C297   C1035   1.432   .     S
C298   C299    1.391   .     A
C299   H318    1.082   .     S
H300   C347    1.086   .     S
H302   C532    1.082   .     S
H306   C368    1.082   .     S
H317   C1032   1.084   1_554 S
H319   C431    1.084   1_455 S
O324   Zn337   1.953   .     S
O324   Zn338   1.927   .     S
O324   Zn340   1.936   .     S
O324   Zn339   1.946   .     S
O325   Zn338   1.925   .     S
O326   Zn340   1.926   .     S
O327   Zn339   1.916   .     S
O328   Zn337   1.917   .     S
O329   Zn337   1.932   .     S
O330   Zn340   1.941   .     S
O331   Zn338   1.932   .     S
O332   Zn339   1.934   .     S
O333   Zn340   1.928   .     S
O334   Zn337   1.930   .     S
O335   Zn338   1.945   .     S
O336   Zn339   1.936   .     S
C341   O418    1.268   .     A
C341   C347    1.437   .     S
C341   O416    1.264   .     A
C342   H400    1.077   .     S
C342   C381    1.406   .     A
C342   C356    1.383   .     A
C343   C358    1.490   .     S
C343   C355    1.413   .     A
C343   C356    1.403   .     A
C344   O419    1.278   .     A
C344   C346    1.450   .     S
C344   O417    1.282   .     A
C345   C357    1.400   .     A
C345   C354    1.481   .     S
C345   C380    1.420   .     A
C346   C432    1.333   .     S
C346   H489    1.084   .     S
C348   C351    1.453   .     S
C348   C604    1.346   .     S
C348   H651    1.086   .     S
C349   C350    1.429   .     S
C350   O420    1.262   .     A
C350   O414    1.271   .     A
C351   O421    1.280   .     A
C351   O415    1.267   .     A
C352   C357    1.387   .     A
C352   C1128   1.401   .     S
C352   H1167   1.084   .     S
C353   O410    1.274   .     A
C353   C356    1.463   .     S
C353   O412    1.279   .     A
C354   O411    1.287   .     A
C354   O413    1.286   .     A
C355   C1137   1.451   1_554 S
C355   C1147   1.432   1_554 S
C357   H401    1.083   .     S
C358   C364    1.405   .     A
C358   C359    1.406   .     A
C359   C360    1.398   .     A
C359   H405    1.083   .     S
C360   H406    1.082   .     S
C360   C361    1.397   .     A
C361   C362    1.398   .     A
C361   H386    1.082   .     S
C362   C364    1.399   .     A
C363   C373    1.485   .     S
C363   C1117   1.401   1_554 S
C363   C1139   1.434   1_554 S
C364   H388    1.082   .     S
C365   C366    1.403   .     A
C365   C370    1.404   .     A
C365   C604    1.483   .     S
C366   C367    1.399   .     A
C366   H644    1.082   .     S
C367   H390    1.082   .     S
C367   C368    1.399   .     A
C368   C369    1.398   .     A
C369   C370    1.398   .     A
C369   H392    1.082   .     S
C370   H393    1.081   .     S
C371   N407    1.158   .     T
C371   C383    1.447   .     S
C372   N408    1.158   .     T
C372   C1120   1.451   .     S
C373   C379    1.406   .     A
C373   C375    1.406   .     A
C374   C380    1.416   .     A
C374   C1128   1.434   .     S
C374   C1146   1.433   .     S
C375   C376    1.396   .     A
C375   H394    1.083   .     S
C376   C377    1.398   .     A
C376   H395    1.081   .     S
C377   C378    1.397   .     A
C377   H397    1.081   .     S
C378   C379    1.398   .     A
C378   H398    1.082   .     S
C379   H399    1.082   .     S
C380   C384    1.404   .     A
C381   C1139   1.433   1_554 S
C381   C1147   1.432   1_554 S
C382   C383    1.421   .     A
C382   C1146   1.432   .     S
C382   C1120   1.432   .     S
C383   C384    1.391   .     A
C384   H403    1.082   .     S
H385   C432    1.086   .     S
H387   C617    1.082   .     S
H391   C453    1.082   .     S
H402   C1117   1.084   1_554 S
O409   Zn422   1.953   .     S
O409   Zn423   1.927   .     S
O409   Zn425   1.936   .     S
O409   Zn424   1.946   .     S
O410   Zn423   1.925   .     S
O411   Zn425   1.926   .     S
O412   Zn424   1.916   .     S
O413   Zn422   1.917   .     S
O414   Zn422   1.932   .     S
O415   Zn425   1.941   .     S
O416   Zn423   1.932   .     S
O417   Zn424   1.934   .     S
O418   Zn425   1.928   .     S
O419   Zn422   1.930   .     S
O420   Zn423   1.945   .     S
O421   Zn424   1.936   .     S
C426   O503    1.268   .     A
C426   C432    1.437   .     S
C426   O501    1.264   .     A
C427   H485    1.077   .     S
C427   C466    1.406   .     A
C427   C441    1.383   .     A
C428   C443    1.490   .     S
C428   C440    1.413   .     A
C428   C441    1.403   .     A
C429   O504    1.278   .     A
C429   C431    1.450   .     S
C429   O502    1.282   .     A
C430   C442    1.400   .     A
C430   C439    1.481   .     S
C430   C465    1.420   .     A
C431   C262    1.333   1_655 S
C431   H319    1.084   1_655 S
C433   C436    1.453   .     S
C433   C689    1.346   .     S
C433   H736    1.086   .     S
C434   C435    1.429   .     S
C435   O505    1.262   .     A
C435   O499    1.271   .     A
C436   O506    1.280   .     A
C436   O500    1.267   .     A
C437   C442    1.387   .     A
C437   C1213   1.401   .     S
C437   H1252   1.084   .     S
C438   O495    1.274   .     A
C438   C441    1.463   .     S
C438   O497    1.279   .     A
C439   O496    1.287   .     A
C439   O498    1.286   .     A
C440   C1222   1.451   1_554 S
C440   C1232   1.432   1_554 S
C442   H486    1.083   .     S
C443   C449    1.405   .     A
C443   C444    1.406   .     A
C444   C445    1.398   .     A
C444   H490    1.083   .     S
C445   H491    1.082   .     S
C445   C446    1.397   .     A
C446   C447    1.398   .     A
C446   H471    1.082   .     S
C447   C449    1.399   .     A
C448   C458    1.485   .     S
C448   C1202   1.401   1_554 S
C448   C1224   1.434   1_554 S
C449   H473    1.082   .     S
C450   C451    1.403   .     A
C450   C455    1.404   .     A
C450   C689    1.483   .     S
C451   C452    1.399   .     A
C451   H729    1.082   .     S
C452   H475    1.082   .     S
C452   C453    1.399   .     A
C453   C454    1.398   .     A
C454   C455    1.398   .     A
C454   H477    1.082   .     S
C455   H478    1.081   .     S
C456   N492    1.158   .     T
C456   C468    1.447   .     S
C457   N493    1.158   .     T
C457   C1205   1.451   .     S
C458   C464    1.406   .     A
C458   C460    1.406   .     A
C459   C465    1.416   .     A
C459   C1213   1.434   .     S
C459   C1231   1.433   .     S
C460   C461    1.396   .     A
C460   H479    1.083   .     S
C461   C462    1.398   .     A
C461   H480    1.081   .     S
C462   C463    1.397   .     A
C462   H482    1.081   .     S
C463   C464    1.398   .     A
C463   H483    1.082   .     S
C464   H484    1.082   .     S
C465   C469    1.404   .     A
C466   C1224   1.433   1_554 S
C466   C1232   1.432   1_554 S
C467   C468    1.421   .     A
C467   C1231   1.432   .     S
C467   C1205   1.432   .     S
C468   C469    1.391   .     A
C469   H488    1.082   .     S
H470   C262    1.086   1_655 S
H472   C702    1.082   .     S
H476   C283    1.082   1_655 S
H487   C1202   1.084   1_554 S
O494   Zn507   1.953   .     S
O494   Zn508   1.927   .     S
O494   Zn510   1.936   .     S
O494   Zn509   1.946   .     S
O495   Zn508   1.925   .     S
O496   Zn510   1.926   .     S
O497   Zn509   1.916   .     S
O498   Zn507   1.917   .     S
O499   Zn507   1.932   .     S
O500   Zn510   1.941   .     S
O501   Zn508   1.932   .     S
O502   Zn509   1.934   .     S
O503   Zn510   1.928   .     S
O504   Zn507   1.930   .     S
O505   Zn508   1.945   .     S
O506   Zn509   1.936   .     S
C511   O588    1.268   .     A
C511   C517    1.437   .     S
C511   O586    1.264   .     A
C512   H570    1.077   .     S
C512   C551    1.406   .     A
C512   C526    1.383   .     A
C513   C528    1.490   .     S
C513   C525    1.413   .     A
C513   C526    1.403   .     A
C514   O589    1.278   .     A
C514   C516    1.450   .     S
C514   O587    1.282   .     A
C515   C527    1.400   .     A
C515   C524    1.481   .     S
C515   C550    1.420   .     A
C516   C602    1.333   .     S
C516   H659    1.084   .     S
C517   C686    1.333   1_455 S
C517   H725    1.086   1_455 S
C518   C521    1.453   .     S
C518   C9      1.346   1_565 S
C518   H56     1.086   1_565 S
C519   C520    1.429   .     S
C520   O590    1.262   .     A
C520   O584    1.271   .     A
C521   O591    1.280   .     A
C521   O585    1.267   .     A
C522   C527    1.387   .     A
C522   C1298   1.401   .     S
C522   H1337   1.084   .     S
C523   O580    1.274   .     A
C523   C526    1.463   .     S
C523   O582    1.279   .     A
C524   O581    1.287   .     A
C524   O583    1.286   .     A
C525   C1307   1.451   1_554 S
C525   C1317   1.432   1_554 S
C527   H571    1.083   .     S
C528   C534    1.405   .     A
C528   C529    1.406   .     A
C529   C530    1.398   .     A
C529   H575    1.083   .     S
C530   H576    1.082   .     S
C530   C531    1.397   .     A
C531   C532    1.398   .     A
C531   H556    1.082   .     S
C532   C534    1.399   .     A
C533   C543    1.485   .     S
C533   C1287   1.401   1_554 S
C533   C1309   1.434   1_554 S
C534   H558    1.082   .     S
C535   C536    1.403   .     A
C535   C540    1.404   .     A
C535   C9      1.483   1_565 S
C536   C537    1.399   .     A
C536   H49     1.082   1_565 S
C537   H560    1.082   .     S
C537   C538    1.399   .     A
C538   C539    1.398   .     A
C538   H731    1.082   1_455 S
C539   C540    1.398   .     A
C539   H562    1.082   .     S
C540   H563    1.081   .     S
C541   N577    1.158   .     T
C541   C553    1.447   .     S
C542   N578    1.158   .     T
C542   C1290   1.451   .     S
C543   C549    1.406   .     A
C543   C545    1.406   .     A
C544   C550    1.416   .     A
C544   C1298   1.434   .     S
C544   C1316   1.433   .     S
C545   C546    1.396   .     A
C545   H564    1.083   .     S
C546   C547    1.398   .     A
C546   H565    1.081   .     S
C547   C548    1.397   .     A
C547   H567    1.081   .     S
C548   C549    1.398   .     A
C548   H568    1.082   .     S
C549   H569    1.082   .     S
C550   C554    1.404   .     A
C551   C1309   1.433   1_554 S
C551   C1317   1.432   1_554 S
C552   C553    1.421   .     A
C552   C1316   1.432   .     S
C552   C1290   1.432   .     S
C553   C554    1.391   .     A
C554   H573    1.082   .     S
H555   C602    1.086   .     S
H557   C22     1.082   1_565 S
H561   C623    1.082   .     S
H572   C1287   1.084   1_554 S
H574   C686    1.084   1_455 S
O579   Zn592   1.953   .     S
O579   Zn593   1.927   .     S
O579   Zn595   1.936   .     S
O579   Zn594   1.946   .     S
O580   Zn593   1.925   .     S
O581   Zn595   1.926   .     S
O582   Zn594   1.916   .     S
O583   Zn592   1.917   .     S
O584   Zn592   1.932   .     S
O585   Zn595   1.941   .     S
O586   Zn593   1.932   .     S
O587   Zn594   1.934   .     S
O588   Zn595   1.928   .     S
O589   Zn592   1.930   .     S
O590   Zn593   1.945   .     S
O591   Zn594   1.936   .     S
C596   O673    1.268   .     A
C596   C602    1.437   .     S
C596   O671    1.264   .     A
C597   H655    1.077   .     S
C597   C636    1.406   .     A
C597   C611    1.383   .     A
C598   C613    1.490   .     S
C598   C610    1.413   .     A
C598   C611    1.403   .     A
C599   O674    1.278   .     A
C599   C601    1.450   .     S
C599   O672    1.282   .     A
C600   C612    1.400   .     A
C600   C609    1.481   .     S
C600   C635    1.420   .     A
C601   C687    1.333   .     S
C601   H744    1.084   .     S
C603   C606    1.453   .     S
C603   C94     1.346   1_565 S
C603   H141    1.086   1_565 S
C604   C605    1.429   .     S
C605   O675    1.262   .     A
C605   O669    1.271   .     A
C606   O676    1.280   .     A
C606   O670    1.267   .     A
C607   C612    1.387   .     A
C607   C1383   1.401   .     S
C607   H1422   1.084   .     S
C608   O665    1.274   .     A
C608   C611    1.463   .     S
C608   O667    1.279   .     A
C609   O666    1.287   .     A
C609   O668    1.286   .     A
C610   C1392   1.451   1_554 S
C610   C1402   1.432   1_554 S
C612   H656    1.083   .     S
C613   C619    1.405   .     A
C613   C614    1.406   .     A
C614   C615    1.398   .     A
C614   H660    1.083   .     S
C615   H661    1.082   .     S
C615   C616    1.397   .     A
C616   C617    1.398   .     A
C616   H641    1.082   .     S
C617   C619    1.399   .     A
C618   C628    1.485   .     S
C618   C1372   1.401   1_554 S
C618   C1394   1.434   1_554 S
C619   H643    1.082   .     S
C620   C621    1.403   .     A
C620   C625    1.404   .     A
C620   C94     1.483   1_565 S
C621   C622    1.399   .     A
C621   H134    1.082   1_565 S
C622   H645    1.082   .     S
C622   C623    1.399   .     A
C623   C624    1.398   .     A
C624   C625    1.398   .     A
C624   H647    1.082   .     S
C625   H648    1.081   .     S
C626   N662    1.158   .     T
C626   C638    1.447   .     S
C627   N663    1.158   .     T
C627   C1375   1.451   .     S
C628   C634    1.406   .     A
C628   C630    1.406   .     A
C629   C635    1.416   .     A
C629   C1383   1.434   .     S
C629   C1401   1.433   .     S
C630   C631    1.396   .     A
C630   H649    1.083   .     S
C631   C632    1.398   .     A
C631   H650    1.081   .     S
C632   C633    1.397   .     A
C632   H652    1.081   .     S
C633   C634    1.398   .     A
C633   H653    1.082   .     S
C634   H654    1.082   .     S
C635   C639    1.404   .     A
C636   C1394   1.433   1_554 S
C636   C1402   1.432   1_554 S
C637   C638    1.421   .     A
C637   C1401   1.432   .     S
C637   C1375   1.432   .     S
C638   C639    1.391   .     A
C639   H658    1.082   .     S
H640   C687    1.086   .     S
H642   C107    1.082   1_565 S
H646   C708    1.082   .     S
H657   C1372   1.084   1_554 S
O664   Zn677   1.953   .     S
O664   Zn678   1.927   .     S
O664   Zn680   1.936   .     S
O664   Zn679   1.946   .     S
O665   Zn678   1.925   .     S
O666   Zn680   1.926   .     S
O667   Zn679   1.916   .     S
O668   Zn677   1.917   .     S
O669   Zn677   1.932   .     S
O670   Zn680   1.941   .     S
O671   Zn678   1.932   .     S
O672   Zn679   1.934   .     S
O673   Zn680   1.928   .     S
O674   Zn677   1.930   .     S
O675   Zn678   1.945   .     S
O676   Zn679   1.936   .     S
C681   O758    1.268   .     A
C681   C687    1.437   .     S
C681   O756    1.264   .     A
C682   H740    1.077   .     S
C682   C721    1.406   .     A
C682   C696    1.383   .     A
C683   C698    1.490   .     S
C683   C695    1.413   .     A
C683   C696    1.403   .     A
C684   O759    1.278   .     A
C684   C686    1.450   .     S
C684   O757    1.282   .     A
C685   C697    1.400   .     A
C685   C694    1.481   .     S
C685   C720    1.420   .     A
C686   C517    1.333   1_655 S
C686   H574    1.084   1_655 S
C688   C691    1.453   .     S
C688   C179    1.346   1_565 S
C688   H226    1.086   1_565 S
C689   C690    1.429   .     S
C690   O760    1.262   .     A
C690   O754    1.271   .     A
C691   O761    1.280   .     A
C691   O755    1.267   .     A
C692   C697    1.387   .     A
C692   C1468   1.401   .     S
C692   H1507   1.084   .     S
C693   O750    1.274   .     A
C693   C696    1.463   .     S
C693   O752    1.279   .     A
C694   O751    1.287   .     A
C694   O753    1.286   .     A
C695   C1477   1.451   1_554 S
C695   C1487   1.432   1_554 S
C697   H741    1.083   .     S
C698   C704    1.405   .     A
C698   C699    1.406   .     A
C699   C700    1.398   .     A
C699   H745    1.083   .     S
C700   H746    1.082   .     S
C700   C701    1.397   .     A
C701   C702    1.398   .     A
C701   H726    1.082   .     S
C702   C704    1.399   .     A
C703   C713    1.485   .     S
C703   C1457   1.401   1_554 S
C703   C1479   1.434   1_554 S
C704   H728    1.082   .     S
C705   C706    1.403   .     A
C705   C710    1.404   .     A
C705   C179    1.483   1_565 S
C706   C707    1.399   .     A
C706   H219    1.082   1_565 S
C707   H730    1.082   .     S
C707   C708    1.399   .     A
C708   C709    1.398   .     A
C709   C710    1.398   .     A
C709   H732    1.082   .     S
C710   H733    1.081   .     S
C711   N747    1.158   .     T
C711   C723    1.447   .     S
C712   N748    1.158   .     T
C712   C1460   1.451   .     S
C713   C719    1.406   .     A
C713   C715    1.406   .     A
C714   C720    1.416   .     A
C714   C1468   1.434   .     S
C714   C1486   1.433   .     S
C715   C716    1.396   .     A
C715   H734    1.083   .     S
C716   C717    1.398   .     A
C716   H735    1.081   .     S
C717   C718    1.397   .     A
C717   H737    1.081   .     S
C718   C719    1.398   .     A
C718   H738    1.082   .     S
C719   H739    1.082   .     S
C720   C724    1.404   .     A
C721   C1479   1.433   1_554 S
C721   C1487   1.432   1_554 S
C722   C723    1.421   .     A
C722   C1486   1.432   .     S
C722   C1460   1.432   .     S
C723   C724    1.391   .     A
C724   H743    1.082   .     S
H725   C517    1.086   1_655 S
H727   C192    1.082   1_565 S
H731   C538    1.082   1_655 S
H742   C1457   1.084   1_554 S
O749   Zn762   1.953   .     S
O749   Zn763   1.927   .     S
O749   Zn765   1.936   .     S
O749   Zn764   1.946   .     S
O750   Zn763   1.925   .     S
O751   Zn765   1.926   .     S
O752   Zn764   1.916   .     S
O753   Zn762   1.917   .     S
O754   Zn762   1.932   .     S
O755   Zn765   1.941   .     S
O756   Zn763   1.932   .     S
O757   Zn764   1.934   .     S
O758   Zn765   1.928   .     S
O759   Zn762   1.930   .     S
O760   Zn763   1.945   .     S
O761   Zn764   1.936   .     S
C766   O843    1.268   .     A
C766   C772    1.437   .     S
C766   O841    1.264   .     A
C767   H825    1.077   .     S
C767   C806    1.406   .     A
C767   C781    1.383   .     A
C768   C783    1.490   .     S
C768   C780    1.413   .     A
C768   C781    1.403   .     A
C769   O844    1.278   .     A
C769   C771    1.450   .     S
C769   O842    1.282   .     A
C770   C782    1.400   .     A
C770   C779    1.481   .     S
C770   C805    1.420   .     A
C771   C857    1.333   .     S
C771   H914    1.084   .     S
C772   C941    1.333   1_455 S
C772   H980    1.086   1_455 S
C773   C776    1.453   .     S
C773   C1029   1.346   .     S
C773   H1076   1.086   .     S
C774   C775    1.429   .     S
C774   C1283   1.346   1_545 S
C774   C1300   1.483   1_545 S
C775   O845    1.262   .     A
C775   O839    1.271   .     A
C776   O846    1.280   .     A
C776   O840    1.267   .     A
C777   C782    1.387   .     A
C777   C23     1.401   1_556 S
C777   H62     1.084   1_556 S
C778   O835    1.274   .     A
C778   C781    1.463   .     S
C778   O837    1.279   .     A
C779   O836    1.287   .     A
C779   O838    1.286   .     A
C782   H826    1.083   .     S
C783   C789    1.405   .     A
C783   C784    1.406   .     A
C784   C785    1.398   .     A
C784   H830    1.083   .     S
C785   H831    1.082   .     S
C785   C786    1.397   .     A
C786   C787    1.398   .     A
C786   H811    1.082   .     S
C787   C789    1.399   .     A
C787   H1322   1.082   1_545 S
C788   C798    1.485   .     S
C789   H813    1.082   .     S
C790   C791    1.403   .     A
C790   C795    1.404   .     A
C790   C1029   1.483   .     S
C791   C792    1.399   .     A
C791   H1069   1.082   .     S
C792   H815    1.082   .     S
C792   C793    1.399   .     A
C793   C794    1.398   .     A
C793   H986    1.082   1_455 S
C794   C795    1.398   .     A
C794   H817    1.082   .     S
C795   H818    1.081   .     S
C796   N832    1.158   .     T
C796   C808    1.447   .     S
C797   N833    1.158   .     T
C797   C15     1.451   1_556 S
C798   C804    1.406   .     A
C798   C800    1.406   .     A
C799   C805    1.416   .     A
C799   C23     1.434   1_556 S
C799   C41     1.433   1_556 S
C800   C801    1.396   .     A
C800   H819    1.083   .     S
C801   C802    1.398   .     A
C801   H820    1.081   .     S
C802   C803    1.397   .     A
C802   H822    1.081   .     S
C803   C804    1.398   .     A
C803   H823    1.082   .     S
C804   H824    1.082   .     S
C805   C809    1.404   .     A
C807   C808    1.421   .     A
C807   C41     1.432   1_556 S
C807   C15     1.432   1_556 S
C808   C809    1.391   .     A
C809   H828    1.082   .     S
H810   C857    1.086   .     S
H812   C1042   1.082   .     S
H814   C1301   1.082   1_545 S
H816   C878    1.082   .     S
H821   C1283   1.086   1_545 S
H829   C941    1.084   1_455 S
O834   Zn847   1.953   .     S
O834   Zn848   1.927   .     S
O834   Zn850   1.936   .     S
O834   Zn849   1.946   .     S
O835   Zn848   1.925   .     S
O836   Zn850   1.926   .     S
O837   Zn849   1.916   .     S
O838   Zn847   1.917   .     S
O839   Zn847   1.932   .     S
O840   Zn850   1.941   .     S
O841   Zn848   1.932   .     S
O842   Zn849   1.934   .     S
O843   Zn850   1.928   .     S
O844   Zn847   1.930   .     S
O845   Zn848   1.945   .     S
O846   Zn849   1.936   .     S
C851   O928    1.268   .     A
C851   C857    1.437   .     S
C851   O926    1.264   .     A
C852   H910    1.077   .     S
C852   C891    1.406   .     A
C852   C866    1.383   .     A
C853   C868    1.490   .     S
C853   C865    1.413   .     A
C853   C866    1.403   .     A
C854   O929    1.278   .     A
C854   C856    1.450   .     S
C854   O927    1.282   .     A
C855   C867    1.400   .     A
C855   C864    1.481   .     S
C855   C890    1.420   .     A
C856   C942    1.333   .     S
C856   H999    1.084   .     S
C858   C861    1.453   .     S
C858   C1114   1.346   .     S
C858   H1161   1.086   .     S
C859   C860    1.429   .     S
C859   C1368   1.346   1_545 S
C859   C1385   1.483   1_545 S
C860   O930    1.262   .     A
C860   O924    1.271   .     A
C861   O931    1.280   .     A
C861   O925    1.267   .     A
C862   C867    1.387   .     A
C862   C108    1.401   1_556 S
C862   H147    1.084   1_556 S
C863   O920    1.274   .     A
C863   C866    1.463   .     S
C863   O922    1.279   .     A
C864   O921    1.287   .     A
C864   O923    1.286   .     A
C867   H911    1.083   .     S
C868   C874    1.405   .     A
C868   C869    1.406   .     A
C869   C870    1.398   .     A
C869   H915    1.083   .     S
C870   H916    1.082   .     S
C870   C871    1.397   .     A
C871   C872    1.398   .     A
C871   H896    1.082   .     S
C872   C874    1.399   .     A
C872   H1407   1.082   1_545 S
C873   C883    1.485   .     S
C874   H898    1.082   .     S
C875   C876    1.403   .     A
C875   C880    1.404   .     A
C875   C1114   1.483   .     S
C876   C877    1.399   .     A
C876   H1154   1.082   .     S
C877   H900    1.082   .     S
C877   C878    1.399   .     A
C878   C879    1.398   .     A
C879   C880    1.398   .     A
C879   H902    1.082   .     S
C880   H903    1.081   .     S
C881   N917    1.158   .     T
C881   C893    1.447   .     S
C882   N918    1.158   .     T
C882   C100    1.451   1_556 S
C883   C889    1.406   .     A
C883   C885    1.406   .     A
C884   C890    1.416   .     A
C884   C108    1.434   1_556 S
C884   C126    1.433   1_556 S
C885   C886    1.396   .     A
C885   H904    1.083   .     S
C886   C887    1.398   .     A
C886   H905    1.081   .     S
C887   C888    1.397   .     A
C887   H907    1.081   .     S
C888   C889    1.398   .     A
C888   H908    1.082   .     S
C889   H909    1.082   .     S
C890   C894    1.404   .     A
C892   C893    1.421   .     A
C892   C126    1.432   1_556 S
C892   C100    1.432   1_556 S
C893   C894    1.391   .     A
C894   H913    1.082   .     S
H895   C942    1.086   .     S
H897   C1127   1.082   .     S
H899   C1386   1.082   1_545 S
H901   C963    1.082   .     S
H906   C1368   1.086   1_545 S
O919   Zn932   1.953   .     S
O919   Zn933   1.927   .     S
O919   Zn935   1.936   .     S
O919   Zn934   1.946   .     S
O920   Zn933   1.925   .     S
O921   Zn935   1.926   .     S
O922   Zn934   1.916   .     S
O923   Zn932   1.917   .     S
O924   Zn932   1.932   .     S
O925   Zn935   1.941   .     S
O926   Zn933   1.932   .     S
O927   Zn934   1.934   .     S
O928   Zn935   1.928   .     S
O929   Zn932   1.930   .     S
O930   Zn933   1.945   .     S
O931   Zn934   1.936   .     S
C936   O1013   1.268   .     A
C936   C942    1.437   .     S
C936   O1011   1.264   .     A
C937   H995    1.077   .     S
C937   C976    1.406   .     A
C937   C951    1.383   .     A
C938   C953    1.490   .     S
C938   C950    1.413   .     A
C938   C951    1.403   .     A
C939   O1014   1.278   .     A
C939   C941    1.450   .     S
C939   O1012   1.282   .     A
C940   C952    1.400   .     A
C940   C949    1.481   .     S
C940   C975    1.420   .     A
C941   C772    1.333   1_655 S
C941   H829    1.084   1_655 S
C943   C946    1.453   .     S
C943   C1199   1.346   .     S
C943   H1246   1.086   .     S
C944   C945    1.429   .     S
C944   C1453   1.346   1_545 S
C944   C1470   1.483   1_545 S
C945   O1015   1.262   .     A
C945   O1009   1.271   .     A
C946   O1016   1.280   .     A
C946   O1010   1.267   .     A
C947   C952    1.387   .     A
C947   C193    1.401   1_556 S
C947   H232    1.084   1_556 S
C948   O1005   1.274   .     A
C948   C951    1.463   .     S
C948   O1007   1.279   .     A
C949   O1006   1.287   .     A
C949   O1008   1.286   .     A
C952   H996    1.083   .     S
C953   C959    1.405   .     A
C953   C954    1.406   .     A
C954   C955    1.398   .     A
C954   H1000   1.083   .     S
C955   H1001   1.082   .     S
C955   C956    1.397   .     A
C956   C957    1.398   .     A
C956   H981    1.082   .     S
C957   C959    1.399   .     A
C957   H1492   1.082   1_545 S
C958   C968    1.485   .     S
C959   H983    1.082   .     S
C960   C961    1.403   .     A
C960   C965    1.404   .     A
C960   C1199   1.483   .     S
C961   C962    1.399   .     A
C961   H1239   1.082   .     S
C962   H985    1.082   .     S
C962   C963    1.399   .     A
C963   C964    1.398   .     A
C964   C965    1.398   .     A
C964   H987    1.082   .     S
C965   H988    1.081   .     S
C966   N1002   1.158   .     T
C966   C978    1.447   .     S
C967   N1003   1.158   .     T
C967   C185    1.451   1_556 S
C968   C974    1.406   .     A
C968   C970    1.406   .     A
C969   C975    1.416   .     A
C969   C193    1.434   1_556 S
C969   C211    1.433   1_556 S
C970   C971    1.396   .     A
C970   H989    1.083   .     S
C971   C972    1.398   .     A
C971   H990    1.081   .     S
C972   C973    1.397   .     A
C972   H992    1.081   .     S
C973   C974    1.398   .     A
C973   H993    1.082   .     S
C974   H994    1.082   .     S
C975   C979    1.404   .     A
C977   C978    1.421   .     A
C977   C211    1.432   1_556 S
C977   C185    1.432   1_556 S
C978   C979    1.391   .     A
C979   H998    1.082   .     S
H980   C772    1.086   1_655 S
H982   C1212   1.082   .     S
H984   C1471   1.082   1_545 S
H986   C793    1.082   1_655 S
H991   C1453   1.086   1_545 S
O1004  Zn1017  1.953   .     S
O1004  Zn1018  1.927   .     S
O1004  Zn1020  1.936   .     S
O1004  Zn1019  1.946   .     S
O1005  Zn1018  1.925   .     S
O1006  Zn1020  1.926   .     S
O1007  Zn1019  1.916   .     S
O1008  Zn1017  1.917   .     S
O1009  Zn1017  1.932   .     S
O1010  Zn1020  1.941   .     S
O1011  Zn1018  1.932   .     S
O1012  Zn1019  1.934   .     S
O1013  Zn1020  1.928   .     S
O1014  Zn1017  1.930   .     S
O1015  Zn1018  1.945   .     S
O1016  Zn1019  1.936   .     S
C1021  O1098   1.268   .     A
C1021  C1027   1.437   .     S
C1021  O1096   1.264   .     A
C1022  H1080   1.077   .     S
C1022  C1061   1.406   .     A
C1022  C1036   1.383   .     A
C1023  C1038   1.490   .     S
C1023  C1035   1.413   .     A
C1023  C1036   1.403   .     A
C1024  O1099   1.278   .     A
C1024  C1026   1.450   .     S
C1024  O1097   1.282   .     A
C1025  C1037   1.400   .     A
C1025  C1034   1.481   .     S
C1025  C1060   1.420   .     A
C1026  C1112   1.333   .     S
C1026  H1169   1.084   .     S
C1027  C1196   1.333   1_455 S
C1027  H1235   1.086   1_455 S
C1028  C1031   1.453   .     S
C1028  C1284   1.346   .     S
C1028  H1331   1.086   .     S
C1029  C1030   1.429   .     S
C1030  O1100   1.262   .     A
C1030  O1094   1.271   .     A
C1031  O1101   1.280   .     A
C1031  O1095   1.267   .     A
C1032  C1037   1.387   .     A
C1032  C278    1.401   1_556 S
C1032  H317    1.084   1_556 S
C1033  O1090   1.274   .     A
C1033  C1036   1.463   .     S
C1033  O1092   1.279   .     A
C1034  O1091   1.287   .     A
C1034  O1093   1.286   .     A
C1037  H1081   1.083   .     S
C1038  C1044   1.405   .     A
C1038  C1039   1.406   .     A
C1039  C1040   1.398   .     A
C1039  H1085   1.083   .     S
C1040  H1086   1.082   .     S
C1040  C1041   1.397   .     A
C1041  C1042   1.398   .     A
C1041  H1066   1.082   .     S
C1042  C1044   1.399   .     A
C1043  C1053   1.485   .     S
C1044  H1068   1.082   .     S
C1045  C1046   1.403   .     A
C1045  C1050   1.404   .     A
C1045  C1284   1.483   .     S
C1046  C1047   1.399   .     A
C1046  H1324   1.082   .     S
C1047  H1070   1.082   .     S
C1047  C1048   1.399   .     A
C1048  C1049   1.398   .     A
C1048  H1241   1.082   1_455 S
C1049  C1050   1.398   .     A
C1049  H1072   1.082   .     S
C1050  H1073   1.081   .     S
C1051  N1087   1.158   .     T
C1051  C1063   1.447   .     S
C1052  N1088   1.158   .     T
C1052  C270    1.451   1_556 S
C1053  C1059   1.406   .     A
C1053  C1055   1.406   .     A
C1054  C1060   1.416   .     A
C1054  C278    1.434   1_556 S
C1054  C296    1.433   1_556 S
C1055  C1056   1.396   .     A
C1055  H1074   1.083   .     S
C1056  C1057   1.398   .     A
C1056  H1075   1.081   .     S
C1057  C1058   1.397   .     A
C1057  H1077   1.081   .     S
C1058  C1059   1.398   .     A
C1058  H1078   1.082   .     S
C1059  H1079   1.082   .     S
C1060  C1064   1.404   .     A
C1062  C1063   1.421   .     A
C1062  C296    1.432   1_556 S
C1062  C270    1.432   1_556 S
C1063  C1064   1.391   .     A
C1064  H1083   1.082   .     S
H1065  C1112   1.086   .     S
H1067  C1297   1.082   .     S
H1071  C1133   1.082   .     S
H1084  C1196   1.084   1_455 S
O1089  Zn1102  1.953   .     S
O1089  Zn1103  1.927   .     S
O1089  Zn1105  1.936   .     S
O1089  Zn1104  1.946   .     S
O1090  Zn1103  1.925   .     S
O1091  Zn1105  1.926   .     S
O1092  Zn1104  1.916   .     S
O1093  Zn1102  1.917   .     S
O1094  Zn1102  1.932   .     S
O1095  Zn1105  1.941   .     S
O1096  Zn1103  1.932   .     S
O1097  Zn1104  1.934   .     S
O1098  Zn1105  1.928   .     S
O1099  Zn1102  1.930   .     S
O1100  Zn1103  1.945   .     S
O1101  Zn1104  1.936   .     S
C1106  O1183   1.268   .     A
C1106  C1112   1.437   .     S
C1106  O1181   1.264   .     A
C1107  H1165   1.077   .     S
C1107  C1146   1.406   .     A
C1107  C1121   1.383   .     A
C1108  C1123   1.490   .     S
C1108  C1120   1.413   .     A
C1108  C1121   1.403   .     A
C1109  O1184   1.278   .     A
C1109  C1111   1.450   .     S
C1109  O1182   1.282   .     A
C1110  C1122   1.400   .     A
C1110  C1119   1.481   .     S
C1110  C1145   1.420   .     A
C1111  C1197   1.333   .     S
C1111  H1254   1.084   .     S
C1113  C1116   1.453   .     S
C1113  C1369   1.346   .     S
C1113  H1416   1.086   .     S
C1114  C1115   1.429   .     S
C1115  O1185   1.262   .     A
C1115  O1179   1.271   .     A
C1116  O1186   1.280   .     A
C1116  O1180   1.267   .     A
C1117  C1122   1.387   .     A
C1117  C363    1.401   1_556 S
C1117  H402    1.084   1_556 S
C1118  O1175   1.274   .     A
C1118  C1121   1.463   .     S
C1118  O1177   1.279   .     A
C1119  O1176   1.287   .     A
C1119  O1178   1.286   .     A
C1122  H1166   1.083   .     S
C1123  C1129   1.405   .     A
C1123  C1124   1.406   .     A
C1124  C1125   1.398   .     A
C1124  H1170   1.083   .     S
C1125  H1171   1.082   .     S
C1125  C1126   1.397   .     A
C1126  C1127   1.398   .     A
C1126  H1151   1.082   .     S
C1127  C1129   1.399   .     A
C1128  C1138   1.485   .     S
C1129  H1153   1.082   .     S
C1130  C1131   1.403   .     A
C1130  C1135   1.404   .     A
C1130  C1369   1.483   .     S
C1131  C1132   1.399   .     A
C1131  H1409   1.082   .     S
C1132  H1155   1.082   .     S
C1132  C1133   1.399   .     A
C1133  C1134   1.398   .     A
C1134  C1135   1.398   .     A
C1134  H1157   1.082   .     S
C1135  H1158   1.081   .     S
C1136  N1172   1.158   .     T
C1136  C1148   1.447   .     S
C1137  N1173   1.158   .     T
C1137  C355    1.451   1_556 S
C1138  C1144   1.406   .     A
C1138  C1140   1.406   .     A
C1139  C1145   1.416   .     A
C1139  C363    1.434   1_556 S
C1139  C381    1.433   1_556 S
C1140  C1141   1.396   .     A
C1140  H1159   1.083   .     S
C1141  C1142   1.398   .     A
C1141  H1160   1.081   .     S
C1142  C1143   1.397   .     A
C1142  H1162   1.081   .     S
C1143  C1144   1.398   .     A
C1143  H1163   1.082   .     S
C1144  H1164   1.082   .     S
C1145  C1149   1.404   .     A
C1147  C1148   1.421   .     A
C1147  C381    1.432   1_556 S
C1147  C355    1.432   1_556 S
C1148  C1149   1.391   .     A
C1149  H1168   1.082   .     S
H1150  C1197   1.086   .     S
H1152  C1382   1.082   .     S
H1156  C1218   1.082   .     S
O1174  Zn1187  1.953   .     S
O1174  Zn1188  1.927   .     S
O1174  Zn1190  1.936   .     S
O1174  Zn1189  1.946   .     S
O1175  Zn1188  1.925   .     S
O1176  Zn1190  1.926   .     S
O1177  Zn1189  1.916   .     S
O1178  Zn1187  1.917   .     S
O1179  Zn1187  1.932   .     S
O1180  Zn1190  1.941   .     S
O1181  Zn1188  1.932   .     S
O1182  Zn1189  1.934   .     S
O1183  Zn1190  1.928   .     S
O1184  Zn1187  1.930   .     S
O1185  Zn1188  1.945   .     S
O1186  Zn1189  1.936   .     S
C1191  O1268   1.268   .     A
C1191  C1197   1.437   .     S
C1191  O1266   1.264   .     A
C1192  H1250   1.077   .     S
C1192  C1231   1.406   .     A
C1192  C1206   1.383   .     A
C1193  C1208   1.490   .     S
C1193  C1205   1.413   .     A
C1193  C1206   1.403   .     A
C1194  O1269   1.278   .     A
C1194  C1196   1.450   .     S
C1194  O1267   1.282   .     A
C1195  C1207   1.400   .     A
C1195  C1204   1.481   .     S
C1195  C1230   1.420   .     A
C1196  C1027   1.333   1_655 S
C1196  H1084   1.084   1_655 S
C1198  C1201   1.453   .     S
C1198  C1454   1.346   .     S
C1198  H1501   1.086   .     S
C1199  C1200   1.429   .     S
C1200  O1270   1.262   .     A
C1200  O1264   1.271   .     A
C1201  O1271   1.280   .     A
C1201  O1265   1.267   .     A
C1202  C1207   1.387   .     A
C1202  C448    1.401   1_556 S
C1202  H487    1.084   1_556 S
C1203  O1260   1.274   .     A
C1203  C1206   1.463   .     S
C1203  O1262   1.279   .     A
C1204  O1261   1.287   .     A
C1204  O1263   1.286   .     A
C1207  H1251   1.083   .     S
C1208  C1214   1.405   .     A
C1208  C1209   1.406   .     A
C1209  C1210   1.398   .     A
C1209  H1255   1.083   .     S
C1210  H1256   1.082   .     S
C1210  C1211   1.397   .     A
C1211  C1212   1.398   .     A
C1211  H1236   1.082   .     S
C1212  C1214   1.399   .     A
C1213  C1223   1.485   .     S
C1214  H1238   1.082   .     S
C1215  C1216   1.403   .     A
C1215  C1220   1.404   .     A
C1215  C1454   1.483   .     S
C1216  C1217   1.399   .     A
C1216  H1494   1.082   .     S
C1217  H1240   1.082   .     S
C1217  C1218   1.399   .     A
C1218  C1219   1.398   .     A
C1219  C1220   1.398   .     A
C1219  H1242   1.082   .     S
C1220  H1243   1.081   .     S
C1221  N1257   1.158   .     T
C1221  C1233   1.447   .     S
C1222  N1258   1.158   .     T
C1222  C440    1.451   1_556 S
C1223  C1229   1.406   .     A
C1223  C1225   1.406   .     A
C1224  C1230   1.416   .     A
C1224  C448    1.434   1_556 S
C1224  C466    1.433   1_556 S
C1225  C1226   1.396   .     A
C1225  H1244   1.083   .     S
C1226  C1227   1.398   .     A
C1226  H1245   1.081   .     S
C1227  C1228   1.397   .     A
C1227  H1247   1.081   .     S
C1228  C1229   1.398   .     A
C1228  H1248   1.082   .     S
C1229  H1249   1.082   .     S
C1230  C1234   1.404   .     A
C1232  C1233   1.421   .     A
C1232  C466    1.432   1_556 S
C1232  C440    1.432   1_556 S
C1233  C1234   1.391   .     A
C1234  H1253   1.082   .     S
H1235  C1027   1.086   1_655 S
H1237  C1467   1.082   .     S
H1241  C1048   1.082   1_655 S
O1259  Zn1272  1.953   .     S
O1259  Zn1273  1.927   .     S
O1259  Zn1275  1.936   .     S
O1259  Zn1274  1.946   .     S
O1260  Zn1273  1.925   .     S
O1261  Zn1275  1.926   .     S
O1262  Zn1274  1.916   .     S
O1263  Zn1272  1.917   .     S
O1264  Zn1272  1.932   .     S
O1265  Zn1275  1.941   .     S
O1266  Zn1273  1.932   .     S
O1267  Zn1274  1.934   .     S
O1268  Zn1275  1.928   .     S
O1269  Zn1272  1.930   .     S
O1270  Zn1273  1.945   .     S
O1271  Zn1274  1.936   .     S
C1276  O1353   1.268   .     A
C1276  C1282   1.437   .     S
C1276  O1351   1.264   .     A
C1277  H1335   1.077   .     S
C1277  C1316   1.406   .     A
C1277  C1291   1.383   .     A
C1278  C1293   1.490   .     S
C1278  C1290   1.413   .     A
C1278  C1291   1.403   .     A
C1279  O1354   1.278   .     A
C1279  C1281   1.450   .     S
C1279  O1352   1.282   .     A
C1280  C1292   1.400   .     A
C1280  C1289   1.481   .     S
C1280  C1315   1.420   .     A
C1281  C1367   1.333   .     S
C1281  H1424   1.084   .     S
C1282  C1451   1.333   1_455 S
C1282  H1490   1.086   1_455 S
C1283  C1286   1.453   .     S
C1283  C774    1.346   1_565 S
C1283  H821    1.086   1_565 S
C1284  C1285   1.429   .     S
C1285  O1355   1.262   .     A
C1285  O1349   1.271   .     A
C1286  O1356   1.280   .     A
C1286  O1350   1.267   .     A
C1287  C1292   1.387   .     A
C1287  C533    1.401   1_556 S
C1287  H572    1.084   1_556 S
C1288  O1345   1.274   .     A
C1288  C1291   1.463   .     S
C1288  O1347   1.279   .     A
C1289  O1346   1.287   .     A
C1289  O1348   1.286   .     A
C1292  H1336   1.083   .     S
C1293  C1299   1.405   .     A
C1293  C1294   1.406   .     A
C1294  C1295   1.398   .     A
C1294  H1340   1.083   .     S
C1295  H1341   1.082   .     S
C1295  C1296   1.397   .     A
C1296  C1297   1.398   .     A
C1296  H1321   1.082   .     S
C1297  C1299   1.399   .     A
C1298  C1308   1.485   .     S
C1299  H1323   1.082   .     S
C1300  C1301   1.403   .     A
C1300  C1305   1.404   .     A
C1300  C774    1.483   1_565 S
C1301  C1302   1.399   .     A
C1301  H814    1.082   1_565 S
C1302  H1325   1.082   .     S
C1302  C1303   1.399   .     A
C1303  C1304   1.398   .     A
C1303  H1496   1.082   1_455 S
C1304  C1305   1.398   .     A
C1304  H1327   1.082   .     S
C1305  H1328   1.081   .     S
C1306  N1342   1.158   .     T
C1306  C1318   1.447   .     S
C1307  N1343   1.158   .     T
C1307  C525    1.451   1_556 S
C1308  C1314   1.406   .     A
C1308  C1310   1.406   .     A
C1309  C1315   1.416   .     A
C1309  C533    1.434   1_556 S
C1309  C551    1.433   1_556 S
C1310  C1311   1.396   .     A
C1310  H1329   1.083   .     S
C1311  C1312   1.398   .     A
C1311  H1330   1.081   .     S
C1312  C1313   1.397   .     A
C1312  H1332   1.081   .     S
C1313  C1314   1.398   .     A
C1313  H1333   1.082   .     S
C1314  H1334   1.082   .     S
C1315  C1319   1.404   .     A
C1317  C1318   1.421   .     A
C1317  C551    1.432   1_556 S
C1317  C525    1.432   1_556 S
C1318  C1319   1.391   .     A
C1319  H1338   1.082   .     S
H1320  C1367   1.086   .     S
H1322  C787    1.082   1_565 S
H1326  C1388   1.082   .     S
H1339  C1451   1.084   1_455 S
O1344  Zn1357  1.953   .     S
O1344  Zn1358  1.927   .     S
O1344  Zn1360  1.936   .     S
O1344  Zn1359  1.946   .     S
O1345  Zn1358  1.925   .     S
O1346  Zn1360  1.926   .     S
O1347  Zn1359  1.916   .     S
O1348  Zn1357  1.917   .     S
O1349  Zn1357  1.932   .     S
O1350  Zn1360  1.941   .     S
O1351  Zn1358  1.932   .     S
O1352  Zn1359  1.934   .     S
O1353  Zn1360  1.928   .     S
O1354  Zn1357  1.930   .     S
O1355  Zn1358  1.945   .     S
O1356  Zn1359  1.936   .     S
C1361  O1438   1.268   .     A
C1361  C1367   1.437   .     S
C1361  O1436   1.264   .     A
C1362  H1420   1.077   .     S
C1362  C1401   1.406   .     A
C1362  C1376   1.383   .     A
C1363  C1378   1.490   .     S
C1363  C1375   1.413   .     A
C1363  C1376   1.403   .     A
C1364  O1439   1.278   .     A
C1364  C1366   1.450   .     S
C1364  O1437   1.282   .     A
C1365  C1377   1.400   .     A
C1365  C1374   1.481   .     S
C1365  C1400   1.420   .     A
C1366  C1452   1.333   .     S
C1366  H1509   1.084   .     S
C1368  C1371   1.453   .     S
C1368  C859    1.346   1_565 S
C1368  H906    1.086   1_565 S
C1369  C1370   1.429   .     S
C1370  O1440   1.262   .     A
C1370  O1434   1.271   .     A
C1371  O1441   1.280   .     A
C1371  O1435   1.267   .     A
C1372  C1377   1.387   .     A
C1372  C618    1.401   1_556 S
C1372  H657    1.084   1_556 S
C1373  O1430   1.274   .     A
C1373  C1376   1.463   .     S
C1373  O1432   1.279   .     A
C1374  O1431   1.287   .     A
C1374  O1433   1.286   .     A
C1377  H1421   1.083   .     S
C1378  C1384   1.405   .     A
C1378  C1379   1.406   .     A
C1379  C1380   1.398   .     A
C1379  H1425   1.083   .     S
C1380  H1426   1.082   .     S
C1380  C1381   1.397   .     A
C1381  C1382   1.398   .     A
C1381  H1406   1.082   .     S
C1382  C1384   1.399   .     A
C1383  C1393   1.485   .     S
C1384  H1408   1.082   .     S
C1385  C1386   1.403   .     A
C1385  C1390   1.404   .     A
C1385  C859    1.483   1_565 S
C1386  C1387   1.399   .     A
C1386  H899    1.082   1_565 S
C1387  H1410   1.082   .     S
C1387  C1388   1.399   .     A
C1388  C1389   1.398   .     A
C1389  C1390   1.398   .     A
C1389  H1412   1.082   .     S
C1390  H1413   1.081   .     S
C1391  N1427   1.158   .     T
C1391  C1403   1.447   .     S
C1392  N1428   1.158   .     T
C1392  C610    1.451   1_556 S
C1393  C1399   1.406   .     A
C1393  C1395   1.406   .     A
C1394  C1400   1.416   .     A
C1394  C618    1.434   1_556 S
C1394  C636    1.433   1_556 S
C1395  C1396   1.396   .     A
C1395  H1414   1.083   .     S
C1396  C1397   1.398   .     A
C1396  H1415   1.081   .     S
C1397  C1398   1.397   .     A
C1397  H1417   1.081   .     S
C1398  C1399   1.398   .     A
C1398  H1418   1.082   .     S
C1399  H1419   1.082   .     S
C1400  C1404   1.404   .     A
C1402  C1403   1.421   .     A
C1402  C636    1.432   1_556 S
C1402  C610    1.432   1_556 S
C1403  C1404   1.391   .     A
C1404  H1423   1.082   .     S
H1405  C1452   1.086   .     S
H1407  C872    1.082   1_565 S
H1411  C1473   1.082   .     S
O1429  Zn1442  1.953   .     S
O1429  Zn1443  1.927   .     S
O1429  Zn1445  1.936   .     S
O1429  Zn1444  1.946   .     S
O1430  Zn1443  1.925   .     S
O1431  Zn1445  1.926   .     S
O1432  Zn1444  1.916   .     S
O1433  Zn1442  1.917   .     S
O1434  Zn1442  1.932   .     S
O1435  Zn1445  1.941   .     S
O1436  Zn1443  1.932   .     S
O1437  Zn1444  1.934   .     S
O1438  Zn1445  1.928   .     S
O1439  Zn1442  1.930   .     S
O1440  Zn1443  1.945   .     S
O1441  Zn1444  1.936   .     S
C1446  O1523   1.268   .     A
C1446  C1452   1.437   .     S
C1446  O1521   1.264   .     A
C1447  H1505   1.077   .     S
C1447  C1486   1.406   .     A
C1447  C1461   1.383   .     A
C1448  C1463   1.490   .     S
C1448  C1460   1.413   .     A
C1448  C1461   1.403   .     A
C1449  O1524   1.278   .     A
C1449  C1451   1.450   .     S
C1449  O1522   1.282   .     A
C1450  C1462   1.400   .     A
C1450  C1459   1.481   .     S
C1450  C1485   1.420   .     A
C1451  C1282   1.333   1_655 S
C1451  H1339   1.084   1_655 S
C1453  C1456   1.453   .     S
C1453  C944    1.346   1_565 S
C1453  H991    1.086   1_565 S
C1454  C1455   1.429   .     S
C1455  O1525   1.262   .     A
C1455  O1519   1.271   .     A
C1456  O1526   1.280   .     A
C1456  O1520   1.267   .     A
C1457  C1462   1.387   .     A
C1457  C703    1.401   1_556 S
C1457  H742    1.084   1_556 S
C1458  O1515   1.274   .     A
C1458  C1461   1.463   .     S
C1458  O1517   1.279   .     A
C1459  O1516   1.287   .     A
C1459  O1518   1.286   .     A
C1462  H1506   1.083   .     S
C1463  C1469   1.405   .     A
C1463  C1464   1.406   .     A
C1464  C1465   1.398   .     A
C1464  H1510   1.083   .     S
C1465  H1511   1.082   .     S
C1465  C1466   1.397   .     A
C1466  C1467   1.398   .     A
C1466  H1491   1.082   .     S
C1467  C1469   1.399   .     A
C1468  C1478   1.485   .     S
C1469  H1493   1.082   .     S
C1470  C1471   1.403   .     A
C1470  C1475   1.404   .     A
C1470  C944    1.483   1_565 S
C1471  C1472   1.399   .     A
C1471  H984    1.082   1_565 S
C1472  H1495   1.082   .     S
C1472  C1473   1.399   .     A
C1473  C1474   1.398   .     A
C1474  C1475   1.398   .     A
C1474  H1497   1.082   .     S
C1475  H1498   1.081   .     S
C1476  N1512   1.158   .     T
C1476  C1488   1.447   .     S
C1477  N1513   1.158   .     T
C1477  C695    1.451   1_556 S
C1478  C1484   1.406   .     A
C1478  C1480   1.406   .     A
C1479  C1485   1.416   .     A
C1479  C703    1.434   1_556 S
C1479  C721    1.433   1_556 S
C1480  C1481   1.396   .     A
C1480  H1499   1.083   .     S
C1481  C1482   1.398   .     A
C1481  H1500   1.081   .     S
C1482  C1483   1.397   .     A
C1482  H1502   1.081   .     S
C1483  C1484   1.398   .     A
C1483  H1503   1.082   .     S
C1484  H1504   1.082   .     S
C1485  C1489   1.404   .     A
C1487  C1488   1.421   .     A
C1487  C721    1.432   1_556 S
C1487  C695    1.432   1_556 S
C1488  C1489   1.391   .     A
C1489  H1508   1.082   .     S
H1490  C1282   1.086   1_655 S
H1492  C957    1.082   1_565 S
H1496  C1303   1.082   1_655 S
O1514  Zn1527  1.953   .     S
O1514  Zn1528  1.927   .     S
O1514  Zn1530  1.936   .     S
O1514  Zn1529  1.946   .     S
O1515  Zn1528  1.925   .     S
O1516  Zn1530  1.926   .     S
O1517  Zn1529  1.916   .     S
O1518  Zn1527  1.917   .     S
O1519  Zn1527  1.932   .     S
O1520  Zn1530  1.941   .     S
O1521  Zn1528  1.932   .     S
O1522  Zn1529  1.934   .     S
O1523  Zn1530  1.928   .     S
O1524  Zn1527  1.930   .     S
O1525  Zn1528  1.945   .     S
O1526  Zn1529  1.936   .     S
