data_str_m1_o10_o18_pcu_sym.143
_audit_creation_date              2020-01-03
_audit_creation_method            'Materials Studio'
_symmetry_space_group_name_H-M    'P1'
_symmetry_Int_Tables_number       1
_symmetry_cell_setting            triclinic
loop_
_symmetry_equiv_pos_as_xyz
  x,y,z
_cell_length_a                    32.8027
_cell_length_b                    32.4754
_cell_length_c                    35.7126
_cell_angle_alpha                 98.1120
_cell_angle_beta                  72.5678
_cell_angle_gamma                 98.3870
loop_
_atom_site_label
_atom_site_type_symbol
_atom_site_fract_x
_atom_site_fract_y
_atom_site_fract_z
_atom_site_U_iso_or_equiv
_atom_site_adp_type
_atom_site_occupancy
C1     C     0.05278   0.16022   0.25884   0.00000  Uiso   1.00
C2     C     0.19807   0.13101   0.46017   0.00000  Uiso   1.00
C3     C     0.22543   0.11921   0.47897   0.00000  Uiso   1.00
C4     C     0.28102   0.17337   0.24118   0.00000  Uiso   1.00
C5     C     0.21889   0.12936   0.01928   0.00000  Uiso   1.00
C6     C     0.18384   0.15150   0.04157   0.00000  Uiso   1.00
C7     C     0.24520   0.11484   0.03806   0.00000  Uiso   1.00
C8     C     0.23578   0.12050   0.07901   0.00000  Uiso   1.00
C9     C     0.17171   0.15141   0.08289   0.00000  Uiso   1.00
C10    C     0.32695   0.17396   0.23667   0.00000  Uiso   1.00
C11    C     0.00763   0.15861   0.26351   0.00000  Uiso   1.00
C12    C     0.09070   0.20668   0.42244   0.00000  Uiso   1.00
C13    C     0.18095   0.32224   0.23820   0.00000  Uiso   1.00
C14    C     0.15157   0.01218   0.26226   0.00000  Uiso   1.00
C15    C     0.15591   0.05621   0.25897   0.00000  Uiso   1.00
C16    C     0.17687   0.27771   0.24137   0.00000  Uiso   1.00
C17    C     0.18859   0.14521   0.14404   0.00000  Uiso   1.00
C18    C     0.14438   0.18708   0.35637   0.00000  Uiso   1.00
C19    C     0.13051   0.19224   0.40011   0.00000  Uiso   1.00
C20    C     0.19827   0.13768   0.10138   0.00000  Uiso   1.00
C21    C     0.08038   0.21257   0.46413   0.00000  Uiso   1.00
C22    C     0.02381   0.19078   0.20200   0.00000  Uiso   1.00
C23    C     0.15706   0.18007   0.41960   0.00000  Uiso   1.00
C24    C     0.31350   0.14450   0.30052   0.00000  Uiso   1.00
C25    C     0.03944   0.23106   0.48872   0.00000  Uiso   1.00
C26    C     0.06043   0.21530   0.40289   0.00000  Uiso   1.00
C27    C     0.13303   0.22524   0.07831   0.00000  Uiso   1.00
C28    C     0.19830   0.10761   0.42250   0.00000  Uiso   1.00
C29    C     0.14437   0.17918   0.46065   0.00000  Uiso   1.00
C30    C     0.10858   0.20037   0.48298   0.00000  Uiso   1.00
C31    C     0.16809   0.16039   0.48018   0.00000  Uiso   1.00
C32    C     0.16089   0.17075   0.02178   0.00000  Uiso   1.00
C33    C     0.13162   0.20052   0.04159   0.00000  Uiso   1.00
C34    C     0.10345   0.21146   0.02330   0.00000  Uiso   1.00
H35    H     0.07963   0.23181   0.04042   0.00000  Uiso   1.00
H36    H     0.02064   0.20978   0.01112   0.00000  Uiso   1.00
H37    H     0.04772   0.26210   0.00373   0.00000  Uiso   1.00
H38    H     0.27285   0.09896   0.02110   0.00000  Uiso   1.00
H39    H     0.20810   0.00287   0.21611   0.00000  Uiso   1.00
H40    H     0.12398   0.33231   0.28437   0.00000  Uiso   1.00
H41    H     0.14144   0.16120   0.10140   0.00000  Uiso   1.00
H42    H     0.25683   0.11025   0.09329   0.00000  Uiso   1.00
H43    H     0.24977   0.09886   0.46270   0.00000  Uiso   1.00
H44    H     0.18874   0.17288   0.40221   0.00000  Uiso   1.00
H45    H     0.01784   0.23580   0.47147   0.00000  Uiso   1.00
N46    N     0.04787   0.20415   0.17437   0.00000  Uiso   1.00
N47    N     0.29176   0.13326   0.33012   0.00000  Uiso   1.00
N48    N     0.03621   0.22213   0.38732   0.00000  Uiso   1.00
N49    N     0.13418   0.24525   0.10757   0.00000  Uiso   1.00
N50    N     0.19852   0.08867   0.39245   0.00000  Uiso   1.00
O51    O     0.16667   0.16667   0.25000   0.00000  Uiso   1.00
O52    O     0.15693   0.12393   0.16625   0.00000  Uiso   1.00
O53    O     0.12687   0.20646   0.33749   0.00000  Uiso   1.00
O54    O     0.21088   0.17493   0.15877   0.00000  Uiso   1.00
O55    O     0.17198   0.16135   0.33749   0.00000  Uiso   1.00
O56    O     0.17849   0.08101   0.27820   0.00000  Uiso   1.00
O57    O     0.14581   0.26136   0.26767   0.00000  Uiso   1.00
O58    O     0.07452   0.13251   0.23607   0.00000  Uiso   1.00
O59    O     0.26785   0.19179   0.21806   0.00000  Uiso   1.00
O60    O     0.06990   0.18960   0.27820   0.00000  Uiso   1.00
O61    O     0.25440   0.15277   0.26767   0.00000  Uiso   1.00
O62    O     0.13800   0.06903   0.23607   0.00000  Uiso   1.00
O63    O     0.20437   0.25527   0.21806   0.00000  Uiso   1.00
Zn64   Zn    0.19244   0.14090   0.28277   0.00000  Uiso   1.00
Zn65   Zn    0.13459   0.12378   0.22258   0.00000  Uiso   1.00
Zn66   Zn    0.21166   0.19664   0.21188   0.00000  Uiso   1.00
Zn67   Zn    0.12798   0.20535   0.28277   0.00000  Uiso   1.00
C68    C     0.38612   0.16022   0.25884   0.00000  Uiso   1.00
C69    C     0.53140   0.13101   0.46017   0.00000  Uiso   1.00
C70    C     0.55876   0.11921   0.47897   0.00000  Uiso   1.00
C71    C     0.61436   0.17337   0.24118   0.00000  Uiso   1.00
C72    C     0.55223   0.12936   0.01928   0.00000  Uiso   1.00
C73    C     0.51717   0.15150   0.04157   0.00000  Uiso   1.00
C74    C     0.57853   0.11484   0.03806   0.00000  Uiso   1.00
C75    C     0.56911   0.12050   0.07901   0.00000  Uiso   1.00
C76    C     0.50504   0.15141   0.08289   0.00000  Uiso   1.00
C77    C     0.66029   0.17396   0.23667   0.00000  Uiso   1.00
C78    C     0.34097   0.15861   0.26351   0.00000  Uiso   1.00
C79    C     0.42403   0.20668   0.42244   0.00000  Uiso   1.00
C80    C     0.51428   0.32224   0.23820   0.00000  Uiso   1.00
C81    C     0.48490   0.01218   0.26226   0.00000  Uiso   1.00
C82    C     0.48924   0.05621   0.25897   0.00000  Uiso   1.00
C83    C     0.51020   0.27771   0.24137   0.00000  Uiso   1.00
C84    C     0.52193   0.14521   0.14404   0.00000  Uiso   1.00
C85    C     0.47771   0.18708   0.35637   0.00000  Uiso   1.00
C86    C     0.46384   0.19224   0.40011   0.00000  Uiso   1.00
C87    C     0.53160   0.13768   0.10138   0.00000  Uiso   1.00
C88    C     0.41372   0.21257   0.46413   0.00000  Uiso   1.00
C89    C     0.35714   0.19078   0.20200   0.00000  Uiso   1.00
C90    C     0.49040   0.18007   0.41960   0.00000  Uiso   1.00
C91    C     0.64683   0.14450   0.30052   0.00000  Uiso   1.00
C92    C     0.37277   0.23106   0.48872   0.00000  Uiso   1.00
C93    C     0.39377   0.21530   0.40289   0.00000  Uiso   1.00
C94    C     0.46637   0.22524   0.07831   0.00000  Uiso   1.00
C95    C     0.53164   0.10761   0.42250   0.00000  Uiso   1.00
C96    C     0.47771   0.17918   0.46065   0.00000  Uiso   1.00
C97    C     0.44191   0.20037   0.48298   0.00000  Uiso   1.00
C98    C     0.50143   0.16039   0.48018   0.00000  Uiso   1.00
C99    C     0.49423   0.17075   0.02178   0.00000  Uiso   1.00
C100   C     0.46495   0.20052   0.04159   0.00000  Uiso   1.00
C101   C     0.43679   0.21146   0.02330   0.00000  Uiso   1.00
H102   H     0.41296   0.23181   0.04042   0.00000  Uiso   1.00
H103   H     0.35397   0.20978   0.01112   0.00000  Uiso   1.00
H104   H     0.38105   0.26210   0.00373   0.00000  Uiso   1.00
H105   H     0.60618   0.09896   0.02110   0.00000  Uiso   1.00
H106   H     0.54143   0.00287   0.21611   0.00000  Uiso   1.00
H107   H     0.45732   0.33231   0.28437   0.00000  Uiso   1.00
H108   H     0.47478   0.16120   0.10140   0.00000  Uiso   1.00
H109   H     0.59016   0.11025   0.09329   0.00000  Uiso   1.00
H110   H     0.58310   0.09886   0.46270   0.00000  Uiso   1.00
H111   H     0.52208   0.17288   0.40221   0.00000  Uiso   1.00
H112   H     0.35118   0.23580   0.47147   0.00000  Uiso   1.00
N113   N     0.38120   0.20415   0.17437   0.00000  Uiso   1.00
N114   N     0.62509   0.13326   0.33012   0.00000  Uiso   1.00
N115   N     0.36954   0.22213   0.38732   0.00000  Uiso   1.00
N116   N     0.46751   0.24525   0.10757   0.00000  Uiso   1.00
N117   N     0.53185   0.08867   0.39245   0.00000  Uiso   1.00
O118   O     0.50000   0.16667   0.25000   0.00000  Uiso   1.00
O119   O     0.49027   0.12393   0.16625   0.00000  Uiso   1.00
O120   O     0.46020   0.20646   0.33749   0.00000  Uiso   1.00
O121   O     0.54421   0.17493   0.15877   0.00000  Uiso   1.00
O122   O     0.50532   0.16135   0.33749   0.00000  Uiso   1.00
O123   O     0.51182   0.08101   0.27820   0.00000  Uiso   1.00
O124   O     0.47914   0.26136   0.26767   0.00000  Uiso   1.00
O125   O     0.40785   0.13251   0.23607   0.00000  Uiso   1.00
O126   O     0.60119   0.19179   0.21806   0.00000  Uiso   1.00
O127   O     0.40323   0.18960   0.27820   0.00000  Uiso   1.00
O128   O     0.58773   0.15277   0.26767   0.00000  Uiso   1.00
O129   O     0.47133   0.06903   0.23607   0.00000  Uiso   1.00
O130   O     0.53771   0.25527   0.21806   0.00000  Uiso   1.00
Zn131  Zn    0.52577   0.14090   0.28277   0.00000  Uiso   1.00
Zn132  Zn    0.46792   0.12378   0.22258   0.00000  Uiso   1.00
Zn133  Zn    0.54500   0.19664   0.21188   0.00000  Uiso   1.00
Zn134  Zn    0.46131   0.20535   0.28277   0.00000  Uiso   1.00
C135   C     0.71945   0.16022   0.25884   0.00000  Uiso   1.00
C136   C     0.86473   0.13101   0.46017   0.00000  Uiso   1.00
C137   C     0.89209   0.11921   0.47897   0.00000  Uiso   1.00
C138   C     0.94769   0.17337   0.24118   0.00000  Uiso   1.00
C139   C     0.88556   0.12936   0.01928   0.00000  Uiso   1.00
C140   C     0.85051   0.15150   0.04157   0.00000  Uiso   1.00
C141   C     0.91187   0.11484   0.03806   0.00000  Uiso   1.00
C142   C     0.90244   0.12050   0.07901   0.00000  Uiso   1.00
C143   C     0.83838   0.15141   0.08289   0.00000  Uiso   1.00
C144   C     0.99362   0.17396   0.23667   0.00000  Uiso   1.00
C145   C     0.67430   0.15861   0.26351   0.00000  Uiso   1.00
C146   C     0.75737   0.20668   0.42244   0.00000  Uiso   1.00
C147   C     0.84761   0.32224   0.23820   0.00000  Uiso   1.00
C148   C     0.81823   0.01218   0.26226   0.00000  Uiso   1.00
C149   C     0.82258   0.05621   0.25897   0.00000  Uiso   1.00
C150   C     0.84353   0.27771   0.24137   0.00000  Uiso   1.00
C151   C     0.85526   0.14521   0.14404   0.00000  Uiso   1.00
C152   C     0.81104   0.18708   0.35637   0.00000  Uiso   1.00
C153   C     0.79718   0.19224   0.40011   0.00000  Uiso   1.00
C154   C     0.86493   0.13768   0.10138   0.00000  Uiso   1.00
C155   C     0.74705   0.21257   0.46413   0.00000  Uiso   1.00
C156   C     0.69047   0.19078   0.20200   0.00000  Uiso   1.00
C157   C     0.82373   0.18007   0.41960   0.00000  Uiso   1.00
C158   C     0.98016   0.14450   0.30052   0.00000  Uiso   1.00
C159   C     0.70611   0.23106   0.48872   0.00000  Uiso   1.00
C160   C     0.72710   0.21530   0.40289   0.00000  Uiso   1.00
C161   C     0.79970   0.22524   0.07831   0.00000  Uiso   1.00
C162   C     0.86497   0.10761   0.42250   0.00000  Uiso   1.00
C163   C     0.81104   0.17918   0.46065   0.00000  Uiso   1.00
C164   C     0.77525   0.20037   0.48298   0.00000  Uiso   1.00
C165   C     0.83476   0.16039   0.48018   0.00000  Uiso   1.00
C166   C     0.82756   0.17075   0.02178   0.00000  Uiso   1.00
C167   C     0.79828   0.20052   0.04159   0.00000  Uiso   1.00
C168   C     0.77012   0.21146   0.02330   0.00000  Uiso   1.00
H169   H     0.74629   0.23181   0.04042   0.00000  Uiso   1.00
H170   H     0.68730   0.20978   0.01112   0.00000  Uiso   1.00
H171   H     0.71439   0.26210   0.00373   0.00000  Uiso   1.00
H172   H     0.93951   0.09896   0.02110   0.00000  Uiso   1.00
H173   H     0.87477   0.00287   0.21611   0.00000  Uiso   1.00
H174   H     0.79065   0.33231   0.28437   0.00000  Uiso   1.00
H175   H     0.80811   0.16120   0.10140   0.00000  Uiso   1.00
H176   H     0.92349   0.11025   0.09329   0.00000  Uiso   1.00
H177   H     0.91644   0.09886   0.46270   0.00000  Uiso   1.00
H178   H     0.85541   0.17288   0.40221   0.00000  Uiso   1.00
H179   H     0.68451   0.23580   0.47147   0.00000  Uiso   1.00
N180   N     0.71453   0.20415   0.17437   0.00000  Uiso   1.00
N181   N     0.95843   0.13326   0.33012   0.00000  Uiso   1.00
N182   N     0.70288   0.22213   0.38732   0.00000  Uiso   1.00
N183   N     0.80084   0.24525   0.10757   0.00000  Uiso   1.00
N184   N     0.86519   0.08867   0.39245   0.00000  Uiso   1.00
O185   O     0.83333   0.16667   0.25000   0.00000  Uiso   1.00
O186   O     0.82360   0.12393   0.16625   0.00000  Uiso   1.00
O187   O     0.79354   0.20646   0.33749   0.00000  Uiso   1.00
O188   O     0.87755   0.17493   0.15877   0.00000  Uiso   1.00
O189   O     0.83865   0.16135   0.33749   0.00000  Uiso   1.00
O190   O     0.84515   0.08101   0.27820   0.00000  Uiso   1.00
O191   O     0.81247   0.26136   0.26767   0.00000  Uiso   1.00
O192   O     0.74119   0.13251   0.23607   0.00000  Uiso   1.00
O193   O     0.93452   0.19179   0.21806   0.00000  Uiso   1.00
O194   O     0.73656   0.18960   0.27820   0.00000  Uiso   1.00
O195   O     0.92106   0.15277   0.26767   0.00000  Uiso   1.00
O196   O     0.80467   0.06903   0.23607   0.00000  Uiso   1.00
O197   O     0.87104   0.25527   0.21806   0.00000  Uiso   1.00
Zn198  Zn    0.85910   0.14090   0.28277   0.00000  Uiso   1.00
Zn199  Zn    0.80125   0.12378   0.22258   0.00000  Uiso   1.00
Zn200  Zn    0.87833   0.19664   0.21188   0.00000  Uiso   1.00
Zn201  Zn    0.79465   0.20535   0.28277   0.00000  Uiso   1.00
C202   C     0.05278   0.49355   0.25884   0.00000  Uiso   1.00
C203   C     0.19807   0.46434   0.46017   0.00000  Uiso   1.00
C204   C     0.22543   0.45254   0.47897   0.00000  Uiso   1.00
C205   C     0.28102   0.50670   0.24118   0.00000  Uiso   1.00
C206   C     0.21889   0.46269   0.01928   0.00000  Uiso   1.00
C207   C     0.18384   0.48483   0.04157   0.00000  Uiso   1.00
C208   C     0.24520   0.44818   0.03806   0.00000  Uiso   1.00
C209   C     0.23578   0.45384   0.07901   0.00000  Uiso   1.00
C210   C     0.17171   0.48474   0.08289   0.00000  Uiso   1.00
C211   C     0.32695   0.50729   0.23667   0.00000  Uiso   1.00
C212   C     0.00763   0.49195   0.26351   0.00000  Uiso   1.00
C213   C     0.09070   0.54002   0.42244   0.00000  Uiso   1.00
C214   C     0.18095   0.65557   0.23820   0.00000  Uiso   1.00
C215   C     0.15157   0.34551   0.26226   0.00000  Uiso   1.00
C216   C     0.15591   0.38955   0.25897   0.00000  Uiso   1.00
C217   C     0.17687   0.61104   0.24137   0.00000  Uiso   1.00
C218   C     0.18859   0.47854   0.14404   0.00000  Uiso   1.00
C219   C     0.14438   0.52042   0.35637   0.00000  Uiso   1.00
C220   C     0.13051   0.52557   0.40011   0.00000  Uiso   1.00
C221   C     0.19827   0.47101   0.10138   0.00000  Uiso   1.00
C222   C     0.08038   0.54591   0.46413   0.00000  Uiso   1.00
C223   C     0.02381   0.52412   0.20200   0.00000  Uiso   1.00
C224   C     0.15706   0.51340   0.41960   0.00000  Uiso   1.00
C225   C     0.31350   0.47783   0.30052   0.00000  Uiso   1.00
C226   C     0.03944   0.56439   0.48872   0.00000  Uiso   1.00
C227   C     0.06043   0.54864   0.40289   0.00000  Uiso   1.00
C228   C     0.13303   0.55857   0.07831   0.00000  Uiso   1.00
C229   C     0.19830   0.44094   0.42250   0.00000  Uiso   1.00
C230   C     0.14437   0.51252   0.46065   0.00000  Uiso   1.00
C231   C     0.10858   0.53371   0.48298   0.00000  Uiso   1.00
C232   C     0.16809   0.49373   0.48018   0.00000  Uiso   1.00
C233   C     0.16089   0.50408   0.02178   0.00000  Uiso   1.00
C234   C     0.13162   0.53386   0.04159   0.00000  Uiso   1.00
C235   C     0.10345   0.54479   0.02330   0.00000  Uiso   1.00
H236   H     0.07963   0.56515   0.04042   0.00000  Uiso   1.00
H237   H     0.02064   0.54312   0.01112   0.00000  Uiso   1.00
H238   H     0.04772   0.59544   0.00373   0.00000  Uiso   1.00
H239   H     0.27285   0.43229   0.02110   0.00000  Uiso   1.00
H240   H     0.20810   0.33620   0.21611   0.00000  Uiso   1.00
H241   H     0.12398   0.66564   0.28437   0.00000  Uiso   1.00
H242   H     0.14144   0.49454   0.10140   0.00000  Uiso   1.00
H243   H     0.25683   0.44358   0.09329   0.00000  Uiso   1.00
H244   H     0.24977   0.43219   0.46270   0.00000  Uiso   1.00
H245   H     0.18874   0.50622   0.40221   0.00000  Uiso   1.00
H246   H     0.01784   0.56913   0.47147   0.00000  Uiso   1.00
N247   N     0.04787   0.53749   0.17437   0.00000  Uiso   1.00
N248   N     0.29176   0.46659   0.33012   0.00000  Uiso   1.00
N249   N     0.03621   0.55546   0.38732   0.00000  Uiso   1.00
N250   N     0.13418   0.57858   0.10757   0.00000  Uiso   1.00
N251   N     0.19852   0.42200   0.39245   0.00000  Uiso   1.00
O252   O     0.16667   0.50000   0.25000   0.00000  Uiso   1.00
O253   O     0.15693   0.45726   0.16625   0.00000  Uiso   1.00
O254   O     0.12687   0.53979   0.33749   0.00000  Uiso   1.00
O255   O     0.21088   0.50826   0.15877   0.00000  Uiso   1.00
O256   O     0.17198   0.49468   0.33749   0.00000  Uiso   1.00
O257   O     0.17849   0.41434   0.27820   0.00000  Uiso   1.00
O258   O     0.14581   0.59469   0.26767   0.00000  Uiso   1.00
O259   O     0.07452   0.46584   0.23607   0.00000  Uiso   1.00
O260   O     0.26785   0.52512   0.21806   0.00000  Uiso   1.00
O261   O     0.06990   0.52293   0.27820   0.00000  Uiso   1.00
O262   O     0.25440   0.48610   0.26767   0.00000  Uiso   1.00
O263   O     0.13800   0.40236   0.23607   0.00000  Uiso   1.00
O264   O     0.20437   0.58860   0.21806   0.00000  Uiso   1.00
Zn265  Zn    0.19244   0.47423   0.28277   0.00000  Uiso   1.00
Zn266  Zn    0.13459   0.45711   0.22258   0.00000  Uiso   1.00
Zn267  Zn    0.21166   0.52997   0.21188   0.00000  Uiso   1.00
Zn268  Zn    0.12798   0.53868   0.28277   0.00000  Uiso   1.00
C269   C     0.38612   0.49355   0.25884   0.00000  Uiso   1.00
C270   C     0.53140   0.46434   0.46017   0.00000  Uiso   1.00
C271   C     0.55876   0.45254   0.47897   0.00000  Uiso   1.00
C272   C     0.61436   0.50670   0.24118   0.00000  Uiso   1.00
C273   C     0.55223   0.46269   0.01928   0.00000  Uiso   1.00
C274   C     0.51717   0.48483   0.04157   0.00000  Uiso   1.00
C275   C     0.57853   0.44818   0.03806   0.00000  Uiso   1.00
C276   C     0.56911   0.45384   0.07901   0.00000  Uiso   1.00
C277   C     0.50504   0.48474   0.08289   0.00000  Uiso   1.00
C278   C     0.66029   0.50729   0.23667   0.00000  Uiso   1.00
C279   C     0.34097   0.49195   0.26351   0.00000  Uiso   1.00
C280   C     0.42403   0.54002   0.42244   0.00000  Uiso   1.00
C281   C     0.51428   0.65557   0.23820   0.00000  Uiso   1.00
C282   C     0.48490   0.34551   0.26226   0.00000  Uiso   1.00
C283   C     0.48924   0.38955   0.25897   0.00000  Uiso   1.00
C284   C     0.51020   0.61104   0.24137   0.00000  Uiso   1.00
C285   C     0.52193   0.47854   0.14404   0.00000  Uiso   1.00
C286   C     0.47771   0.52042   0.35637   0.00000  Uiso   1.00
C287   C     0.46384   0.52557   0.40011   0.00000  Uiso   1.00
C288   C     0.53160   0.47101   0.10138   0.00000  Uiso   1.00
C289   C     0.41372   0.54591   0.46413   0.00000  Uiso   1.00
C290   C     0.35714   0.52412   0.20200   0.00000  Uiso   1.00
C291   C     0.49040   0.51340   0.41960   0.00000  Uiso   1.00
C292   C     0.64683   0.47783   0.30052   0.00000  Uiso   1.00
C293   C     0.37277   0.56439   0.48872   0.00000  Uiso   1.00
C294   C     0.39377   0.54864   0.40289   0.00000  Uiso   1.00
C295   C     0.46637   0.55857   0.07831   0.00000  Uiso   1.00
C296   C     0.53164   0.44094   0.42250   0.00000  Uiso   1.00
C297   C     0.47771   0.51252   0.46065   0.00000  Uiso   1.00
C298   C     0.44191   0.53371   0.48298   0.00000  Uiso   1.00
C299   C     0.50143   0.49373   0.48018   0.00000  Uiso   1.00
C300   C     0.49423   0.50408   0.02178   0.00000  Uiso   1.00
C301   C     0.46495   0.53386   0.04159   0.00000  Uiso   1.00
C302   C     0.43679   0.54479   0.02330   0.00000  Uiso   1.00
H303   H     0.41296   0.56515   0.04042   0.00000  Uiso   1.00
H304   H     0.35397   0.54312   0.01112   0.00000  Uiso   1.00
H305   H     0.38105   0.59544   0.00373   0.00000  Uiso   1.00
H306   H     0.60618   0.43229   0.02110   0.00000  Uiso   1.00
H307   H     0.54143   0.33620   0.21611   0.00000  Uiso   1.00
H308   H     0.45732   0.66564   0.28437   0.00000  Uiso   1.00
H309   H     0.47478   0.49454   0.10140   0.00000  Uiso   1.00
H310   H     0.59016   0.44358   0.09329   0.00000  Uiso   1.00
H311   H     0.58310   0.43219   0.46270   0.00000  Uiso   1.00
H312   H     0.52208   0.50622   0.40221   0.00000  Uiso   1.00
H313   H     0.35118   0.56913   0.47147   0.00000  Uiso   1.00
N314   N     0.38120   0.53749   0.17437   0.00000  Uiso   1.00
N315   N     0.62509   0.46659   0.33012   0.00000  Uiso   1.00
N316   N     0.36954   0.55546   0.38732   0.00000  Uiso   1.00
N317   N     0.46751   0.57858   0.10757   0.00000  Uiso   1.00
N318   N     0.53185   0.42200   0.39245   0.00000  Uiso   1.00
O319   O     0.50000   0.50000   0.25000   0.00000  Uiso   1.00
O320   O     0.49027   0.45726   0.16625   0.00000  Uiso   1.00
O321   O     0.46020   0.53979   0.33749   0.00000  Uiso   1.00
O322   O     0.54421   0.50826   0.15877   0.00000  Uiso   1.00
O323   O     0.50532   0.49468   0.33749   0.00000  Uiso   1.00
O324   O     0.51182   0.41434   0.27820   0.00000  Uiso   1.00
O325   O     0.47914   0.59469   0.26767   0.00000  Uiso   1.00
O326   O     0.40785   0.46584   0.23607   0.00000  Uiso   1.00
O327   O     0.60119   0.52512   0.21806   0.00000  Uiso   1.00
O328   O     0.40323   0.52293   0.27820   0.00000  Uiso   1.00
O329   O     0.58773   0.48610   0.26767   0.00000  Uiso   1.00
O330   O     0.47133   0.40236   0.23607   0.00000  Uiso   1.00
O331   O     0.53771   0.58860   0.21806   0.00000  Uiso   1.00
Zn332  Zn    0.52577   0.47423   0.28277   0.00000  Uiso   1.00
Zn333  Zn    0.46792   0.45711   0.22258   0.00000  Uiso   1.00
Zn334  Zn    0.54500   0.52997   0.21188   0.00000  Uiso   1.00
Zn335  Zn    0.46131   0.53868   0.28277   0.00000  Uiso   1.00
C336   C     0.71945   0.49355   0.25884   0.00000  Uiso   1.00
C337   C     0.86473   0.46434   0.46017   0.00000  Uiso   1.00
C338   C     0.89209   0.45254   0.47897   0.00000  Uiso   1.00
C339   C     0.94769   0.50670   0.24118   0.00000  Uiso   1.00
C340   C     0.88556   0.46269   0.01928   0.00000  Uiso   1.00
C341   C     0.85051   0.48483   0.04157   0.00000  Uiso   1.00
C342   C     0.91187   0.44818   0.03806   0.00000  Uiso   1.00
C343   C     0.90244   0.45384   0.07901   0.00000  Uiso   1.00
C344   C     0.83838   0.48474   0.08289   0.00000  Uiso   1.00
C345   C     0.99362   0.50729   0.23667   0.00000  Uiso   1.00
C346   C     0.67430   0.49195   0.26351   0.00000  Uiso   1.00
C347   C     0.75737   0.54002   0.42244   0.00000  Uiso   1.00
C348   C     0.84761   0.65557   0.23820   0.00000  Uiso   1.00
C349   C     0.81823   0.34551   0.26226   0.00000  Uiso   1.00
C350   C     0.82258   0.38955   0.25897   0.00000  Uiso   1.00
C351   C     0.84353   0.61104   0.24137   0.00000  Uiso   1.00
C352   C     0.85526   0.47854   0.14404   0.00000  Uiso   1.00
C353   C     0.81104   0.52042   0.35637   0.00000  Uiso   1.00
C354   C     0.79718   0.52557   0.40011   0.00000  Uiso   1.00
C355   C     0.86493   0.47101   0.10138   0.00000  Uiso   1.00
C356   C     0.74705   0.54591   0.46413   0.00000  Uiso   1.00
C357   C     0.69047   0.52412   0.20200   0.00000  Uiso   1.00
C358   C     0.82373   0.51340   0.41960   0.00000  Uiso   1.00
C359   C     0.98016   0.47783   0.30052   0.00000  Uiso   1.00
C360   C     0.70611   0.56439   0.48872   0.00000  Uiso   1.00
C361   C     0.72710   0.54864   0.40289   0.00000  Uiso   1.00
C362   C     0.79970   0.55857   0.07831   0.00000  Uiso   1.00
C363   C     0.86497   0.44094   0.42250   0.00000  Uiso   1.00
C364   C     0.81104   0.51252   0.46065   0.00000  Uiso   1.00
C365   C     0.77525   0.53371   0.48298   0.00000  Uiso   1.00
C366   C     0.83476   0.49373   0.48018   0.00000  Uiso   1.00
C367   C     0.82756   0.50408   0.02178   0.00000  Uiso   1.00
C368   C     0.79828   0.53386   0.04159   0.00000  Uiso   1.00
C369   C     0.77012   0.54479   0.02330   0.00000  Uiso   1.00
H370   H     0.74629   0.56515   0.04042   0.00000  Uiso   1.00
H371   H     0.68730   0.54312   0.01112   0.00000  Uiso   1.00
H372   H     0.71439   0.59544   0.00373   0.00000  Uiso   1.00
H373   H     0.93951   0.43229   0.02110   0.00000  Uiso   1.00
H374   H     0.87477   0.33620   0.21611   0.00000  Uiso   1.00
H375   H     0.79065   0.66564   0.28437   0.00000  Uiso   1.00
H376   H     0.80811   0.49454   0.10140   0.00000  Uiso   1.00
H377   H     0.92349   0.44358   0.09329   0.00000  Uiso   1.00
H378   H     0.91644   0.43219   0.46270   0.00000  Uiso   1.00
H379   H     0.85541   0.50622   0.40221   0.00000  Uiso   1.00
H380   H     0.68451   0.56913   0.47147   0.00000  Uiso   1.00
N381   N     0.71453   0.53749   0.17437   0.00000  Uiso   1.00
N382   N     0.95843   0.46659   0.33012   0.00000  Uiso   1.00
N383   N     0.70288   0.55546   0.38732   0.00000  Uiso   1.00
N384   N     0.80084   0.57858   0.10757   0.00000  Uiso   1.00
N385   N     0.86519   0.42200   0.39245   0.00000  Uiso   1.00
O386   O     0.83333   0.50000   0.25000   0.00000  Uiso   1.00
O387   O     0.82360   0.45726   0.16625   0.00000  Uiso   1.00
O388   O     0.79354   0.53979   0.33749   0.00000  Uiso   1.00
O389   O     0.87755   0.50826   0.15877   0.00000  Uiso   1.00
O390   O     0.83865   0.49468   0.33749   0.00000  Uiso   1.00
O391   O     0.84515   0.41434   0.27820   0.00000  Uiso   1.00
O392   O     0.81247   0.59469   0.26767   0.00000  Uiso   1.00
O393   O     0.74119   0.46584   0.23607   0.00000  Uiso   1.00
O394   O     0.93452   0.52512   0.21806   0.00000  Uiso   1.00
O395   O     0.73656   0.52293   0.27820   0.00000  Uiso   1.00
O396   O     0.92106   0.48610   0.26767   0.00000  Uiso   1.00
O397   O     0.80467   0.40236   0.23607   0.00000  Uiso   1.00
O398   O     0.87104   0.58860   0.21806   0.00000  Uiso   1.00
Zn399  Zn    0.85910   0.47423   0.28277   0.00000  Uiso   1.00
Zn400  Zn    0.80125   0.45711   0.22258   0.00000  Uiso   1.00
Zn401  Zn    0.87833   0.52997   0.21188   0.00000  Uiso   1.00
Zn402  Zn    0.79465   0.53868   0.28277   0.00000  Uiso   1.00
C403   C     0.05278   0.82688   0.25884   0.00000  Uiso   1.00
C404   C     0.19807   0.79768   0.46017   0.00000  Uiso   1.00
C405   C     0.22543   0.78587   0.47897   0.00000  Uiso   1.00
C406   C     0.28102   0.84004   0.24118   0.00000  Uiso   1.00
C407   C     0.21889   0.79603   0.01928   0.00000  Uiso   1.00
C408   C     0.18384   0.81817   0.04157   0.00000  Uiso   1.00
C409   C     0.24520   0.78151   0.03806   0.00000  Uiso   1.00
C410   C     0.23578   0.78717   0.07901   0.00000  Uiso   1.00
C411   C     0.17171   0.81807   0.08289   0.00000  Uiso   1.00
C412   C     0.32695   0.84063   0.23667   0.00000  Uiso   1.00
C413   C     0.00763   0.82528   0.26351   0.00000  Uiso   1.00
C414   C     0.09070   0.87335   0.42244   0.00000  Uiso   1.00
C415   C     0.18095   0.98891   0.23820   0.00000  Uiso   1.00
C416   C     0.15157   0.67884   0.26226   0.00000  Uiso   1.00
C417   C     0.15591   0.72288   0.25897   0.00000  Uiso   1.00
C418   C     0.17687   0.94438   0.24137   0.00000  Uiso   1.00
C419   C     0.18859   0.81188   0.14404   0.00000  Uiso   1.00
C420   C     0.14438   0.85375   0.35637   0.00000  Uiso   1.00
C421   C     0.13051   0.85890   0.40011   0.00000  Uiso   1.00
C422   C     0.19827   0.80434   0.10138   0.00000  Uiso   1.00
C423   C     0.08038   0.87924   0.46413   0.00000  Uiso   1.00
C424   C     0.02381   0.85745   0.20200   0.00000  Uiso   1.00
C425   C     0.15706   0.84673   0.41960   0.00000  Uiso   1.00
C426   C     0.31350   0.81116   0.30052   0.00000  Uiso   1.00
C427   C     0.03944   0.89772   0.48872   0.00000  Uiso   1.00
C428   C     0.06043   0.88197   0.40289   0.00000  Uiso   1.00
C429   C     0.13303   0.89191   0.07831   0.00000  Uiso   1.00
C430   C     0.19830   0.77427   0.42250   0.00000  Uiso   1.00
C431   C     0.14437   0.84585   0.46065   0.00000  Uiso   1.00
C432   C     0.10858   0.86704   0.48298   0.00000  Uiso   1.00
C433   C     0.16809   0.82706   0.48018   0.00000  Uiso   1.00
C434   C     0.16089   0.83742   0.02178   0.00000  Uiso   1.00
C435   C     0.13162   0.86719   0.04159   0.00000  Uiso   1.00
C436   C     0.10345   0.87812   0.02330   0.00000  Uiso   1.00
H437   H     0.07963   0.89848   0.04042   0.00000  Uiso   1.00
H438   H     0.02064   0.87645   0.01112   0.00000  Uiso   1.00
H439   H     0.04772   0.92877   0.00373   0.00000  Uiso   1.00
H440   H     0.27285   0.76562   0.02110   0.00000  Uiso   1.00
H441   H     0.20810   0.66954   0.21611   0.00000  Uiso   1.00
H442   H     0.12398   0.99898   0.28437   0.00000  Uiso   1.00
H443   H     0.14144   0.82787   0.10140   0.00000  Uiso   1.00
H444   H     0.25683   0.77691   0.09329   0.00000  Uiso   1.00
H445   H     0.24977   0.76552   0.46270   0.00000  Uiso   1.00
H446   H     0.18874   0.83955   0.40221   0.00000  Uiso   1.00
H447   H     0.01784   0.90246   0.47147   0.00000  Uiso   1.00
N448   N     0.04787   0.87082   0.17437   0.00000  Uiso   1.00
N449   N     0.29176   0.79993   0.33012   0.00000  Uiso   1.00
N450   N     0.03621   0.88880   0.38732   0.00000  Uiso   1.00
N451   N     0.13418   0.91192   0.10757   0.00000  Uiso   1.00
N452   N     0.19852   0.75534   0.39245   0.00000  Uiso   1.00
O453   O     0.16667   0.83333   0.25000   0.00000  Uiso   1.00
O454   O     0.15693   0.79060   0.16625   0.00000  Uiso   1.00
O455   O     0.12687   0.87313   0.33749   0.00000  Uiso   1.00
O456   O     0.21088   0.84159   0.15877   0.00000  Uiso   1.00
O457   O     0.17198   0.82802   0.33749   0.00000  Uiso   1.00
O458   O     0.17849   0.74768   0.27820   0.00000  Uiso   1.00
O459   O     0.14581   0.92803   0.26767   0.00000  Uiso   1.00
O460   O     0.07452   0.79917   0.23607   0.00000  Uiso   1.00
O461   O     0.26785   0.85845   0.21806   0.00000  Uiso   1.00
O462   O     0.06990   0.85627   0.27820   0.00000  Uiso   1.00
O463   O     0.25440   0.81944   0.26767   0.00000  Uiso   1.00
O464   O     0.13800   0.73570   0.23607   0.00000  Uiso   1.00
O465   O     0.20437   0.92193   0.21806   0.00000  Uiso   1.00
Zn466  Zn    0.19244   0.80756   0.28277   0.00000  Uiso   1.00
Zn467  Zn    0.13459   0.79044   0.22258   0.00000  Uiso   1.00
Zn468  Zn    0.21166   0.86331   0.21188   0.00000  Uiso   1.00
Zn469  Zn    0.12798   0.87202   0.28277   0.00000  Uiso   1.00
C470   C     0.38612   0.82688   0.25884   0.00000  Uiso   1.00
C471   C     0.53140   0.79768   0.46017   0.00000  Uiso   1.00
C472   C     0.55876   0.78587   0.47897   0.00000  Uiso   1.00
C473   C     0.61436   0.84004   0.24118   0.00000  Uiso   1.00
C474   C     0.55223   0.79603   0.01928   0.00000  Uiso   1.00
C475   C     0.51717   0.81817   0.04157   0.00000  Uiso   1.00
C476   C     0.57853   0.78151   0.03806   0.00000  Uiso   1.00
C477   C     0.56911   0.78717   0.07901   0.00000  Uiso   1.00
C478   C     0.50504   0.81807   0.08289   0.00000  Uiso   1.00
C479   C     0.66029   0.84063   0.23667   0.00000  Uiso   1.00
C480   C     0.34097   0.82528   0.26351   0.00000  Uiso   1.00
C481   C     0.42403   0.87335   0.42244   0.00000  Uiso   1.00
C482   C     0.51428   0.98891   0.23820   0.00000  Uiso   1.00
C483   C     0.48490   0.67884   0.26226   0.00000  Uiso   1.00
C484   C     0.48924   0.72288   0.25897   0.00000  Uiso   1.00
C485   C     0.51020   0.94438   0.24137   0.00000  Uiso   1.00
C486   C     0.52193   0.81188   0.14404   0.00000  Uiso   1.00
C487   C     0.47771   0.85375   0.35637   0.00000  Uiso   1.00
C488   C     0.46384   0.85890   0.40011   0.00000  Uiso   1.00
C489   C     0.53160   0.80434   0.10138   0.00000  Uiso   1.00
C490   C     0.41372   0.87924   0.46413   0.00000  Uiso   1.00
C491   C     0.35714   0.85745   0.20200   0.00000  Uiso   1.00
C492   C     0.49040   0.84673   0.41960   0.00000  Uiso   1.00
C493   C     0.64683   0.81116   0.30052   0.00000  Uiso   1.00
C494   C     0.37277   0.89772   0.48872   0.00000  Uiso   1.00
C495   C     0.39377   0.88197   0.40289   0.00000  Uiso   1.00
C496   C     0.46637   0.89191   0.07831   0.00000  Uiso   1.00
C497   C     0.53164   0.77427   0.42250   0.00000  Uiso   1.00
C498   C     0.47771   0.84585   0.46065   0.00000  Uiso   1.00
C499   C     0.44191   0.86704   0.48298   0.00000  Uiso   1.00
C500   C     0.50143   0.82706   0.48018   0.00000  Uiso   1.00
C501   C     0.49423   0.83742   0.02178   0.00000  Uiso   1.00
C502   C     0.46495   0.86719   0.04159   0.00000  Uiso   1.00
C503   C     0.43679   0.87812   0.02330   0.00000  Uiso   1.00
H504   H     0.41296   0.89848   0.04042   0.00000  Uiso   1.00
H505   H     0.35397   0.87645   0.01112   0.00000  Uiso   1.00
H506   H     0.38105   0.92877   0.00373   0.00000  Uiso   1.00
H507   H     0.60618   0.76562   0.02110   0.00000  Uiso   1.00
H508   H     0.54143   0.66954   0.21611   0.00000  Uiso   1.00
H509   H     0.45732   0.99898   0.28437   0.00000  Uiso   1.00
H510   H     0.47478   0.82787   0.10140   0.00000  Uiso   1.00
H511   H     0.59016   0.77691   0.09329   0.00000  Uiso   1.00
H512   H     0.58310   0.76552   0.46270   0.00000  Uiso   1.00
H513   H     0.52208   0.83955   0.40221   0.00000  Uiso   1.00
H514   H     0.35118   0.90246   0.47147   0.00000  Uiso   1.00
N515   N     0.38120   0.87082   0.17437   0.00000  Uiso   1.00
N516   N     0.62509   0.79993   0.33012   0.00000  Uiso   1.00
N517   N     0.36954   0.88880   0.38732   0.00000  Uiso   1.00
N518   N     0.46751   0.91192   0.10757   0.00000  Uiso   1.00
N519   N     0.53185   0.75534   0.39245   0.00000  Uiso   1.00
O520   O     0.50000   0.83333   0.25000   0.00000  Uiso   1.00
O521   O     0.49027   0.79060   0.16625   0.00000  Uiso   1.00
O522   O     0.46020   0.87313   0.33749   0.00000  Uiso   1.00
O523   O     0.54421   0.84159   0.15877   0.00000  Uiso   1.00
O524   O     0.50532   0.82802   0.33749   0.00000  Uiso   1.00
O525   O     0.51182   0.74768   0.27820   0.00000  Uiso   1.00
O526   O     0.47914   0.92803   0.26767   0.00000  Uiso   1.00
O527   O     0.40785   0.79917   0.23607   0.00000  Uiso   1.00
O528   O     0.60119   0.85845   0.21806   0.00000  Uiso   1.00
O529   O     0.40323   0.85627   0.27820   0.00000  Uiso   1.00
O530   O     0.58773   0.81944   0.26767   0.00000  Uiso   1.00
O531   O     0.47133   0.73570   0.23607   0.00000  Uiso   1.00
O532   O     0.53771   0.92193   0.21806   0.00000  Uiso   1.00
Zn533  Zn    0.52577   0.80756   0.28277   0.00000  Uiso   1.00
Zn534  Zn    0.46792   0.79044   0.22258   0.00000  Uiso   1.00
Zn535  Zn    0.54500   0.86331   0.21188   0.00000  Uiso   1.00
Zn536  Zn    0.46131   0.87202   0.28277   0.00000  Uiso   1.00
C537   C     0.71945   0.82688   0.25884   0.00000  Uiso   1.00
C538   C     0.86473   0.79768   0.46017   0.00000  Uiso   1.00
C539   C     0.89209   0.78587   0.47897   0.00000  Uiso   1.00
C540   C     0.94769   0.84004   0.24118   0.00000  Uiso   1.00
C541   C     0.88556   0.79603   0.01928   0.00000  Uiso   1.00
C542   C     0.85051   0.81817   0.04157   0.00000  Uiso   1.00
C543   C     0.91187   0.78151   0.03806   0.00000  Uiso   1.00
C544   C     0.90244   0.78717   0.07901   0.00000  Uiso   1.00
C545   C     0.83838   0.81807   0.08289   0.00000  Uiso   1.00
C546   C     0.99362   0.84063   0.23667   0.00000  Uiso   1.00
C547   C     0.67430   0.82528   0.26351   0.00000  Uiso   1.00
C548   C     0.75737   0.87335   0.42244   0.00000  Uiso   1.00
C549   C     0.84761   0.98891   0.23820   0.00000  Uiso   1.00
C550   C     0.81823   0.67884   0.26226   0.00000  Uiso   1.00
C551   C     0.82258   0.72288   0.25897   0.00000  Uiso   1.00
C552   C     0.84353   0.94438   0.24137   0.00000  Uiso   1.00
C553   C     0.85526   0.81188   0.14404   0.00000  Uiso   1.00
C554   C     0.81104   0.85375   0.35637   0.00000  Uiso   1.00
C555   C     0.79718   0.85890   0.40011   0.00000  Uiso   1.00
C556   C     0.86493   0.80434   0.10138   0.00000  Uiso   1.00
C557   C     0.74705   0.87924   0.46413   0.00000  Uiso   1.00
C558   C     0.69047   0.85745   0.20200   0.00000  Uiso   1.00
C559   C     0.82373   0.84673   0.41960   0.00000  Uiso   1.00
C560   C     0.98016   0.81116   0.30052   0.00000  Uiso   1.00
C561   C     0.70611   0.89772   0.48872   0.00000  Uiso   1.00
C562   C     0.72710   0.88197   0.40289   0.00000  Uiso   1.00
C563   C     0.79970   0.89191   0.07831   0.00000  Uiso   1.00
C564   C     0.86497   0.77427   0.42250   0.00000  Uiso   1.00
C565   C     0.81104   0.84585   0.46065   0.00000  Uiso   1.00
C566   C     0.77525   0.86704   0.48298   0.00000  Uiso   1.00
C567   C     0.83476   0.82706   0.48018   0.00000  Uiso   1.00
C568   C     0.82756   0.83742   0.02178   0.00000  Uiso   1.00
C569   C     0.79828   0.86719   0.04159   0.00000  Uiso   1.00
C570   C     0.77012   0.87812   0.02330   0.00000  Uiso   1.00
H571   H     0.74629   0.89848   0.04042   0.00000  Uiso   1.00
H572   H     0.68730   0.87645   0.01112   0.00000  Uiso   1.00
H573   H     0.71439   0.92877   0.00373   0.00000  Uiso   1.00
H574   H     0.93951   0.76562   0.02110   0.00000  Uiso   1.00
H575   H     0.87477   0.66954   0.21611   0.00000  Uiso   1.00
H576   H     0.79065   0.99898   0.28437   0.00000  Uiso   1.00
H577   H     0.80811   0.82787   0.10140   0.00000  Uiso   1.00
H578   H     0.92349   0.77691   0.09329   0.00000  Uiso   1.00
H579   H     0.91644   0.76552   0.46270   0.00000  Uiso   1.00
H580   H     0.85541   0.83955   0.40221   0.00000  Uiso   1.00
H581   H     0.68451   0.90246   0.47147   0.00000  Uiso   1.00
N582   N     0.71453   0.87082   0.17437   0.00000  Uiso   1.00
N583   N     0.95843   0.79993   0.33012   0.00000  Uiso   1.00
N584   N     0.70288   0.88880   0.38732   0.00000  Uiso   1.00
N585   N     0.80084   0.91192   0.10757   0.00000  Uiso   1.00
N586   N     0.86519   0.75534   0.39245   0.00000  Uiso   1.00
O587   O     0.83333   0.83333   0.25000   0.00000  Uiso   1.00
O588   O     0.82360   0.79060   0.16625   0.00000  Uiso   1.00
O589   O     0.79354   0.87313   0.33749   0.00000  Uiso   1.00
O590   O     0.87755   0.84159   0.15877   0.00000  Uiso   1.00
O591   O     0.83865   0.82802   0.33749   0.00000  Uiso   1.00
O592   O     0.84515   0.74768   0.27820   0.00000  Uiso   1.00
O593   O     0.81247   0.92803   0.26767   0.00000  Uiso   1.00
O594   O     0.74119   0.79917   0.23607   0.00000  Uiso   1.00
O595   O     0.93452   0.85845   0.21806   0.00000  Uiso   1.00
O596   O     0.73656   0.85627   0.27820   0.00000  Uiso   1.00
O597   O     0.92106   0.81944   0.26767   0.00000  Uiso   1.00
O598   O     0.80467   0.73570   0.23607   0.00000  Uiso   1.00
O599   O     0.87104   0.92193   0.21806   0.00000  Uiso   1.00
Zn600  Zn    0.85910   0.80756   0.28277   0.00000  Uiso   1.00
Zn601  Zn    0.80125   0.79044   0.22258   0.00000  Uiso   1.00
Zn602  Zn    0.87833   0.86331   0.21188   0.00000  Uiso   1.00
Zn603  Zn    0.79465   0.87202   0.28277   0.00000  Uiso   1.00
C604   C     0.05278   0.16022   0.75884   0.00000  Uiso   1.00
C605   C     0.19807   0.13101   0.96017   0.00000  Uiso   1.00
C606   C     0.22543   0.11921   0.97897   0.00000  Uiso   1.00
C607   C     0.28102   0.17337   0.74118   0.00000  Uiso   1.00
C608   C     0.21889   0.12936   0.51928   0.00000  Uiso   1.00
C609   C     0.18384   0.15150   0.54157   0.00000  Uiso   1.00
C610   C     0.24520   0.11484   0.53806   0.00000  Uiso   1.00
C611   C     0.23578   0.12050   0.57901   0.00000  Uiso   1.00
C612   C     0.17171   0.15141   0.58289   0.00000  Uiso   1.00
C613   C     0.32695   0.17396   0.73667   0.00000  Uiso   1.00
C614   C     0.00763   0.15861   0.76351   0.00000  Uiso   1.00
C615   C     0.09070   0.20668   0.92244   0.00000  Uiso   1.00
C616   C     0.18095   0.32224   0.73820   0.00000  Uiso   1.00
C617   C     0.15157   0.01218   0.76226   0.00000  Uiso   1.00
C618   C     0.15591   0.05621   0.75897   0.00000  Uiso   1.00
C619   C     0.17687   0.27771   0.74137   0.00000  Uiso   1.00
C620   C     0.18859   0.14521   0.64404   0.00000  Uiso   1.00
C621   C     0.14438   0.18708   0.85637   0.00000  Uiso   1.00
C622   C     0.13051   0.19224   0.90011   0.00000  Uiso   1.00
C623   C     0.19827   0.13768   0.60138   0.00000  Uiso   1.00
C624   C     0.08038   0.21257   0.96413   0.00000  Uiso   1.00
C625   C     0.02381   0.19078   0.70200   0.00000  Uiso   1.00
C626   C     0.15706   0.18007   0.91960   0.00000  Uiso   1.00
C627   C     0.31350   0.14450   0.80052   0.00000  Uiso   1.00
C628   C     0.03944   0.23106   0.98872   0.00000  Uiso   1.00
C629   C     0.06043   0.21530   0.90289   0.00000  Uiso   1.00
C630   C     0.13303   0.22524   0.57831   0.00000  Uiso   1.00
C631   C     0.19830   0.10761   0.92250   0.00000  Uiso   1.00
C632   C     0.14437   0.17918   0.96065   0.00000  Uiso   1.00
C633   C     0.10858   0.20037   0.98298   0.00000  Uiso   1.00
C634   C     0.16809   0.16039   0.98018   0.00000  Uiso   1.00
C635   C     0.16089   0.17075   0.52178   0.00000  Uiso   1.00
C636   C     0.13162   0.20052   0.54159   0.00000  Uiso   1.00
C637   C     0.10345   0.21146   0.52330   0.00000  Uiso   1.00
H638   H     0.07963   0.23181   0.54042   0.00000  Uiso   1.00
H639   H     0.02064   0.20978   0.51112   0.00000  Uiso   1.00
H640   H     0.04772   0.26210   0.50373   0.00000  Uiso   1.00
H641   H     0.27285   0.09896   0.52110   0.00000  Uiso   1.00
H642   H     0.20810   0.00287   0.71611   0.00000  Uiso   1.00
H643   H     0.12398   0.33231   0.78437   0.00000  Uiso   1.00
H644   H     0.14144   0.16120   0.60140   0.00000  Uiso   1.00
H645   H     0.25683   0.11025   0.59329   0.00000  Uiso   1.00
H646   H     0.24977   0.09886   0.96270   0.00000  Uiso   1.00
H647   H     0.18874   0.17288   0.90221   0.00000  Uiso   1.00
H648   H     0.01784   0.23580   0.97147   0.00000  Uiso   1.00
N649   N     0.04787   0.20415   0.67437   0.00000  Uiso   1.00
N650   N     0.29176   0.13326   0.83012   0.00000  Uiso   1.00
N651   N     0.03621   0.22213   0.88732   0.00000  Uiso   1.00
N652   N     0.13418   0.24525   0.60757   0.00000  Uiso   1.00
N653   N     0.19852   0.08867   0.89245   0.00000  Uiso   1.00
O654   O     0.16667   0.16667   0.75000   0.00000  Uiso   1.00
O655   O     0.15693   0.12393   0.66625   0.00000  Uiso   1.00
O656   O     0.12687   0.20646   0.83749   0.00000  Uiso   1.00
O657   O     0.21088   0.17493   0.65877   0.00000  Uiso   1.00
O658   O     0.17198   0.16135   0.83749   0.00000  Uiso   1.00
O659   O     0.17849   0.08101   0.77820   0.00000  Uiso   1.00
O660   O     0.14581   0.26136   0.76767   0.00000  Uiso   1.00
O661   O     0.07452   0.13251   0.73607   0.00000  Uiso   1.00
O662   O     0.26785   0.19179   0.71806   0.00000  Uiso   1.00
O663   O     0.06990   0.18960   0.77820   0.00000  Uiso   1.00
O664   O     0.25440   0.15277   0.76767   0.00000  Uiso   1.00
O665   O     0.13800   0.06903   0.73607   0.00000  Uiso   1.00
O666   O     0.20437   0.25527   0.71806   0.00000  Uiso   1.00
Zn667  Zn    0.19244   0.14090   0.78277   0.00000  Uiso   1.00
Zn668  Zn    0.13459   0.12378   0.72258   0.00000  Uiso   1.00
Zn669  Zn    0.21166   0.19664   0.71188   0.00000  Uiso   1.00
Zn670  Zn    0.12798   0.20535   0.78277   0.00000  Uiso   1.00
C671   C     0.38612   0.16022   0.75884   0.00000  Uiso   1.00
C672   C     0.53140   0.13101   0.96017   0.00000  Uiso   1.00
C673   C     0.55876   0.11921   0.97897   0.00000  Uiso   1.00
C674   C     0.61436   0.17337   0.74118   0.00000  Uiso   1.00
C675   C     0.55223   0.12936   0.51928   0.00000  Uiso   1.00
C676   C     0.51717   0.15150   0.54157   0.00000  Uiso   1.00
C677   C     0.57853   0.11484   0.53806   0.00000  Uiso   1.00
C678   C     0.56911   0.12050   0.57901   0.00000  Uiso   1.00
C679   C     0.50504   0.15141   0.58289   0.00000  Uiso   1.00
C680   C     0.66029   0.17396   0.73667   0.00000  Uiso   1.00
C681   C     0.34097   0.15861   0.76351   0.00000  Uiso   1.00
C682   C     0.42403   0.20668   0.92244   0.00000  Uiso   1.00
C683   C     0.51428   0.32224   0.73820   0.00000  Uiso   1.00
C684   C     0.48490   0.01218   0.76226   0.00000  Uiso   1.00
C685   C     0.48924   0.05621   0.75897   0.00000  Uiso   1.00
C686   C     0.51020   0.27771   0.74137   0.00000  Uiso   1.00
C687   C     0.52193   0.14521   0.64404   0.00000  Uiso   1.00
C688   C     0.47771   0.18708   0.85637   0.00000  Uiso   1.00
C689   C     0.46384   0.19224   0.90011   0.00000  Uiso   1.00
C690   C     0.53160   0.13768   0.60138   0.00000  Uiso   1.00
C691   C     0.41372   0.21257   0.96413   0.00000  Uiso   1.00
C692   C     0.35714   0.19078   0.70200   0.00000  Uiso   1.00
C693   C     0.49040   0.18007   0.91960   0.00000  Uiso   1.00
C694   C     0.64683   0.14450   0.80052   0.00000  Uiso   1.00
C695   C     0.37277   0.23106   0.98872   0.00000  Uiso   1.00
C696   C     0.39377   0.21530   0.90289   0.00000  Uiso   1.00
C697   C     0.46637   0.22524   0.57831   0.00000  Uiso   1.00
C698   C     0.53164   0.10761   0.92250   0.00000  Uiso   1.00
C699   C     0.47771   0.17918   0.96065   0.00000  Uiso   1.00
C700   C     0.44191   0.20037   0.98298   0.00000  Uiso   1.00
C701   C     0.50143   0.16039   0.98018   0.00000  Uiso   1.00
C702   C     0.49423   0.17075   0.52178   0.00000  Uiso   1.00
C703   C     0.46495   0.20052   0.54159   0.00000  Uiso   1.00
C704   C     0.43679   0.21146   0.52330   0.00000  Uiso   1.00
H705   H     0.41296   0.23181   0.54042   0.00000  Uiso   1.00
H706   H     0.35397   0.20978   0.51112   0.00000  Uiso   1.00
H707   H     0.38105   0.26210   0.50373   0.00000  Uiso   1.00
H708   H     0.60618   0.09896   0.52110   0.00000  Uiso   1.00
H709   H     0.54143   0.00287   0.71611   0.00000  Uiso   1.00
H710   H     0.45732   0.33231   0.78437   0.00000  Uiso   1.00
H711   H     0.47478   0.16120   0.60140   0.00000  Uiso   1.00
H712   H     0.59016   0.11025   0.59329   0.00000  Uiso   1.00
H713   H     0.58310   0.09886   0.96270   0.00000  Uiso   1.00
H714   H     0.52208   0.17288   0.90221   0.00000  Uiso   1.00
H715   H     0.35118   0.23580   0.97147   0.00000  Uiso   1.00
N716   N     0.38120   0.20415   0.67437   0.00000  Uiso   1.00
N717   N     0.62509   0.13326   0.83012   0.00000  Uiso   1.00
N718   N     0.36954   0.22213   0.88732   0.00000  Uiso   1.00
N719   N     0.46751   0.24525   0.60757   0.00000  Uiso   1.00
N720   N     0.53185   0.08867   0.89245   0.00000  Uiso   1.00
O721   O     0.50000   0.16667   0.75000   0.00000  Uiso   1.00
O722   O     0.49027   0.12393   0.66625   0.00000  Uiso   1.00
O723   O     0.46020   0.20646   0.83749   0.00000  Uiso   1.00
O724   O     0.54421   0.17493   0.65877   0.00000  Uiso   1.00
O725   O     0.50532   0.16135   0.83749   0.00000  Uiso   1.00
O726   O     0.51182   0.08101   0.77820   0.00000  Uiso   1.00
O727   O     0.47914   0.26136   0.76767   0.00000  Uiso   1.00
O728   O     0.40785   0.13251   0.73607   0.00000  Uiso   1.00
O729   O     0.60119   0.19179   0.71806   0.00000  Uiso   1.00
O730   O     0.40323   0.18960   0.77820   0.00000  Uiso   1.00
O731   O     0.58773   0.15277   0.76767   0.00000  Uiso   1.00
O732   O     0.47133   0.06903   0.73607   0.00000  Uiso   1.00
O733   O     0.53771   0.25527   0.71806   0.00000  Uiso   1.00
Zn734  Zn    0.52577   0.14090   0.78277   0.00000  Uiso   1.00
Zn735  Zn    0.46792   0.12378   0.72258   0.00000  Uiso   1.00
Zn736  Zn    0.54500   0.19664   0.71188   0.00000  Uiso   1.00
Zn737  Zn    0.46131   0.20535   0.78277   0.00000  Uiso   1.00
C738   C     0.71945   0.16022   0.75884   0.00000  Uiso   1.00
C739   C     0.86473   0.13101   0.96017   0.00000  Uiso   1.00
C740   C     0.89209   0.11921   0.97897   0.00000  Uiso   1.00
C741   C     0.94769   0.17337   0.74118   0.00000  Uiso   1.00
C742   C     0.88556   0.12936   0.51928   0.00000  Uiso   1.00
C743   C     0.85051   0.15150   0.54157   0.00000  Uiso   1.00
C744   C     0.91187   0.11484   0.53806   0.00000  Uiso   1.00
C745   C     0.90244   0.12050   0.57901   0.00000  Uiso   1.00
C746   C     0.83838   0.15141   0.58289   0.00000  Uiso   1.00
C747   C     0.99362   0.17396   0.73667   0.00000  Uiso   1.00
C748   C     0.67430   0.15861   0.76351   0.00000  Uiso   1.00
C749   C     0.75737   0.20668   0.92244   0.00000  Uiso   1.00
C750   C     0.84761   0.32224   0.73820   0.00000  Uiso   1.00
C751   C     0.81823   0.01218   0.76226   0.00000  Uiso   1.00
C752   C     0.82258   0.05621   0.75897   0.00000  Uiso   1.00
C753   C     0.84353   0.27771   0.74137   0.00000  Uiso   1.00
C754   C     0.85526   0.14521   0.64404   0.00000  Uiso   1.00
C755   C     0.81104   0.18708   0.85637   0.00000  Uiso   1.00
C756   C     0.79718   0.19224   0.90011   0.00000  Uiso   1.00
C757   C     0.86493   0.13768   0.60138   0.00000  Uiso   1.00
C758   C     0.74705   0.21257   0.96413   0.00000  Uiso   1.00
C759   C     0.69047   0.19078   0.70200   0.00000  Uiso   1.00
C760   C     0.82373   0.18007   0.91960   0.00000  Uiso   1.00
C761   C     0.98016   0.14450   0.80052   0.00000  Uiso   1.00
C762   C     0.70611   0.23106   0.98872   0.00000  Uiso   1.00
C763   C     0.72710   0.21530   0.90289   0.00000  Uiso   1.00
C764   C     0.79970   0.22524   0.57831   0.00000  Uiso   1.00
C765   C     0.86497   0.10761   0.92250   0.00000  Uiso   1.00
C766   C     0.81104   0.17918   0.96065   0.00000  Uiso   1.00
C767   C     0.77525   0.20037   0.98298   0.00000  Uiso   1.00
C768   C     0.83476   0.16039   0.98018   0.00000  Uiso   1.00
C769   C     0.82756   0.17075   0.52178   0.00000  Uiso   1.00
C770   C     0.79828   0.20052   0.54159   0.00000  Uiso   1.00
C771   C     0.77012   0.21146   0.52330   0.00000  Uiso   1.00
H772   H     0.74629   0.23181   0.54042   0.00000  Uiso   1.00
H773   H     0.68730   0.20978   0.51112   0.00000  Uiso   1.00
H774   H     0.71439   0.26210   0.50373   0.00000  Uiso   1.00
H775   H     0.93951   0.09896   0.52110   0.00000  Uiso   1.00
H776   H     0.87477   0.00287   0.71611   0.00000  Uiso   1.00
H777   H     0.79065   0.33231   0.78437   0.00000  Uiso   1.00
H778   H     0.80811   0.16120   0.60140   0.00000  Uiso   1.00
H779   H     0.92349   0.11025   0.59329   0.00000  Uiso   1.00
H780   H     0.91644   0.09886   0.96270   0.00000  Uiso   1.00
H781   H     0.85541   0.17288   0.90221   0.00000  Uiso   1.00
H782   H     0.68451   0.23580   0.97147   0.00000  Uiso   1.00
N783   N     0.71453   0.20415   0.67437   0.00000  Uiso   1.00
N784   N     0.95843   0.13326   0.83012   0.00000  Uiso   1.00
N785   N     0.70288   0.22213   0.88732   0.00000  Uiso   1.00
N786   N     0.80084   0.24525   0.60757   0.00000  Uiso   1.00
N787   N     0.86519   0.08867   0.89245   0.00000  Uiso   1.00
O788   O     0.83333   0.16667   0.75000   0.00000  Uiso   1.00
O789   O     0.82360   0.12393   0.66625   0.00000  Uiso   1.00
O790   O     0.79354   0.20646   0.83749   0.00000  Uiso   1.00
O791   O     0.87755   0.17493   0.65877   0.00000  Uiso   1.00
O792   O     0.83865   0.16135   0.83749   0.00000  Uiso   1.00
O793   O     0.84515   0.08101   0.77820   0.00000  Uiso   1.00
O794   O     0.81247   0.26136   0.76767   0.00000  Uiso   1.00
O795   O     0.74119   0.13251   0.73607   0.00000  Uiso   1.00
O796   O     0.93452   0.19179   0.71806   0.00000  Uiso   1.00
O797   O     0.73656   0.18960   0.77820   0.00000  Uiso   1.00
O798   O     0.92106   0.15277   0.76767   0.00000  Uiso   1.00
O799   O     0.80467   0.06903   0.73607   0.00000  Uiso   1.00
O800   O     0.87104   0.25527   0.71806   0.00000  Uiso   1.00
Zn801  Zn    0.85910   0.14090   0.78277   0.00000  Uiso   1.00
Zn802  Zn    0.80125   0.12378   0.72258   0.00000  Uiso   1.00
Zn803  Zn    0.87833   0.19664   0.71188   0.00000  Uiso   1.00
Zn804  Zn    0.79465   0.20535   0.78277   0.00000  Uiso   1.00
C805   C     0.05278   0.49355   0.75884   0.00000  Uiso   1.00
C806   C     0.19807   0.46434   0.96017   0.00000  Uiso   1.00
C807   C     0.22543   0.45254   0.97897   0.00000  Uiso   1.00
C808   C     0.28102   0.50670   0.74118   0.00000  Uiso   1.00
C809   C     0.21889   0.46269   0.51928   0.00000  Uiso   1.00
C810   C     0.18384   0.48483   0.54157   0.00000  Uiso   1.00
C811   C     0.24520   0.44818   0.53806   0.00000  Uiso   1.00
C812   C     0.23578   0.45384   0.57901   0.00000  Uiso   1.00
C813   C     0.17171   0.48474   0.58289   0.00000  Uiso   1.00
C814   C     0.32695   0.50729   0.73667   0.00000  Uiso   1.00
C815   C     0.00763   0.49195   0.76351   0.00000  Uiso   1.00
C816   C     0.09070   0.54002   0.92244   0.00000  Uiso   1.00
C817   C     0.18095   0.65557   0.73820   0.00000  Uiso   1.00
C818   C     0.15157   0.34551   0.76226   0.00000  Uiso   1.00
C819   C     0.15591   0.38955   0.75897   0.00000  Uiso   1.00
C820   C     0.17687   0.61104   0.74137   0.00000  Uiso   1.00
C821   C     0.18859   0.47854   0.64404   0.00000  Uiso   1.00
C822   C     0.14438   0.52042   0.85637   0.00000  Uiso   1.00
C823   C     0.13051   0.52557   0.90011   0.00000  Uiso   1.00
C824   C     0.19827   0.47101   0.60138   0.00000  Uiso   1.00
C825   C     0.08038   0.54591   0.96413   0.00000  Uiso   1.00
C826   C     0.02381   0.52412   0.70200   0.00000  Uiso   1.00
C827   C     0.15706   0.51340   0.91960   0.00000  Uiso   1.00
C828   C     0.31350   0.47783   0.80052   0.00000  Uiso   1.00
C829   C     0.03944   0.56439   0.98872   0.00000  Uiso   1.00
C830   C     0.06043   0.54864   0.90289   0.00000  Uiso   1.00
C831   C     0.13303   0.55857   0.57831   0.00000  Uiso   1.00
C832   C     0.19830   0.44094   0.92250   0.00000  Uiso   1.00
C833   C     0.14437   0.51252   0.96065   0.00000  Uiso   1.00
C834   C     0.10858   0.53371   0.98298   0.00000  Uiso   1.00
C835   C     0.16809   0.49373   0.98018   0.00000  Uiso   1.00
C836   C     0.16089   0.50408   0.52178   0.00000  Uiso   1.00
C837   C     0.13162   0.53386   0.54159   0.00000  Uiso   1.00
C838   C     0.10345   0.54479   0.52330   0.00000  Uiso   1.00
H839   H     0.07963   0.56515   0.54042   0.00000  Uiso   1.00
H840   H     0.02064   0.54312   0.51112   0.00000  Uiso   1.00
H841   H     0.04772   0.59544   0.50373   0.00000  Uiso   1.00
H842   H     0.27285   0.43229   0.52110   0.00000  Uiso   1.00
H843   H     0.20810   0.33620   0.71611   0.00000  Uiso   1.00
H844   H     0.12398   0.66564   0.78437   0.00000  Uiso   1.00
H845   H     0.14144   0.49454   0.60140   0.00000  Uiso   1.00
H846   H     0.25683   0.44358   0.59329   0.00000  Uiso   1.00
H847   H     0.24977   0.43219   0.96270   0.00000  Uiso   1.00
H848   H     0.18874   0.50622   0.90221   0.00000  Uiso   1.00
H849   H     0.01784   0.56913   0.97147   0.00000  Uiso   1.00
N850   N     0.04787   0.53749   0.67437   0.00000  Uiso   1.00
N851   N     0.29176   0.46659   0.83012   0.00000  Uiso   1.00
N852   N     0.03621   0.55546   0.88732   0.00000  Uiso   1.00
N853   N     0.13418   0.57858   0.60757   0.00000  Uiso   1.00
N854   N     0.19852   0.42200   0.89245   0.00000  Uiso   1.00
O855   O     0.16667   0.50000   0.75000   0.00000  Uiso   1.00
O856   O     0.15693   0.45726   0.66625   0.00000  Uiso   1.00
O857   O     0.12687   0.53979   0.83749   0.00000  Uiso   1.00
O858   O     0.21088   0.50826   0.65877   0.00000  Uiso   1.00
O859   O     0.17198   0.49468   0.83749   0.00000  Uiso   1.00
O860   O     0.17849   0.41434   0.77820   0.00000  Uiso   1.00
O861   O     0.14581   0.59469   0.76767   0.00000  Uiso   1.00
O862   O     0.07452   0.46584   0.73607   0.00000  Uiso   1.00
O863   O     0.26785   0.52512   0.71806   0.00000  Uiso   1.00
O864   O     0.06990   0.52293   0.77820   0.00000  Uiso   1.00
O865   O     0.25440   0.48610   0.76767   0.00000  Uiso   1.00
O866   O     0.13800   0.40236   0.73607   0.00000  Uiso   1.00
O867   O     0.20437   0.58860   0.71806   0.00000  Uiso   1.00
Zn868  Zn    0.19244   0.47423   0.78277   0.00000  Uiso   1.00
Zn869  Zn    0.13459   0.45711   0.72258   0.00000  Uiso   1.00
Zn870  Zn    0.21166   0.52997   0.71188   0.00000  Uiso   1.00
Zn871  Zn    0.12798   0.53868   0.78277   0.00000  Uiso   1.00
C872   C     0.38612   0.49355   0.75884   0.00000  Uiso   1.00
C873   C     0.53140   0.46434   0.96017   0.00000  Uiso   1.00
C874   C     0.55876   0.45254   0.97897   0.00000  Uiso   1.00
C875   C     0.61436   0.50670   0.74118   0.00000  Uiso   1.00
C876   C     0.55223   0.46269   0.51928   0.00000  Uiso   1.00
C877   C     0.51717   0.48483   0.54157   0.00000  Uiso   1.00
C878   C     0.57853   0.44818   0.53806   0.00000  Uiso   1.00
C879   C     0.56911   0.45384   0.57901   0.00000  Uiso   1.00
C880   C     0.50504   0.48474   0.58289   0.00000  Uiso   1.00
C881   C     0.66029   0.50729   0.73667   0.00000  Uiso   1.00
C882   C     0.34097   0.49195   0.76351   0.00000  Uiso   1.00
C883   C     0.42403   0.54002   0.92244   0.00000  Uiso   1.00
C884   C     0.51428   0.65557   0.73820   0.00000  Uiso   1.00
C885   C     0.48490   0.34551   0.76226   0.00000  Uiso   1.00
C886   C     0.48924   0.38955   0.75897   0.00000  Uiso   1.00
C887   C     0.51020   0.61104   0.74137   0.00000  Uiso   1.00
C888   C     0.52193   0.47854   0.64404   0.00000  Uiso   1.00
C889   C     0.47771   0.52042   0.85637   0.00000  Uiso   1.00
C890   C     0.46384   0.52557   0.90011   0.00000  Uiso   1.00
C891   C     0.53160   0.47101   0.60138   0.00000  Uiso   1.00
C892   C     0.41372   0.54591   0.96413   0.00000  Uiso   1.00
C893   C     0.35714   0.52412   0.70200   0.00000  Uiso   1.00
C894   C     0.49040   0.51340   0.91960   0.00000  Uiso   1.00
C895   C     0.64683   0.47783   0.80052   0.00000  Uiso   1.00
C896   C     0.37277   0.56439   0.98872   0.00000  Uiso   1.00
C897   C     0.39377   0.54864   0.90289   0.00000  Uiso   1.00
C898   C     0.46637   0.55857   0.57831   0.00000  Uiso   1.00
C899   C     0.53164   0.44094   0.92250   0.00000  Uiso   1.00
C900   C     0.47771   0.51252   0.96065   0.00000  Uiso   1.00
C901   C     0.44191   0.53371   0.98298   0.00000  Uiso   1.00
C902   C     0.50143   0.49373   0.98018   0.00000  Uiso   1.00
C903   C     0.49423   0.50408   0.52178   0.00000  Uiso   1.00
C904   C     0.46495   0.53386   0.54159   0.00000  Uiso   1.00
C905   C     0.43679   0.54479   0.52330   0.00000  Uiso   1.00
H906   H     0.41296   0.56515   0.54042   0.00000  Uiso   1.00
H907   H     0.35397   0.54312   0.51112   0.00000  Uiso   1.00
H908   H     0.38105   0.59544   0.50373   0.00000  Uiso   1.00
H909   H     0.60618   0.43229   0.52110   0.00000  Uiso   1.00
H910   H     0.54143   0.33620   0.71611   0.00000  Uiso   1.00
H911   H     0.45732   0.66564   0.78437   0.00000  Uiso   1.00
H912   H     0.47478   0.49454   0.60140   0.00000  Uiso   1.00
H913   H     0.59016   0.44358   0.59329   0.00000  Uiso   1.00
H914   H     0.58310   0.43219   0.96270   0.00000  Uiso   1.00
H915   H     0.52208   0.50622   0.90221   0.00000  Uiso   1.00
H916   H     0.35118   0.56913   0.97147   0.00000  Uiso   1.00
N917   N     0.38120   0.53749   0.67437   0.00000  Uiso   1.00
N918   N     0.62509   0.46659   0.83012   0.00000  Uiso   1.00
N919   N     0.36954   0.55546   0.88732   0.00000  Uiso   1.00
N920   N     0.46751   0.57858   0.60757   0.00000  Uiso   1.00
N921   N     0.53185   0.42200   0.89245   0.00000  Uiso   1.00
O922   O     0.50000   0.50000   0.75000   0.00000  Uiso   1.00
O923   O     0.49027   0.45726   0.66625   0.00000  Uiso   1.00
O924   O     0.46020   0.53979   0.83749   0.00000  Uiso   1.00
O925   O     0.54421   0.50826   0.65877   0.00000  Uiso   1.00
O926   O     0.50532   0.49468   0.83749   0.00000  Uiso   1.00
O927   O     0.51182   0.41434   0.77820   0.00000  Uiso   1.00
O928   O     0.47914   0.59469   0.76767   0.00000  Uiso   1.00
O929   O     0.40785   0.46584   0.73607   0.00000  Uiso   1.00
O930   O     0.60119   0.52512   0.71806   0.00000  Uiso   1.00
O931   O     0.40323   0.52293   0.77820   0.00000  Uiso   1.00
O932   O     0.58773   0.48610   0.76767   0.00000  Uiso   1.00
O933   O     0.47133   0.40236   0.73607   0.00000  Uiso   1.00
O934   O     0.53771   0.58860   0.71806   0.00000  Uiso   1.00
Zn935  Zn    0.52577   0.47423   0.78277   0.00000  Uiso   1.00
Zn936  Zn    0.46792   0.45711   0.72258   0.00000  Uiso   1.00
Zn937  Zn    0.54500   0.52997   0.71188   0.00000  Uiso   1.00
Zn938  Zn    0.46131   0.53868   0.78277   0.00000  Uiso   1.00
C939   C     0.71945   0.49355   0.75884   0.00000  Uiso   1.00
C940   C     0.86473   0.46434   0.96017   0.00000  Uiso   1.00
C941   C     0.89209   0.45254   0.97897   0.00000  Uiso   1.00
C942   C     0.94769   0.50670   0.74118   0.00000  Uiso   1.00
C943   C     0.88556   0.46269   0.51928   0.00000  Uiso   1.00
C944   C     0.85051   0.48483   0.54157   0.00000  Uiso   1.00
C945   C     0.91187   0.44818   0.53806   0.00000  Uiso   1.00
C946   C     0.90244   0.45384   0.57901   0.00000  Uiso   1.00
C947   C     0.83838   0.48474   0.58289   0.00000  Uiso   1.00
C948   C     0.99362   0.50729   0.73667   0.00000  Uiso   1.00
C949   C     0.67430   0.49195   0.76351   0.00000  Uiso   1.00
C950   C     0.75737   0.54002   0.92244   0.00000  Uiso   1.00
C951   C     0.84761   0.65557   0.73820   0.00000  Uiso   1.00
C952   C     0.81823   0.34551   0.76226   0.00000  Uiso   1.00
C953   C     0.82258   0.38955   0.75897   0.00000  Uiso   1.00
C954   C     0.84353   0.61104   0.74137   0.00000  Uiso   1.00
C955   C     0.85526   0.47854   0.64404   0.00000  Uiso   1.00
C956   C     0.81104   0.52042   0.85637   0.00000  Uiso   1.00
C957   C     0.79718   0.52557   0.90011   0.00000  Uiso   1.00
C958   C     0.86493   0.47101   0.60138   0.00000  Uiso   1.00
C959   C     0.74705   0.54591   0.96413   0.00000  Uiso   1.00
C960   C     0.69047   0.52412   0.70200   0.00000  Uiso   1.00
C961   C     0.82373   0.51340   0.91960   0.00000  Uiso   1.00
C962   C     0.98016   0.47783   0.80052   0.00000  Uiso   1.00
C963   C     0.70611   0.56439   0.98872   0.00000  Uiso   1.00
C964   C     0.72710   0.54864   0.90289   0.00000  Uiso   1.00
C965   C     0.79970   0.55857   0.57831   0.00000  Uiso   1.00
C966   C     0.86497   0.44094   0.92250   0.00000  Uiso   1.00
C967   C     0.81104   0.51252   0.96065   0.00000  Uiso   1.00
C968   C     0.77525   0.53371   0.98298   0.00000  Uiso   1.00
C969   C     0.83476   0.49373   0.98018   0.00000  Uiso   1.00
C970   C     0.82756   0.50408   0.52178   0.00000  Uiso   1.00
C971   C     0.79828   0.53386   0.54159   0.00000  Uiso   1.00
C972   C     0.77012   0.54479   0.52330   0.00000  Uiso   1.00
H973   H     0.74629   0.56515   0.54042   0.00000  Uiso   1.00
H974   H     0.68730   0.54312   0.51112   0.00000  Uiso   1.00
H975   H     0.71439   0.59544   0.50373   0.00000  Uiso   1.00
H976   H     0.93951   0.43229   0.52110   0.00000  Uiso   1.00
H977   H     0.87477   0.33620   0.71611   0.00000  Uiso   1.00
H978   H     0.79065   0.66564   0.78437   0.00000  Uiso   1.00
H979   H     0.80811   0.49454   0.60140   0.00000  Uiso   1.00
H980   H     0.92349   0.44358   0.59329   0.00000  Uiso   1.00
H981   H     0.91644   0.43219   0.96270   0.00000  Uiso   1.00
H982   H     0.85541   0.50622   0.90221   0.00000  Uiso   1.00
H983   H     0.68451   0.56913   0.97147   0.00000  Uiso   1.00
N984   N     0.71453   0.53749   0.67437   0.00000  Uiso   1.00
N985   N     0.95843   0.46659   0.83012   0.00000  Uiso   1.00
N986   N     0.70288   0.55546   0.88732   0.00000  Uiso   1.00
N987   N     0.80084   0.57858   0.60757   0.00000  Uiso   1.00
N988   N     0.86519   0.42200   0.89245   0.00000  Uiso   1.00
O989   O     0.83333   0.50000   0.75000   0.00000  Uiso   1.00
O990   O     0.82360   0.45726   0.66625   0.00000  Uiso   1.00
O991   O     0.79354   0.53979   0.83749   0.00000  Uiso   1.00
O992   O     0.87755   0.50826   0.65877   0.00000  Uiso   1.00
O993   O     0.83865   0.49468   0.83749   0.00000  Uiso   1.00
O994   O     0.84515   0.41434   0.77820   0.00000  Uiso   1.00
O995   O     0.81247   0.59469   0.76767   0.00000  Uiso   1.00
O996   O     0.74119   0.46584   0.73607   0.00000  Uiso   1.00
O997   O     0.93452   0.52512   0.71806   0.00000  Uiso   1.00
O998   O     0.73656   0.52293   0.77820   0.00000  Uiso   1.00
O999   O     0.92106   0.48610   0.76767   0.00000  Uiso   1.00
O1000  O     0.80467   0.40236   0.73607   0.00000  Uiso   1.00
O1001  O     0.87104   0.58860   0.71806   0.00000  Uiso   1.00
Zn1002 Zn    0.85910   0.47423   0.78277   0.00000  Uiso   1.00
Zn1003 Zn    0.80125   0.45711   0.72258   0.00000  Uiso   1.00
Zn1004 Zn    0.87833   0.52997   0.71188   0.00000  Uiso   1.00
Zn1005 Zn    0.79465   0.53868   0.78277   0.00000  Uiso   1.00
C1006  C     0.05278   0.82688   0.75884   0.00000  Uiso   1.00
C1007  C     0.19807   0.79768   0.96017   0.00000  Uiso   1.00
C1008  C     0.22543   0.78587   0.97897   0.00000  Uiso   1.00
C1009  C     0.28102   0.84004   0.74118   0.00000  Uiso   1.00
C1010  C     0.21889   0.79603   0.51928   0.00000  Uiso   1.00
C1011  C     0.18384   0.81817   0.54157   0.00000  Uiso   1.00
C1012  C     0.24520   0.78151   0.53806   0.00000  Uiso   1.00
C1013  C     0.23578   0.78717   0.57901   0.00000  Uiso   1.00
C1014  C     0.17171   0.81807   0.58289   0.00000  Uiso   1.00
C1015  C     0.32695   0.84063   0.73667   0.00000  Uiso   1.00
C1016  C     0.00763   0.82528   0.76351   0.00000  Uiso   1.00
C1017  C     0.09070   0.87335   0.92244   0.00000  Uiso   1.00
C1018  C     0.18095   0.98891   0.73820   0.00000  Uiso   1.00
C1019  C     0.15157   0.67884   0.76226   0.00000  Uiso   1.00
C1020  C     0.15591   0.72288   0.75897   0.00000  Uiso   1.00
C1021  C     0.17687   0.94438   0.74137   0.00000  Uiso   1.00
C1022  C     0.18859   0.81188   0.64404   0.00000  Uiso   1.00
C1023  C     0.14438   0.85375   0.85637   0.00000  Uiso   1.00
C1024  C     0.13051   0.85890   0.90011   0.00000  Uiso   1.00
C1025  C     0.19827   0.80434   0.60138   0.00000  Uiso   1.00
C1026  C     0.08038   0.87924   0.96413   0.00000  Uiso   1.00
C1027  C     0.02381   0.85745   0.70200   0.00000  Uiso   1.00
C1028  C     0.15706   0.84673   0.91960   0.00000  Uiso   1.00
C1029  C     0.31350   0.81116   0.80052   0.00000  Uiso   1.00
C1030  C     0.03944   0.89772   0.98872   0.00000  Uiso   1.00
C1031  C     0.06043   0.88197   0.90289   0.00000  Uiso   1.00
C1032  C     0.13303   0.89191   0.57831   0.00000  Uiso   1.00
C1033  C     0.19830   0.77427   0.92250   0.00000  Uiso   1.00
C1034  C     0.14437   0.84585   0.96065   0.00000  Uiso   1.00
C1035  C     0.10858   0.86704   0.98298   0.00000  Uiso   1.00
C1036  C     0.16809   0.82706   0.98018   0.00000  Uiso   1.00
C1037  C     0.16089   0.83742   0.52178   0.00000  Uiso   1.00
C1038  C     0.13162   0.86719   0.54159   0.00000  Uiso   1.00
C1039  C     0.10345   0.87812   0.52330   0.00000  Uiso   1.00
H1040  H     0.07963   0.89848   0.54042   0.00000  Uiso   1.00
H1041  H     0.02064   0.87645   0.51112   0.00000  Uiso   1.00
H1042  H     0.04772   0.92877   0.50373   0.00000  Uiso   1.00
H1043  H     0.27285   0.76562   0.52110   0.00000  Uiso   1.00
H1044  H     0.20810   0.66954   0.71611   0.00000  Uiso   1.00
H1045  H     0.12398   0.99898   0.78437   0.00000  Uiso   1.00
H1046  H     0.14144   0.82787   0.60140   0.00000  Uiso   1.00
H1047  H     0.25683   0.77691   0.59329   0.00000  Uiso   1.00
H1048  H     0.24977   0.76552   0.96270   0.00000  Uiso   1.00
H1049  H     0.18874   0.83955   0.90221   0.00000  Uiso   1.00
H1050  H     0.01784   0.90246   0.97147   0.00000  Uiso   1.00
N1051  N     0.04787   0.87082   0.67437   0.00000  Uiso   1.00
N1052  N     0.29176   0.79993   0.83012   0.00000  Uiso   1.00
N1053  N     0.03621   0.88880   0.88732   0.00000  Uiso   1.00
N1054  N     0.13418   0.91192   0.60757   0.00000  Uiso   1.00
N1055  N     0.19852   0.75534   0.89245   0.00000  Uiso   1.00
O1056  O     0.16667   0.83333   0.75000   0.00000  Uiso   1.00
O1057  O     0.15693   0.79060   0.66625   0.00000  Uiso   1.00
O1058  O     0.12687   0.87313   0.83749   0.00000  Uiso   1.00
O1059  O     0.21088   0.84159   0.65877   0.00000  Uiso   1.00
O1060  O     0.17198   0.82802   0.83749   0.00000  Uiso   1.00
O1061  O     0.17849   0.74768   0.77820   0.00000  Uiso   1.00
O1062  O     0.14581   0.92803   0.76767   0.00000  Uiso   1.00
O1063  O     0.07452   0.79917   0.73607   0.00000  Uiso   1.00
O1064  O     0.26785   0.85845   0.71806   0.00000  Uiso   1.00
O1065  O     0.06990   0.85627   0.77820   0.00000  Uiso   1.00
O1066  O     0.25440   0.81944   0.76767   0.00000  Uiso   1.00
O1067  O     0.13800   0.73570   0.73607   0.00000  Uiso   1.00
O1068  O     0.20437   0.92193   0.71806   0.00000  Uiso   1.00
Zn1069 Zn    0.19244   0.80756   0.78277   0.00000  Uiso   1.00
Zn1070 Zn    0.13459   0.79044   0.72258   0.00000  Uiso   1.00
Zn1071 Zn    0.21166   0.86331   0.71188   0.00000  Uiso   1.00
Zn1072 Zn    0.12798   0.87202   0.78277   0.00000  Uiso   1.00
C1073  C     0.38612   0.82688   0.75884   0.00000  Uiso   1.00
C1074  C     0.53140   0.79768   0.96017   0.00000  Uiso   1.00
C1075  C     0.55876   0.78587   0.97897   0.00000  Uiso   1.00
C1076  C     0.61436   0.84004   0.74118   0.00000  Uiso   1.00
C1077  C     0.55223   0.79603   0.51928   0.00000  Uiso   1.00
C1078  C     0.51717   0.81817   0.54157   0.00000  Uiso   1.00
C1079  C     0.57853   0.78151   0.53806   0.00000  Uiso   1.00
C1080  C     0.56911   0.78717   0.57901   0.00000  Uiso   1.00
C1081  C     0.50504   0.81807   0.58289   0.00000  Uiso   1.00
C1082  C     0.66029   0.84063   0.73667   0.00000  Uiso   1.00
C1083  C     0.34097   0.82528   0.76351   0.00000  Uiso   1.00
C1084  C     0.42403   0.87335   0.92244   0.00000  Uiso   1.00
C1085  C     0.51428   0.98891   0.73820   0.00000  Uiso   1.00
C1086  C     0.48490   0.67884   0.76226   0.00000  Uiso   1.00
C1087  C     0.48924   0.72288   0.75897   0.00000  Uiso   1.00
C1088  C     0.51020   0.94438   0.74137   0.00000  Uiso   1.00
C1089  C     0.52193   0.81188   0.64404   0.00000  Uiso   1.00
C1090  C     0.47771   0.85375   0.85637   0.00000  Uiso   1.00
C1091  C     0.46384   0.85890   0.90011   0.00000  Uiso   1.00
C1092  C     0.53160   0.80434   0.60138   0.00000  Uiso   1.00
C1093  C     0.41372   0.87924   0.96413   0.00000  Uiso   1.00
C1094  C     0.35714   0.85745   0.70200   0.00000  Uiso   1.00
C1095  C     0.49040   0.84673   0.91960   0.00000  Uiso   1.00
C1096  C     0.64683   0.81116   0.80052   0.00000  Uiso   1.00
C1097  C     0.37277   0.89772   0.98872   0.00000  Uiso   1.00
C1098  C     0.39377   0.88197   0.90289   0.00000  Uiso   1.00
C1099  C     0.46637   0.89191   0.57831   0.00000  Uiso   1.00
C1100  C     0.53164   0.77427   0.92250   0.00000  Uiso   1.00
C1101  C     0.47771   0.84585   0.96065   0.00000  Uiso   1.00
C1102  C     0.44191   0.86704   0.98298   0.00000  Uiso   1.00
C1103  C     0.50143   0.82706   0.98018   0.00000  Uiso   1.00
C1104  C     0.49423   0.83742   0.52178   0.00000  Uiso   1.00
C1105  C     0.46495   0.86719   0.54159   0.00000  Uiso   1.00
C1106  C     0.43679   0.87812   0.52330   0.00000  Uiso   1.00
H1107  H     0.41296   0.89848   0.54042   0.00000  Uiso   1.00
H1108  H     0.35397   0.87645   0.51112   0.00000  Uiso   1.00
H1109  H     0.38105   0.92877   0.50373   0.00000  Uiso   1.00
H1110  H     0.60618   0.76562   0.52110   0.00000  Uiso   1.00
H1111  H     0.54143   0.66954   0.71611   0.00000  Uiso   1.00
H1112  H     0.45732   0.99898   0.78437   0.00000  Uiso   1.00
H1113  H     0.47478   0.82787   0.60140   0.00000  Uiso   1.00
H1114  H     0.59016   0.77691   0.59329   0.00000  Uiso   1.00
H1115  H     0.58310   0.76552   0.96270   0.00000  Uiso   1.00
H1116  H     0.52208   0.83955   0.90221   0.00000  Uiso   1.00
H1117  H     0.35118   0.90246   0.97147   0.00000  Uiso   1.00
N1118  N     0.38120   0.87082   0.67437   0.00000  Uiso   1.00
N1119  N     0.62509   0.79993   0.83012   0.00000  Uiso   1.00
N1120  N     0.36954   0.88880   0.88732   0.00000  Uiso   1.00
N1121  N     0.46751   0.91192   0.60757   0.00000  Uiso   1.00
N1122  N     0.53185   0.75534   0.89245   0.00000  Uiso   1.00
O1123  O     0.50000   0.83333   0.75000   0.00000  Uiso   1.00
O1124  O     0.49027   0.79060   0.66625   0.00000  Uiso   1.00
O1125  O     0.46020   0.87313   0.83749   0.00000  Uiso   1.00
O1126  O     0.54421   0.84159   0.65877   0.00000  Uiso   1.00
O1127  O     0.50532   0.82802   0.83749   0.00000  Uiso   1.00
O1128  O     0.51182   0.74768   0.77820   0.00000  Uiso   1.00
O1129  O     0.47914   0.92803   0.76767   0.00000  Uiso   1.00
O1130  O     0.40785   0.79917   0.73607   0.00000  Uiso   1.00
O1131  O     0.60119   0.85845   0.71806   0.00000  Uiso   1.00
O1132  O     0.40323   0.85627   0.77820   0.00000  Uiso   1.00
O1133  O     0.58773   0.81944   0.76767   0.00000  Uiso   1.00
O1134  O     0.47133   0.73570   0.73607   0.00000  Uiso   1.00
O1135  O     0.53771   0.92193   0.71806   0.00000  Uiso   1.00
Zn1136 Zn    0.52577   0.80756   0.78277   0.00000  Uiso   1.00
Zn1137 Zn    0.46792   0.79044   0.72258   0.00000  Uiso   1.00
Zn1138 Zn    0.54500   0.86331   0.71188   0.00000  Uiso   1.00
Zn1139 Zn    0.46131   0.87202   0.78277   0.00000  Uiso   1.00
C1140  C     0.71945   0.82688   0.75884   0.00000  Uiso   1.00
C1141  C     0.86473   0.79768   0.96017   0.00000  Uiso   1.00
C1142  C     0.89209   0.78587   0.97897   0.00000  Uiso   1.00
C1143  C     0.94769   0.84004   0.74118   0.00000  Uiso   1.00
C1144  C     0.88556   0.79603   0.51928   0.00000  Uiso   1.00
C1145  C     0.85051   0.81817   0.54157   0.00000  Uiso   1.00
C1146  C     0.91187   0.78151   0.53806   0.00000  Uiso   1.00
C1147  C     0.90244   0.78717   0.57901   0.00000  Uiso   1.00
C1148  C     0.83838   0.81807   0.58289   0.00000  Uiso   1.00
C1149  C     0.99362   0.84063   0.73667   0.00000  Uiso   1.00
C1150  C     0.67430   0.82528   0.76351   0.00000  Uiso   1.00
C1151  C     0.75737   0.87335   0.92244   0.00000  Uiso   1.00
C1152  C     0.84761   0.98891   0.73820   0.00000  Uiso   1.00
C1153  C     0.81823   0.67884   0.76226   0.00000  Uiso   1.00
C1154  C     0.82258   0.72288   0.75897   0.00000  Uiso   1.00
C1155  C     0.84353   0.94438   0.74137   0.00000  Uiso   1.00
C1156  C     0.85526   0.81188   0.64404   0.00000  Uiso   1.00
C1157  C     0.81104   0.85375   0.85637   0.00000  Uiso   1.00
C1158  C     0.79718   0.85890   0.90011   0.00000  Uiso   1.00
C1159  C     0.86493   0.80434   0.60138   0.00000  Uiso   1.00
C1160  C     0.74705   0.87924   0.96413   0.00000  Uiso   1.00
C1161  C     0.69047   0.85745   0.70200   0.00000  Uiso   1.00
C1162  C     0.82373   0.84673   0.91960   0.00000  Uiso   1.00
C1163  C     0.98016   0.81116   0.80052   0.00000  Uiso   1.00
C1164  C     0.70611   0.89772   0.98872   0.00000  Uiso   1.00
C1165  C     0.72710   0.88197   0.90289   0.00000  Uiso   1.00
C1166  C     0.79970   0.89191   0.57831   0.00000  Uiso   1.00
C1167  C     0.86497   0.77427   0.92250   0.00000  Uiso   1.00
C1168  C     0.81104   0.84585   0.96065   0.00000  Uiso   1.00
C1169  C     0.77525   0.86704   0.98298   0.00000  Uiso   1.00
C1170  C     0.83476   0.82706   0.98018   0.00000  Uiso   1.00
C1171  C     0.82756   0.83742   0.52178   0.00000  Uiso   1.00
C1172  C     0.79828   0.86719   0.54159   0.00000  Uiso   1.00
C1173  C     0.77012   0.87812   0.52330   0.00000  Uiso   1.00
H1174  H     0.74629   0.89848   0.54042   0.00000  Uiso   1.00
H1175  H     0.68730   0.87645   0.51112   0.00000  Uiso   1.00
H1176  H     0.71439   0.92877   0.50373   0.00000  Uiso   1.00
H1177  H     0.93951   0.76562   0.52110   0.00000  Uiso   1.00
H1178  H     0.87477   0.66954   0.71611   0.00000  Uiso   1.00
H1179  H     0.79065   0.99898   0.78437   0.00000  Uiso   1.00
H1180  H     0.80811   0.82787   0.60140   0.00000  Uiso   1.00
H1181  H     0.92349   0.77691   0.59329   0.00000  Uiso   1.00
H1182  H     0.91644   0.76552   0.96270   0.00000  Uiso   1.00
H1183  H     0.85541   0.83955   0.90221   0.00000  Uiso   1.00
H1184  H     0.68451   0.90246   0.97147   0.00000  Uiso   1.00
N1185  N     0.71453   0.87082   0.67437   0.00000  Uiso   1.00
N1186  N     0.95843   0.79993   0.83012   0.00000  Uiso   1.00
N1187  N     0.70288   0.88880   0.88732   0.00000  Uiso   1.00
N1188  N     0.80084   0.91192   0.60757   0.00000  Uiso   1.00
N1189  N     0.86519   0.75534   0.89245   0.00000  Uiso   1.00
O1190  O     0.83333   0.83333   0.75000   0.00000  Uiso   1.00
O1191  O     0.82360   0.79060   0.66625   0.00000  Uiso   1.00
O1192  O     0.79354   0.87313   0.83749   0.00000  Uiso   1.00
O1193  O     0.87755   0.84159   0.65877   0.00000  Uiso   1.00
O1194  O     0.83865   0.82802   0.83749   0.00000  Uiso   1.00
O1195  O     0.84515   0.74768   0.77820   0.00000  Uiso   1.00
O1196  O     0.81247   0.92803   0.76767   0.00000  Uiso   1.00
O1197  O     0.74119   0.79917   0.73607   0.00000  Uiso   1.00
O1198  O     0.93452   0.85845   0.71806   0.00000  Uiso   1.00
O1199  O     0.73656   0.85627   0.77820   0.00000  Uiso   1.00
O1200  O     0.92106   0.81944   0.76767   0.00000  Uiso   1.00
O1201  O     0.80467   0.73570   0.73607   0.00000  Uiso   1.00
O1202  O     0.87104   0.92193   0.71806   0.00000  Uiso   1.00
Zn1203 Zn    0.85910   0.80756   0.78277   0.00000  Uiso   1.00
Zn1204 Zn    0.80125   0.79044   0.72258   0.00000  Uiso   1.00
Zn1205 Zn    0.87833   0.86331   0.71188   0.00000  Uiso   1.00
Zn1206 Zn    0.79465   0.87202   0.78277   0.00000  Uiso   1.00
loop_
_geom_bond_atom_site_label_1
_geom_bond_atom_site_label_2
_geom_bond_distance
_geom_bond_site_symmetry_2
_ccdc_geom_bond_type
C1     C11     1.434   .     S
C1     O58     1.270   .     A
C1     O60     1.263   .     A
C2     C3      1.392   .     A
C2     C31     1.431   .     A
C2     C28     1.447   .     S
C3     H43     1.086   .     S
C3     C608    1.389   .     S
C4     O59     1.286   .     A
C4     C10     1.464   .     S
C4     O61     1.272   .     A
C5     C6      1.416   .     A
C5     C7      1.404   .     A
C5     C606    1.389   1_554 S
C6     C32     1.428   .     A
C6     C9      1.409   .     A
C7     C8      1.392   .     A
C7     H38     1.084   .     S
C8     C20     1.396   .     A
C8     H42     1.083   .     S
C9     H41     1.079   .     S
C9     C20     1.391   .     A
C10    C78     1.358   .     S
C10    C89     1.453   .     S
C11    C144    1.358   1_455 S
C11    C158    1.451   1_455 S
C12    C19     1.418   .     A
C12    C21     1.416   .     A
C12    C26     1.450   .     S
C13    C16     1.450   .     S
C13    C215    1.331   .     S
C13    H240    1.088   .     S
C14    C15     1.434   .     S
C14    C415    1.331   1_545 S
C14    H442    1.086   1_545 S
C15    O56     1.282   .     A
C15    O62     1.282   .     A
C16    O63     1.268   .     A
C16    O57     1.270   .     A
C17    O54     1.274   .     A
C17    C20     1.453   .     S
C17    O52     1.279   .     A
C18    O55     1.292   .     A
C18    C19     1.482   .     S
C18    O53     1.280   .     A
C19    C23     1.393   .     A
C21    C30     1.422   .     A
C21    C25     1.522   .     S
C22    N46     1.157   .     T
C22    C144    1.453   1_455 S
C23    C29     1.402   .     A
C23    H44     1.079   .     S
C24    N47     1.158   .     T
C24    C78     1.451   .     S
C25    H45     1.107   .     S
C25    H639    1.111   .     S
C25    H640    1.110   .     S
C26    N48     1.158   .     T
C27    N49     1.158   .     T
C27    C33     1.448   .     S
C28    N50     1.158   .     T
C29    C30     1.417   .     A
C29    C31     1.431   .     A
C30    C637    1.399   .     S
C31    C635    1.431   .     S
C32    C33     1.424   .     A
C32    C634    1.431   1_554 S
C33    C34     1.389   .     A
C34    H35     1.083   .     S
C34    C633    1.399   1_554 S
H36    C628    1.111   1_554 S
H37    C628    1.110   1_554 S
H39    C415    1.088   1_545 S
H40    C215    1.086   .     S
O51    Zn67    1.928   .     S
O51    Zn65    1.952   .     S
O51    Zn64    1.965   .     S
O51    Zn66    1.931   .     S
O52    Zn65    1.924   .     S
O53    Zn67    1.939   .     S
O54    Zn66    1.934   .     S
O55    Zn64    1.920   .     S
O56    Zn64    1.927   .     S
O57    Zn67    1.928   .     S
O58    Zn65    1.937   .     S
O59    Zn66    1.952   .     S
O60    Zn67    1.949   .     S
O61    Zn64    1.935   .     S
O62    Zn65    1.933   .     S
O63    Zn66    1.927   .     S
C68    C78     1.434   .     S
C68    O125    1.270   .     A
C68    O127    1.263   .     A
C69    C70     1.392   .     A
C69    C98     1.431   .     A
C69    C95     1.447   .     S
C70    H110    1.086   .     S
C70    C675    1.389   .     S
C71    O126    1.286   .     A
C71    C77     1.464   .     S
C71    O128    1.272   .     A
C72    C73     1.416   .     A
C72    C74     1.404   .     A
C72    C673    1.389   1_554 S
C73    C99     1.428   .     A
C73    C76     1.409   .     A
C74    C75     1.392   .     A
C74    H105    1.084   .     S
C75    C87     1.396   .     A
C75    H109    1.083   .     S
C76    H108    1.079   .     S
C76    C87     1.391   .     A
C77    C145    1.358   .     S
C77    C156    1.453   .     S
C79    C86     1.418   .     A
C79    C88     1.416   .     A
C79    C93     1.450   .     S
C80    C83     1.450   .     S
C80    C282    1.331   .     S
C80    H307    1.088   .     S
C81    C82     1.434   .     S
C81    C482    1.331   1_545 S
C81    H509    1.086   1_545 S
C82    O123    1.282   .     A
C82    O129    1.282   .     A
C83    O130    1.268   .     A
C83    O124    1.270   .     A
C84    O121    1.274   .     A
C84    C87     1.453   .     S
C84    O119    1.279   .     A
C85    O122    1.292   .     A
C85    C86     1.482   .     S
C85    O120    1.280   .     A
C86    C90     1.393   .     A
C88    C97     1.422   .     A
C88    C92     1.522   .     S
C89    N113    1.157   .     T
C90    C96     1.402   .     A
C90    H111    1.079   .     S
C91    N114    1.158   .     T
C91    C145    1.451   .     S
C92    H112    1.107   .     S
C92    H706    1.111   .     S
C92    H707    1.110   .     S
C93    N115    1.158   .     T
C94    N116    1.158   .     T
C94    C100    1.448   .     S
C95    N117    1.158   .     T
C96    C97     1.417   .     A
C96    C98     1.431   .     A
C97    C704    1.399   .     S
C98    C702    1.431   .     S
C99    C100    1.424   .     A
C99    C701    1.431   1_554 S
C100   C101    1.389   .     A
C101   H102    1.083   .     S
C101   C700    1.399   1_554 S
H103   C695    1.111   1_554 S
H104   C695    1.110   1_554 S
H106   C482    1.088   1_545 S
H107   C282    1.086   .     S
O118   Zn134   1.928   .     S
O118   Zn132   1.952   .     S
O118   Zn131   1.965   .     S
O118   Zn133   1.931   .     S
O119   Zn132   1.924   .     S
O120   Zn134   1.939   .     S
O121   Zn133   1.934   .     S
O122   Zn131   1.920   .     S
O123   Zn131   1.927   .     S
O124   Zn134   1.928   .     S
O125   Zn132   1.937   .     S
O126   Zn133   1.952   .     S
O127   Zn134   1.949   .     S
O128   Zn131   1.935   .     S
O129   Zn132   1.933   .     S
O130   Zn133   1.927   .     S
C135   C145    1.434   .     S
C135   O192    1.270   .     A
C135   O194    1.263   .     A
C136   C137    1.392   .     A
C136   C165    1.431   .     A
C136   C162    1.447   .     S
C137   H177    1.086   .     S
C137   C742    1.389   .     S
C138   O193    1.286   .     A
C138   C144    1.464   .     S
C138   O195    1.272   .     A
C139   C140    1.416   .     A
C139   C141    1.404   .     A
C139   C740    1.389   1_554 S
C140   C166    1.428   .     A
C140   C143    1.409   .     A
C141   C142    1.392   .     A
C141   H172    1.084   .     S
C142   C154    1.396   .     A
C142   H176    1.083   .     S
C143   H175    1.079   .     S
C143   C154    1.391   .     A
C144   C11     1.358   1_655 S
C144   C22     1.453   1_655 S
C146   C153    1.418   .     A
C146   C155    1.416   .     A
C146   C160    1.450   .     S
C147   C150    1.450   .     S
C147   C349    1.331   .     S
C147   H374    1.088   .     S
C148   C149    1.434   .     S
C148   C549    1.331   1_545 S
C148   H576    1.086   1_545 S
C149   O190    1.282   .     A
C149   O196    1.282   .     A
C150   O197    1.268   .     A
C150   O191    1.270   .     A
C151   O188    1.274   .     A
C151   C154    1.453   .     S
C151   O186    1.279   .     A
C152   O189    1.292   .     A
C152   C153    1.482   .     S
C152   O187    1.280   .     A
C153   C157    1.393   .     A
C155   C164    1.422   .     A
C155   C159    1.522   .     S
C156   N180    1.157   .     T
C157   C163    1.402   .     A
C157   H178    1.079   .     S
C158   N181    1.158   .     T
C158   C11     1.451   1_655 S
C159   H179    1.107   .     S
C159   H773    1.111   .     S
C159   H774    1.110   .     S
C160   N182    1.158   .     T
C161   N183    1.158   .     T
C161   C167    1.448   .     S
C162   N184    1.158   .     T
C163   C164    1.417   .     A
C163   C165    1.431   .     A
C164   C771    1.399   .     S
C165   C769    1.431   .     S
C166   C167    1.424   .     A
C166   C768    1.431   1_554 S
C167   C168    1.389   .     A
C168   H169    1.083   .     S
C168   C767    1.399   1_554 S
H170   C762    1.111   1_554 S
H171   C762    1.110   1_554 S
H173   C549    1.088   1_545 S
H174   C349    1.086   .     S
O185   Zn201   1.928   .     S
O185   Zn199   1.952   .     S
O185   Zn198   1.965   .     S
O185   Zn200   1.931   .     S
O186   Zn199   1.924   .     S
O187   Zn201   1.939   .     S
O188   Zn200   1.934   .     S
O189   Zn198   1.920   .     S
O190   Zn198   1.927   .     S
O191   Zn201   1.928   .     S
O192   Zn199   1.937   .     S
O193   Zn200   1.952   .     S
O194   Zn201   1.949   .     S
O195   Zn198   1.935   .     S
O196   Zn199   1.933   .     S
O197   Zn200   1.927   .     S
C202   C212    1.434   .     S
C202   O259    1.270   .     A
C202   O261    1.263   .     A
C203   C204    1.392   .     A
C203   C232    1.431   .     A
C203   C229    1.447   .     S
C204   H244    1.086   .     S
C204   C809    1.389   .     S
C205   O260    1.286   .     A
C205   C211    1.464   .     S
C205   O262    1.272   .     A
C206   C207    1.416   .     A
C206   C208    1.404   .     A
C206   C807    1.389   1_554 S
C207   C233    1.428   .     A
C207   C210    1.409   .     A
C208   C209    1.392   .     A
C208   H239    1.084   .     S
C209   C221    1.396   .     A
C209   H243    1.083   .     S
C210   H242    1.079   .     S
C210   C221    1.391   .     A
C211   C279    1.358   .     S
C211   C290    1.453   .     S
C212   C345    1.358   1_455 S
C212   C359    1.451   1_455 S
C213   C220    1.418   .     A
C213   C222    1.416   .     A
C213   C227    1.450   .     S
C214   C217    1.450   .     S
C214   C416    1.331   .     S
C214   H441    1.088   .     S
C215   C216    1.434   .     S
C216   O257    1.282   .     A
C216   O263    1.282   .     A
C217   O264    1.268   .     A
C217   O258    1.270   .     A
C218   O255    1.274   .     A
C218   C221    1.453   .     S
C218   O253    1.279   .     A
C219   O256    1.292   .     A
C219   C220    1.482   .     S
C219   O254    1.280   .     A
C220   C224    1.393   .     A
C222   C231    1.422   .     A
C222   C226    1.522   .     S
C223   N247    1.157   .     T
C223   C345    1.453   1_455 S
C224   C230    1.402   .     A
C224   H245    1.079   .     S
C225   N248    1.158   .     T
C225   C279    1.451   .     S
C226   H246    1.107   .     S
C226   H840    1.111   .     S
C226   H841    1.110   .     S
C227   N249    1.158   .     T
C228   N250    1.158   .     T
C228   C234    1.448   .     S
C229   N251    1.158   .     T
C230   C231    1.417   .     A
C230   C232    1.431   .     A
C231   C838    1.399   .     S
C232   C836    1.431   .     S
C233   C234    1.424   .     A
C233   C835    1.431   1_554 S
C234   C235    1.389   .     A
C235   H236    1.083   .     S
C235   C834    1.399   1_554 S
H237   C829    1.111   1_554 S
H238   C829    1.110   1_554 S
H241   C416    1.086   .     S
O252   Zn268   1.928   .     S
O252   Zn266   1.952   .     S
O252   Zn265   1.965   .     S
O252   Zn267   1.931   .     S
O253   Zn266   1.924   .     S
O254   Zn268   1.939   .     S
O255   Zn267   1.934   .     S
O256   Zn265   1.920   .     S
O257   Zn265   1.927   .     S
O258   Zn268   1.928   .     S
O259   Zn266   1.937   .     S
O260   Zn267   1.952   .     S
O261   Zn268   1.949   .     S
O262   Zn265   1.935   .     S
O263   Zn266   1.933   .     S
O264   Zn267   1.927   .     S
C269   C279    1.434   .     S
C269   O326    1.270   .     A
C269   O328    1.263   .     A
C270   C271    1.392   .     A
C270   C299    1.431   .     A
C270   C296    1.447   .     S
C271   H311    1.086   .     S
C271   C876    1.389   .     S
C272   O327    1.286   .     A
C272   C278    1.464   .     S
C272   O329    1.272   .     A
C273   C274    1.416   .     A
C273   C275    1.404   .     A
C273   C874    1.389   1_554 S
C274   C300    1.428   .     A
C274   C277    1.409   .     A
C275   C276    1.392   .     A
C275   H306    1.084   .     S
C276   C288    1.396   .     A
C276   H310    1.083   .     S
C277   H309    1.079   .     S
C277   C288    1.391   .     A
C278   C346    1.358   .     S
C278   C357    1.453   .     S
C280   C287    1.418   .     A
C280   C289    1.416   .     A
C280   C294    1.450   .     S
C281   C284    1.450   .     S
C281   C483    1.331   .     S
C281   H508    1.088   .     S
C282   C283    1.434   .     S
C283   O324    1.282   .     A
C283   O330    1.282   .     A
C284   O331    1.268   .     A
C284   O325    1.270   .     A
C285   O322    1.274   .     A
C285   C288    1.453   .     S
C285   O320    1.279   .     A
C286   O323    1.292   .     A
C286   C287    1.482   .     S
C286   O321    1.280   .     A
C287   C291    1.393   .     A
C289   C298    1.422   .     A
C289   C293    1.522   .     S
C290   N314    1.157   .     T
C291   C297    1.402   .     A
C291   H312    1.079   .     S
C292   N315    1.158   .     T
C292   C346    1.451   .     S
C293   H313    1.107   .     S
C293   H907    1.111   .     S
C293   H908    1.110   .     S
C294   N316    1.158   .     T
C295   N317    1.158   .     T
C295   C301    1.448   .     S
C296   N318    1.158   .     T
C297   C298    1.417   .     A
C297   C299    1.431   .     A
C298   C905    1.399   .     S
C299   C903    1.431   .     S
C300   C301    1.424   .     A
C300   C902    1.431   1_554 S
C301   C302    1.389   .     A
C302   H303    1.083   .     S
C302   C901    1.399   1_554 S
H304   C896    1.111   1_554 S
H305   C896    1.110   1_554 S
H308   C483    1.086   .     S
O319   Zn335   1.928   .     S
O319   Zn333   1.952   .     S
O319   Zn332   1.965   .     S
O319   Zn334   1.931   .     S
O320   Zn333   1.924   .     S
O321   Zn335   1.939   .     S
O322   Zn334   1.934   .     S
O323   Zn332   1.920   .     S
O324   Zn332   1.927   .     S
O325   Zn335   1.928   .     S
O326   Zn333   1.937   .     S
O327   Zn334   1.952   .     S
O328   Zn335   1.949   .     S
O329   Zn332   1.935   .     S
O330   Zn333   1.933   .     S
O331   Zn334   1.927   .     S
C336   C346    1.434   .     S
C336   O393    1.270   .     A
C336   O395    1.263   .     A
C337   C338    1.392   .     A
C337   C366    1.431   .     A
C337   C363    1.447   .     S
C338   H378    1.086   .     S
C338   C943    1.389   .     S
C339   O394    1.286   .     A
C339   C345    1.464   .     S
C339   O396    1.272   .     A
C340   C341    1.416   .     A
C340   C342    1.404   .     A
C340   C941    1.389   1_554 S
C341   C367    1.428   .     A
C341   C344    1.409   .     A
C342   C343    1.392   .     A
C342   H373    1.084   .     S
C343   C355    1.396   .     A
C343   H377    1.083   .     S
C344   H376    1.079   .     S
C344   C355    1.391   .     A
C345   C212    1.358   1_655 S
C345   C223    1.453   1_655 S
C347   C354    1.418   .     A
C347   C356    1.416   .     A
C347   C361    1.450   .     S
C348   C351    1.450   .     S
C348   C550    1.331   .     S
C348   H575    1.088   .     S
C349   C350    1.434   .     S
C350   O391    1.282   .     A
C350   O397    1.282   .     A
C351   O398    1.268   .     A
C351   O392    1.270   .     A
C352   O389    1.274   .     A
C352   C355    1.453   .     S
C352   O387    1.279   .     A
C353   O390    1.292   .     A
C353   C354    1.482   .     S
C353   O388    1.280   .     A
C354   C358    1.393   .     A
C356   C365    1.422   .     A
C356   C360    1.522   .     S
C357   N381    1.157   .     T
C358   C364    1.402   .     A
C358   H379    1.079   .     S
C359   N382    1.158   .     T
C359   C212    1.451   1_655 S
C360   H380    1.107   .     S
C360   H974    1.111   .     S
C360   H975    1.110   .     S
C361   N383    1.158   .     T
C362   N384    1.158   .     T
C362   C368    1.448   .     S
C363   N385    1.158   .     T
C364   C365    1.417   .     A
C364   C366    1.431   .     A
C365   C972    1.399   .     S
C366   C970    1.431   .     S
C367   C368    1.424   .     A
C367   C969    1.431   1_554 S
C368   C369    1.389   .     A
C369   H370    1.083   .     S
C369   C968    1.399   1_554 S
H371   C963    1.111   1_554 S
H372   C963    1.110   1_554 S
H375   C550    1.086   .     S
O386   Zn402   1.928   .     S
O386   Zn400   1.952   .     S
O386   Zn399   1.965   .     S
O386   Zn401   1.931   .     S
O387   Zn400   1.924   .     S
O388   Zn402   1.939   .     S
O389   Zn401   1.934   .     S
O390   Zn399   1.920   .     S
O391   Zn399   1.927   .     S
O392   Zn402   1.928   .     S
O393   Zn400   1.937   .     S
O394   Zn401   1.952   .     S
O395   Zn402   1.949   .     S
O396   Zn399   1.935   .     S
O397   Zn400   1.933   .     S
O398   Zn401   1.927   .     S
C403   C413    1.434   .     S
C403   O460    1.270   .     A
C403   O462    1.263   .     A
C404   C405    1.392   .     A
C404   C433    1.431   .     A
C404   C430    1.447   .     S
C405   H445    1.086   .     S
C405   C1010   1.389   .     S
C406   O461    1.286   .     A
C406   C412    1.464   .     S
C406   O463    1.272   .     A
C407   C408    1.416   .     A
C407   C409    1.404   .     A
C407   C1008   1.389   1_554 S
C408   C434    1.428   .     A
C408   C411    1.409   .     A
C409   C410    1.392   .     A
C409   H440    1.084   .     S
C410   C422    1.396   .     A
C410   H444    1.083   .     S
C411   H443    1.079   .     S
C411   C422    1.391   .     A
C412   C480    1.358   .     S
C412   C491    1.453   .     S
C413   C546    1.358   1_455 S
C413   C560    1.451   1_455 S
C414   C421    1.418   .     A
C414   C423    1.416   .     A
C414   C428    1.450   .     S
C415   C418    1.450   .     S
C415   C14     1.331   1_565 S
C415   H39     1.088   1_565 S
C416   C417    1.434   .     S
C417   O458    1.282   .     A
C417   O464    1.282   .     A
C418   O465    1.268   .     A
C418   O459    1.270   .     A
C419   O456    1.274   .     A
C419   C422    1.453   .     S
C419   O454    1.279   .     A
C420   O457    1.292   .     A
C420   C421    1.482   .     S
C420   O455    1.280   .     A
C421   C425    1.393   .     A
C423   C432    1.422   .     A
C423   C427    1.522   .     S
C424   N448    1.157   .     T
C424   C546    1.453   1_455 S
C425   C431    1.402   .     A
C425   H446    1.079   .     S
C426   N449    1.158   .     T
C426   C480    1.451   .     S
C427   H447    1.107   .     S
C427   H1041   1.111   .     S
C427   H1042   1.110   .     S
C428   N450    1.158   .     T
C429   N451    1.158   .     T
C429   C435    1.448   .     S
C430   N452    1.158   .     T
C431   C432    1.417   .     A
C431   C433    1.431   .     A
C432   C1039   1.399   .     S
C433   C1037   1.431   .     S
C434   C435    1.424   .     A
C434   C1036   1.431   1_554 S
C435   C436    1.389   .     A
C436   H437    1.083   .     S
C436   C1035   1.399   1_554 S
H438   C1030   1.111   1_554 S
H439   C1030   1.110   1_554 S
H442   C14     1.086   1_565 S
O453   Zn469   1.928   .     S
O453   Zn467   1.952   .     S
O453   Zn466   1.965   .     S
O453   Zn468   1.931   .     S
O454   Zn467   1.924   .     S
O455   Zn469   1.939   .     S
O456   Zn468   1.934   .     S
O457   Zn466   1.920   .     S
O458   Zn466   1.927   .     S
O459   Zn469   1.928   .     S
O460   Zn467   1.937   .     S
O461   Zn468   1.952   .     S
O462   Zn469   1.949   .     S
O463   Zn466   1.935   .     S
O464   Zn467   1.933   .     S
O465   Zn468   1.927   .     S
C470   C480    1.434   .     S
C470   O527    1.270   .     A
C470   O529    1.263   .     A
C471   C472    1.392   .     A
C471   C500    1.431   .     A
C471   C497    1.447   .     S
C472   H512    1.086   .     S
C472   C1077   1.389   .     S
C473   O528    1.286   .     A
C473   C479    1.464   .     S
C473   O530    1.272   .     A
C474   C475    1.416   .     A
C474   C476    1.404   .     A
C474   C1075   1.389   1_554 S
C475   C501    1.428   .     A
C475   C478    1.409   .     A
C476   C477    1.392   .     A
C476   H507    1.084   .     S
C477   C489    1.396   .     A
C477   H511    1.083   .     S
C478   H510    1.079   .     S
C478   C489    1.391   .     A
C479   C547    1.358   .     S
C479   C558    1.453   .     S
C481   C488    1.418   .     A
C481   C490    1.416   .     A
C481   C495    1.450   .     S
C482   C485    1.450   .     S
C482   C81     1.331   1_565 S
C482   H106    1.088   1_565 S
C483   C484    1.434   .     S
C484   O525    1.282   .     A
C484   O531    1.282   .     A
C485   O532    1.268   .     A
C485   O526    1.270   .     A
C486   O523    1.274   .     A
C486   C489    1.453   .     S
C486   O521    1.279   .     A
C487   O524    1.292   .     A
C487   C488    1.482   .     S
C487   O522    1.280   .     A
C488   C492    1.393   .     A
C490   C499    1.422   .     A
C490   C494    1.522   .     S
C491   N515    1.157   .     T
C492   C498    1.402   .     A
C492   H513    1.079   .     S
C493   N516    1.158   .     T
C493   C547    1.451   .     S
C494   H514    1.107   .     S
C494   H1108   1.111   .     S
C494   H1109   1.110   .     S
C495   N517    1.158   .     T
C496   N518    1.158   .     T
C496   C502    1.448   .     S
C497   N519    1.158   .     T
C498   C499    1.417   .     A
C498   C500    1.431   .     A
C499   C1106   1.399   .     S
C500   C1104   1.431   .     S
C501   C502    1.424   .     A
C501   C1103   1.431   1_554 S
C502   C503    1.389   .     A
C503   H504    1.083   .     S
C503   C1102   1.399   1_554 S
H505   C1097   1.111   1_554 S
H506   C1097   1.110   1_554 S
H509   C81     1.086   1_565 S
O520   Zn536   1.928   .     S
O520   Zn534   1.952   .     S
O520   Zn533   1.965   .     S
O520   Zn535   1.931   .     S
O521   Zn534   1.924   .     S
O522   Zn536   1.939   .     S
O523   Zn535   1.934   .     S
O524   Zn533   1.920   .     S
O525   Zn533   1.927   .     S
O526   Zn536   1.928   .     S
O527   Zn534   1.937   .     S
O528   Zn535   1.952   .     S
O529   Zn536   1.949   .     S
O530   Zn533   1.935   .     S
O531   Zn534   1.933   .     S
O532   Zn535   1.927   .     S
C537   C547    1.434   .     S
C537   O594    1.270   .     A
C537   O596    1.263   .     A
C538   C539    1.392   .     A
C538   C567    1.431   .     A
C538   C564    1.447   .     S
C539   H579    1.086   .     S
C539   C1144   1.389   .     S
C540   O595    1.286   .     A
C540   C546    1.464   .     S
C540   O597    1.272   .     A
C541   C542    1.416   .     A
C541   C543    1.404   .     A
C541   C1142   1.389   1_554 S
C542   C568    1.428   .     A
C542   C545    1.409   .     A
C543   C544    1.392   .     A
C543   H574    1.084   .     S
C544   C556    1.396   .     A
C544   H578    1.083   .     S
C545   H577    1.079   .     S
C545   C556    1.391   .     A
C546   C413    1.358   1_655 S
C546   C424    1.453   1_655 S
C548   C555    1.418   .     A
C548   C557    1.416   .     A
C548   C562    1.450   .     S
C549   C552    1.450   .     S
C549   C148    1.331   1_565 S
C549   H173    1.088   1_565 S
C550   C551    1.434   .     S
C551   O592    1.282   .     A
C551   O598    1.282   .     A
C552   O599    1.268   .     A
C552   O593    1.270   .     A
C553   O590    1.274   .     A
C553   C556    1.453   .     S
C553   O588    1.279   .     A
C554   O591    1.292   .     A
C554   C555    1.482   .     S
C554   O589    1.280   .     A
C555   C559    1.393   .     A
C557   C566    1.422   .     A
C557   C561    1.522   .     S
C558   N582    1.157   .     T
C559   C565    1.402   .     A
C559   H580    1.079   .     S
C560   N583    1.158   .     T
C560   C413    1.451   1_655 S
C561   H581    1.107   .     S
C561   H1175   1.111   .     S
C561   H1176   1.110   .     S
C562   N584    1.158   .     T
C563   N585    1.158   .     T
C563   C569    1.448   .     S
C564   N586    1.158   .     T
C565   C566    1.417   .     A
C565   C567    1.431   .     A
C566   C1173   1.399   .     S
C567   C1171   1.431   .     S
C568   C569    1.424   .     A
C568   C1170   1.431   1_554 S
C569   C570    1.389   .     A
C570   H571    1.083   .     S
C570   C1169   1.399   1_554 S
H572   C1164   1.111   1_554 S
H573   C1164   1.110   1_554 S
H576   C148    1.086   1_565 S
O587   Zn603   1.928   .     S
O587   Zn601   1.952   .     S
O587   Zn600   1.965   .     S
O587   Zn602   1.931   .     S
O588   Zn601   1.924   .     S
O589   Zn603   1.939   .     S
O590   Zn602   1.934   .     S
O591   Zn600   1.920   .     S
O592   Zn600   1.927   .     S
O593   Zn603   1.928   .     S
O594   Zn601   1.937   .     S
O595   Zn602   1.952   .     S
O596   Zn603   1.949   .     S
O597   Zn600   1.935   .     S
O598   Zn601   1.933   .     S
O599   Zn602   1.927   .     S
C604   C614    1.434   .     S
C604   O661    1.270   .     A
C604   O663    1.263   .     A
C605   C606    1.392   .     A
C605   C634    1.431   .     A
C605   C631    1.447   .     S
C606   H646    1.086   .     S
C606   C5      1.389   1_556 S
C607   O662    1.286   .     A
C607   C613    1.464   .     S
C607   O664    1.272   .     A
C608   C609    1.416   .     A
C608   C610    1.404   .     A
C609   C635    1.428   .     A
C609   C612    1.409   .     A
C610   C611    1.392   .     A
C610   H641    1.084   .     S
C611   C623    1.396   .     A
C611   H645    1.083   .     S
C612   H644    1.079   .     S
C612   C623    1.391   .     A
C613   C681    1.358   .     S
C613   C692    1.453   .     S
C614   C747    1.358   1_455 S
C614   C761    1.451   1_455 S
C615   C622    1.418   .     A
C615   C624    1.416   .     A
C615   C629    1.450   .     S
C616   C619    1.450   .     S
C616   C818    1.331   .     S
C616   H843    1.088   .     S
C617   C618    1.434   .     S
C617   C1018   1.331   1_545 S
C617   H1045   1.086   1_545 S
C618   O659    1.282   .     A
C618   O665    1.282   .     A
C619   O666    1.268   .     A
C619   O660    1.270   .     A
C620   O657    1.274   .     A
C620   C623    1.453   .     S
C620   O655    1.279   .     A
C621   O658    1.292   .     A
C621   C622    1.482   .     S
C621   O656    1.280   .     A
C622   C626    1.393   .     A
C624   C633    1.422   .     A
C624   C628    1.522   .     S
C625   N649    1.157   .     T
C625   C747    1.453   1_455 S
C626   C632    1.402   .     A
C626   H647    1.079   .     S
C627   N650    1.158   .     T
C627   C681    1.451   .     S
C628   H648    1.107   .     S
C628   H36     1.111   1_556 S
C628   H37     1.110   1_556 S
C629   N651    1.158   .     T
C630   N652    1.158   .     T
C630   C636    1.448   .     S
C631   N653    1.158   .     T
C632   C633    1.417   .     A
C632   C634    1.431   .     A
C633   C34     1.399   1_556 S
C634   C32     1.431   1_556 S
C635   C636    1.424   .     A
C636   C637    1.389   .     A
C637   H638    1.083   .     S
H642   C1018   1.088   1_545 S
H643   C818    1.086   .     S
O654   Zn670   1.928   .     S
O654   Zn668   1.952   .     S
O654   Zn667   1.965   .     S
O654   Zn669   1.931   .     S
O655   Zn668   1.924   .     S
O656   Zn670   1.939   .     S
O657   Zn669   1.934   .     S
O658   Zn667   1.920   .     S
O659   Zn667   1.927   .     S
O660   Zn670   1.928   .     S
O661   Zn668   1.937   .     S
O662   Zn669   1.952   .     S
O663   Zn670   1.949   .     S
O664   Zn667   1.935   .     S
O665   Zn668   1.933   .     S
O666   Zn669   1.927   .     S
C671   C681    1.434   .     S
C671   O728    1.270   .     A
C671   O730    1.263   .     A
C672   C673    1.392   .     A
C672   C701    1.431   .     A
C672   C698    1.447   .     S
C673   H713    1.086   .     S
C673   C72     1.389   1_556 S
C674   O729    1.286   .     A
C674   C680    1.464   .     S
C674   O731    1.272   .     A
C675   C676    1.416   .     A
C675   C677    1.404   .     A
C676   C702    1.428   .     A
C676   C679    1.409   .     A
C677   C678    1.392   .     A
C677   H708    1.084   .     S
C678   C690    1.396   .     A
C678   H712    1.083   .     S
C679   H711    1.079   .     S
C679   C690    1.391   .     A
C680   C748    1.358   .     S
C680   C759    1.453   .     S
C682   C689    1.418   .     A
C682   C691    1.416   .     A
C682   C696    1.450   .     S
C683   C686    1.450   .     S
C683   C885    1.331   .     S
C683   H910    1.088   .     S
C684   C685    1.434   .     S
C684   C1085   1.331   1_545 S
C684   H1112   1.086   1_545 S
C685   O726    1.282   .     A
C685   O732    1.282   .     A
C686   O733    1.268   .     A
C686   O727    1.270   .     A
C687   O724    1.274   .     A
C687   C690    1.453   .     S
C687   O722    1.279   .     A
C688   O725    1.292   .     A
C688   C689    1.482   .     S
C688   O723    1.280   .     A
C689   C693    1.393   .     A
C691   C700    1.422   .     A
C691   C695    1.522   .     S
C692   N716    1.157   .     T
C693   C699    1.402   .     A
C693   H714    1.079   .     S
C694   N717    1.158   .     T
C694   C748    1.451   .     S
C695   H715    1.107   .     S
C695   H103    1.111   1_556 S
C695   H104    1.110   1_556 S
C696   N718    1.158   .     T
C697   N719    1.158   .     T
C697   C703    1.448   .     S
C698   N720    1.158   .     T
C699   C700    1.417   .     A
C699   C701    1.431   .     A
C700   C101    1.399   1_556 S
C701   C99     1.431   1_556 S
C702   C703    1.424   .     A
C703   C704    1.389   .     A
C704   H705    1.083   .     S
H709   C1085   1.088   1_545 S
H710   C885    1.086   .     S
O721   Zn737   1.928   .     S
O721   Zn735   1.952   .     S
O721   Zn734   1.965   .     S
O721   Zn736   1.931   .     S
O722   Zn735   1.924   .     S
O723   Zn737   1.939   .     S
O724   Zn736   1.934   .     S
O725   Zn734   1.920   .     S
O726   Zn734   1.927   .     S
O727   Zn737   1.928   .     S
O728   Zn735   1.937   .     S
O729   Zn736   1.952   .     S
O730   Zn737   1.949   .     S
O731   Zn734   1.935   .     S
O732   Zn735   1.933   .     S
O733   Zn736   1.927   .     S
C738   C748    1.434   .     S
C738   O795    1.270   .     A
C738   O797    1.263   .     A
C739   C740    1.392   .     A
C739   C768    1.431   .     A
C739   C765    1.447   .     S
C740   H780    1.086   .     S
C740   C139    1.389   1_556 S
C741   O796    1.286   .     A
C741   C747    1.464   .     S
C741   O798    1.272   .     A
C742   C743    1.416   .     A
C742   C744    1.404   .     A
C743   C769    1.428   .     A
C743   C746    1.409   .     A
C744   C745    1.392   .     A
C744   H775    1.084   .     S
C745   C757    1.396   .     A
C745   H779    1.083   .     S
C746   H778    1.079   .     S
C746   C757    1.391   .     A
C747   C614    1.358   1_655 S
C747   C625    1.453   1_655 S
C749   C756    1.418   .     A
C749   C758    1.416   .     A
C749   C763    1.450   .     S
C750   C753    1.450   .     S
C750   C952    1.331   .     S
C750   H977    1.088   .     S
C751   C752    1.434   .     S
C751   C1152   1.331   1_545 S
C751   H1179   1.086   1_545 S
C752   O793    1.282   .     A
C752   O799    1.282   .     A
C753   O800    1.268   .     A
C753   O794    1.270   .     A
C754   O791    1.274   .     A
C754   C757    1.453   .     S
C754   O789    1.279   .     A
C755   O792    1.292   .     A
C755   C756    1.482   .     S
C755   O790    1.280   .     A
C756   C760    1.393   .     A
C758   C767    1.422   .     A
C758   C762    1.522   .     S
C759   N783    1.157   .     T
C760   C766    1.402   .     A
C760   H781    1.079   .     S
C761   N784    1.158   .     T
C761   C614    1.451   1_655 S
C762   H782    1.107   .     S
C762   H170    1.111   1_556 S
C762   H171    1.110   1_556 S
C763   N785    1.158   .     T
C764   N786    1.158   .     T
C764   C770    1.448   .     S
C765   N787    1.158   .     T
C766   C767    1.417   .     A
C766   C768    1.431   .     A
C767   C168    1.399   1_556 S
C768   C166    1.431   1_556 S
C769   C770    1.424   .     A
C770   C771    1.389   .     A
C771   H772    1.083   .     S
H776   C1152   1.088   1_545 S
H777   C952    1.086   .     S
O788   Zn804   1.928   .     S
O788   Zn802   1.952   .     S
O788   Zn801   1.965   .     S
O788   Zn803   1.931   .     S
O789   Zn802   1.924   .     S
O790   Zn804   1.939   .     S
O791   Zn803   1.934   .     S
O792   Zn801   1.920   .     S
O793   Zn801   1.927   .     S
O794   Zn804   1.928   .     S
O795   Zn802   1.937   .     S
O796   Zn803   1.952   .     S
O797   Zn804   1.949   .     S
O798   Zn801   1.935   .     S
O799   Zn802   1.933   .     S
O800   Zn803   1.927   .     S
C805   C815    1.434   .     S
C805   O862    1.270   .     A
C805   O864    1.263   .     A
C806   C807    1.392   .     A
C806   C835    1.431   .     A
C806   C832    1.447   .     S
C807   H847    1.086   .     S
C807   C206    1.389   1_556 S
C808   O863    1.286   .     A
C808   C814    1.464   .     S
C808   O865    1.272   .     A
C809   C810    1.416   .     A
C809   C811    1.404   .     A
C810   C836    1.428   .     A
C810   C813    1.409   .     A
C811   C812    1.392   .     A
C811   H842    1.084   .     S
C812   C824    1.396   .     A
C812   H846    1.083   .     S
C813   H845    1.079   .     S
C813   C824    1.391   .     A
C814   C882    1.358   .     S
C814   C893    1.453   .     S
C815   C948    1.358   1_455 S
C815   C962    1.451   1_455 S
C816   C823    1.418   .     A
C816   C825    1.416   .     A
C816   C830    1.450   .     S
C817   C820    1.450   .     S
C817   C1019   1.331   .     S
C817   H1044   1.088   .     S
C818   C819    1.434   .     S
C819   O860    1.282   .     A
C819   O866    1.282   .     A
C820   O867    1.268   .     A
C820   O861    1.270   .     A
C821   O858    1.274   .     A
C821   C824    1.453   .     S
C821   O856    1.279   .     A
C822   O859    1.292   .     A
C822   C823    1.482   .     S
C822   O857    1.280   .     A
C823   C827    1.393   .     A
C825   C834    1.422   .     A
C825   C829    1.522   .     S
C826   N850    1.157   .     T
C826   C948    1.453   1_455 S
C827   C833    1.402   .     A
C827   H848    1.079   .     S
C828   N851    1.158   .     T
C828   C882    1.451   .     S
C829   H849    1.107   .     S
C829   H237    1.111   1_556 S
C829   H238    1.110   1_556 S
C830   N852    1.158   .     T
C831   N853    1.158   .     T
C831   C837    1.448   .     S
C832   N854    1.158   .     T
C833   C834    1.417   .     A
C833   C835    1.431   .     A
C834   C235    1.399   1_556 S
C835   C233    1.431   1_556 S
C836   C837    1.424   .     A
C837   C838    1.389   .     A
C838   H839    1.083   .     S
H844   C1019   1.086   .     S
O855   Zn871   1.928   .     S
O855   Zn869   1.952   .     S
O855   Zn868   1.965   .     S
O855   Zn870   1.931   .     S
O856   Zn869   1.924   .     S
O857   Zn871   1.939   .     S
O858   Zn870   1.934   .     S
O859   Zn868   1.920   .     S
O860   Zn868   1.927   .     S
O861   Zn871   1.928   .     S
O862   Zn869   1.937   .     S
O863   Zn870   1.952   .     S
O864   Zn871   1.949   .     S
O865   Zn868   1.935   .     S
O866   Zn869   1.933   .     S
O867   Zn870   1.927   .     S
C872   C882    1.434   .     S
C872   O929    1.270   .     A
C872   O931    1.263   .     A
C873   C874    1.392   .     A
C873   C902    1.431   .     A
C873   C899    1.447   .     S
C874   H914    1.086   .     S
C874   C273    1.389   1_556 S
C875   O930    1.286   .     A
C875   C881    1.464   .     S
C875   O932    1.272   .     A
C876   C877    1.416   .     A
C876   C878    1.404   .     A
C877   C903    1.428   .     A
C877   C880    1.409   .     A
C878   C879    1.392   .     A
C878   H909    1.084   .     S
C879   C891    1.396   .     A
C879   H913    1.083   .     S
C880   H912    1.079   .     S
C880   C891    1.391   .     A
C881   C949    1.358   .     S
C881   C960    1.453   .     S
C883   C890    1.418   .     A
C883   C892    1.416   .     A
C883   C897    1.450   .     S
C884   C887    1.450   .     S
C884   C1086   1.331   .     S
C884   H1111   1.088   .     S
C885   C886    1.434   .     S
C886   O927    1.282   .     A
C886   O933    1.282   .     A
C887   O934    1.268   .     A
C887   O928    1.270   .     A
C888   O925    1.274   .     A
C888   C891    1.453   .     S
C888   O923    1.279   .     A
C889   O926    1.292   .     A
C889   C890    1.482   .     S
C889   O924    1.280   .     A
C890   C894    1.393   .     A
C892   C901    1.422   .     A
C892   C896    1.522   .     S
C893   N917    1.157   .     T
C894   C900    1.402   .     A
C894   H915    1.079   .     S
C895   N918    1.158   .     T
C895   C949    1.451   .     S
C896   H916    1.107   .     S
C896   H304    1.111   1_556 S
C896   H305    1.110   1_556 S
C897   N919    1.158   .     T
C898   N920    1.158   .     T
C898   C904    1.448   .     S
C899   N921    1.158   .     T
C900   C901    1.417   .     A
C900   C902    1.431   .     A
C901   C302    1.399   1_556 S
C902   C300    1.431   1_556 S
C903   C904    1.424   .     A
C904   C905    1.389   .     A
C905   H906    1.083   .     S
H911   C1086   1.086   .     S
O922   Zn938   1.928   .     S
O922   Zn936   1.952   .     S
O922   Zn935   1.965   .     S
O922   Zn937   1.931   .     S
O923   Zn936   1.924   .     S
O924   Zn938   1.939   .     S
O925   Zn937   1.934   .     S
O926   Zn935   1.920   .     S
O927   Zn935   1.927   .     S
O928   Zn938   1.928   .     S
O929   Zn936   1.937   .     S
O930   Zn937   1.952   .     S
O931   Zn938   1.949   .     S
O932   Zn935   1.935   .     S
O933   Zn936   1.933   .     S
O934   Zn937   1.927   .     S
C939   C949    1.434   .     S
C939   O996    1.270   .     A
C939   O998    1.263   .     A
C940   C941    1.392   .     A
C940   C969    1.431   .     A
C940   C966    1.447   .     S
C941   H981    1.086   .     S
C941   C340    1.389   1_556 S
C942   O997    1.286   .     A
C942   C948    1.464   .     S
C942   O999    1.272   .     A
C943   C944    1.416   .     A
C943   C945    1.404   .     A
C944   C970    1.428   .     A
C944   C947    1.409   .     A
C945   C946    1.392   .     A
C945   H976    1.084   .     S
C946   C958    1.396   .     A
C946   H980    1.083   .     S
C947   H979    1.079   .     S
C947   C958    1.391   .     A
C948   C815    1.358   1_655 S
C948   C826    1.453   1_655 S
C950   C957    1.418   .     A
C950   C959    1.416   .     A
C950   C964    1.450   .     S
C951   C954    1.450   .     S
C951   C1153   1.331   .     S
C951   H1178   1.088   .     S
C952   C953    1.434   .     S
C953   O994    1.282   .     A
C953   O1000   1.282   .     A
C954   O1001   1.268   .     A
C954   O995    1.270   .     A
C955   O992    1.274   .     A
C955   C958    1.453   .     S
C955   O990    1.279   .     A
C956   O993    1.292   .     A
C956   C957    1.482   .     S
C956   O991    1.280   .     A
C957   C961    1.393   .     A
C959   C968    1.422   .     A
C959   C963    1.522   .     S
C960   N984    1.157   .     T
C961   C967    1.402   .     A
C961   H982    1.079   .     S
C962   N985    1.158   .     T
C962   C815    1.451   1_655 S
C963   H983    1.107   .     S
C963   H371    1.111   1_556 S
C963   H372    1.110   1_556 S
C964   N986    1.158   .     T
C965   N987    1.158   .     T
C965   C971    1.448   .     S
C966   N988    1.158   .     T
C967   C968    1.417   .     A
C967   C969    1.431   .     A
C968   C369    1.399   1_556 S
C969   C367    1.431   1_556 S
C970   C971    1.424   .     A
C971   C972    1.389   .     A
C972   H973    1.083   .     S
H978   C1153   1.086   .     S
O989   Zn1005  1.928   .     S
O989   Zn1003  1.952   .     S
O989   Zn1002  1.965   .     S
O989   Zn1004  1.931   .     S
O990   Zn1003  1.924   .     S
O991   Zn1005  1.939   .     S
O992   Zn1004  1.934   .     S
O993   Zn1002  1.920   .     S
O994   Zn1002  1.927   .     S
O995   Zn1005  1.928   .     S
O996   Zn1003  1.937   .     S
O997   Zn1004  1.952   .     S
O998   Zn1005  1.949   .     S
O999   Zn1002  1.935   .     S
O1000  Zn1003  1.933   .     S
O1001  Zn1004  1.927   .     S
C1006  C1016   1.434   .     S
C1006  O1063   1.270   .     A
C1006  O1065   1.263   .     A
C1007  C1008   1.392   .     A
C1007  C1036   1.431   .     A
C1007  C1033   1.447   .     S
C1008  H1048   1.086   .     S
C1008  C407    1.389   1_556 S
C1009  O1064   1.286   .     A
C1009  C1015   1.464   .     S
C1009  O1066   1.272   .     A
C1010  C1011   1.416   .     A
C1010  C1012   1.404   .     A
C1011  C1037   1.428   .     A
C1011  C1014   1.409   .     A
C1012  C1013   1.392   .     A
C1012  H1043   1.084   .     S
C1013  C1025   1.396   .     A
C1013  H1047   1.083   .     S
C1014  H1046   1.079   .     S
C1014  C1025   1.391   .     A
C1015  C1083   1.358   .     S
C1015  C1094   1.453   .     S
C1016  C1149   1.358   1_455 S
C1016  C1163   1.451   1_455 S
C1017  C1024   1.418   .     A
C1017  C1026   1.416   .     A
C1017  C1031   1.450   .     S
C1018  C1021   1.450   .     S
C1018  C617    1.331   1_565 S
C1018  H642    1.088   1_565 S
C1019  C1020   1.434   .     S
C1020  O1061   1.282   .     A
C1020  O1067   1.282   .     A
C1021  O1068   1.268   .     A
C1021  O1062   1.270   .     A
C1022  O1059   1.274   .     A
C1022  C1025   1.453   .     S
C1022  O1057   1.279   .     A
C1023  O1060   1.292   .     A
C1023  C1024   1.482   .     S
C1023  O1058   1.280   .     A
C1024  C1028   1.393   .     A
C1026  C1035   1.422   .     A
C1026  C1030   1.522   .     S
C1027  N1051   1.157   .     T
C1027  C1149   1.453   1_455 S
C1028  C1034   1.402   .     A
C1028  H1049   1.079   .     S
C1029  N1052   1.158   .     T
C1029  C1083   1.451   .     S
C1030  H1050   1.107   .     S
C1030  H438    1.111   1_556 S
C1030  H439    1.110   1_556 S
C1031  N1053   1.158   .     T
C1032  N1054   1.158   .     T
C1032  C1038   1.448   .     S
C1033  N1055   1.158   .     T
C1034  C1035   1.417   .     A
C1034  C1036   1.431   .     A
C1035  C436    1.399   1_556 S
C1036  C434    1.431   1_556 S
C1037  C1038   1.424   .     A
C1038  C1039   1.389   .     A
C1039  H1040   1.083   .     S
H1045  C617    1.086   1_565 S
O1056  Zn1072  1.928   .     S
O1056  Zn1070  1.952   .     S
O1056  Zn1069  1.965   .     S
O1056  Zn1071  1.931   .     S
O1057  Zn1070  1.924   .     S
O1058  Zn1072  1.939   .     S
O1059  Zn1071  1.934   .     S
O1060  Zn1069  1.920   .     S
O1061  Zn1069  1.927   .     S
O1062  Zn1072  1.928   .     S
O1063  Zn1070  1.937   .     S
O1064  Zn1071  1.952   .     S
O1065  Zn1072  1.949   .     S
O1066  Zn1069  1.935   .     S
O1067  Zn1070  1.933   .     S
O1068  Zn1071  1.927   .     S
C1073  C1083   1.434   .     S
C1073  O1130   1.270   .     A
C1073  O1132   1.263   .     A
C1074  C1075   1.392   .     A
C1074  C1103   1.431   .     A
C1074  C1100   1.447   .     S
C1075  H1115   1.086   .     S
C1075  C474    1.389   1_556 S
C1076  O1131   1.286   .     A
C1076  C1082   1.464   .     S
C1076  O1133   1.272   .     A
C1077  C1078   1.416   .     A
C1077  C1079   1.404   .     A
C1078  C1104   1.428   .     A
C1078  C1081   1.409   .     A
C1079  C1080   1.392   .     A
C1079  H1110   1.084   .     S
C1080  C1092   1.396   .     A
C1080  H1114   1.083   .     S
C1081  H1113   1.079   .     S
C1081  C1092   1.391   .     A
C1082  C1150   1.358   .     S
C1082  C1161   1.453   .     S
C1084  C1091   1.418   .     A
C1084  C1093   1.416   .     A
C1084  C1098   1.450   .     S
C1085  C1088   1.450   .     S
C1085  C684    1.331   1_565 S
C1085  H709    1.088   1_565 S
C1086  C1087   1.434   .     S
C1087  O1128   1.282   .     A
C1087  O1134   1.282   .     A
C1088  O1135   1.268   .     A
C1088  O1129   1.270   .     A
C1089  O1126   1.274   .     A
C1089  C1092   1.453   .     S
C1089  O1124   1.279   .     A
C1090  O1127   1.292   .     A
C1090  C1091   1.482   .     S
C1090  O1125   1.280   .     A
C1091  C1095   1.393   .     A
C1093  C1102   1.422   .     A
C1093  C1097   1.522   .     S
C1094  N1118   1.157   .     T
C1095  C1101   1.402   .     A
C1095  H1116   1.079   .     S
C1096  N1119   1.158   .     T
C1096  C1150   1.451   .     S
C1097  H1117   1.107   .     S
C1097  H505    1.111   1_556 S
C1097  H506    1.110   1_556 S
C1098  N1120   1.158   .     T
C1099  N1121   1.158   .     T
C1099  C1105   1.448   .     S
C1100  N1122   1.158   .     T
C1101  C1102   1.417   .     A
C1101  C1103   1.431   .     A
C1102  C503    1.399   1_556 S
C1103  C501    1.431   1_556 S
C1104  C1105   1.424   .     A
C1105  C1106   1.389   .     A
C1106  H1107   1.083   .     S
H1112  C684    1.086   1_565 S
O1123  Zn1139  1.928   .     S
O1123  Zn1137  1.952   .     S
O1123  Zn1136  1.965   .     S
O1123  Zn1138  1.931   .     S
O1124  Zn1137  1.924   .     S
O1125  Zn1139  1.939   .     S
O1126  Zn1138  1.934   .     S
O1127  Zn1136  1.920   .     S
O1128  Zn1136  1.927   .     S
O1129  Zn1139  1.928   .     S
O1130  Zn1137  1.937   .     S
O1131  Zn1138  1.952   .     S
O1132  Zn1139  1.949   .     S
O1133  Zn1136  1.935   .     S
O1134  Zn1137  1.933   .     S
O1135  Zn1138  1.927   .     S
C1140  C1150   1.434   .     S
C1140  O1197   1.270   .     A
C1140  O1199   1.263   .     A
C1141  C1142   1.392   .     A
C1141  C1170   1.431   .     A
C1141  C1167   1.447   .     S
C1142  H1182   1.086   .     S
C1142  C541    1.389   1_556 S
C1143  O1198   1.286   .     A
C1143  C1149   1.464   .     S
C1143  O1200   1.272   .     A
C1144  C1145   1.416   .     A
C1144  C1146   1.404   .     A
C1145  C1171   1.428   .     A
C1145  C1148   1.409   .     A
C1146  C1147   1.392   .     A
C1146  H1177   1.084   .     S
C1147  C1159   1.396   .     A
C1147  H1181   1.083   .     S
C1148  H1180   1.079   .     S
C1148  C1159   1.391   .     A
C1149  C1016   1.358   1_655 S
C1149  C1027   1.453   1_655 S
C1151  C1158   1.418   .     A
C1151  C1160   1.416   .     A
C1151  C1165   1.450   .     S
C1152  C1155   1.450   .     S
C1152  C751    1.331   1_565 S
C1152  H776    1.088   1_565 S
C1153  C1154   1.434   .     S
C1154  O1195   1.282   .     A
C1154  O1201   1.282   .     A
C1155  O1202   1.268   .     A
C1155  O1196   1.270   .     A
C1156  O1193   1.274   .     A
C1156  C1159   1.453   .     S
C1156  O1191   1.279   .     A
C1157  O1194   1.292   .     A
C1157  C1158   1.482   .     S
C1157  O1192   1.280   .     A
C1158  C1162   1.393   .     A
C1160  C1169   1.422   .     A
C1160  C1164   1.522   .     S
C1161  N1185   1.157   .     T
C1162  C1168   1.402   .     A
C1162  H1183   1.079   .     S
C1163  N1186   1.158   .     T
C1163  C1016   1.451   1_655 S
C1164  H1184   1.107   .     S
C1164  H572    1.111   1_556 S
C1164  H573    1.110   1_556 S
C1165  N1187   1.158   .     T
C1166  N1188   1.158   .     T
C1166  C1172   1.448   .     S
C1167  N1189   1.158   .     T
C1168  C1169   1.417   .     A
C1168  C1170   1.431   .     A
C1169  C570    1.399   1_556 S
C1170  C568    1.431   1_556 S
C1171  C1172   1.424   .     A
C1172  C1173   1.389   .     A
C1173  H1174   1.083   .     S
H1179  C751    1.086   1_565 S
O1190  Zn1206  1.928   .     S
O1190  Zn1204  1.952   .     S
O1190  Zn1203  1.965   .     S
O1190  Zn1205  1.931   .     S
O1191  Zn1204  1.924   .     S
O1192  Zn1206  1.939   .     S
O1193  Zn1205  1.934   .     S
O1194  Zn1203  1.920   .     S
O1195  Zn1203  1.927   .     S
O1196  Zn1206  1.928   .     S
O1197  Zn1204  1.937   .     S
O1198  Zn1205  1.952   .     S
O1199  Zn1206  1.949   .     S
O1200  Zn1203  1.935   .     S
O1201  Zn1204  1.933   .     S
O1202  Zn1205  1.927   .     S
