data_str_m2_o1_o10_pcu_sym.89
_audit_creation_date              2020-01-03
_audit_creation_method            'Materials Studio'
_symmetry_space_group_name_H-M    'P1'
_symmetry_Int_Tables_number       1
_symmetry_cell_setting            triclinic
loop_
_symmetry_equiv_pos_as_xyz
  x,y,z
_cell_length_a                    26.4025
_cell_length_b                    32.4348
_cell_length_c                    28.5576
_cell_angle_alpha                 89.7291
_cell_angle_beta                  97.7975
_cell_angle_gamma                 89.9405
loop_
_atom_site_label
_atom_site_type_symbol
_atom_site_fract_x
_atom_site_fract_y
_atom_site_fract_z
_atom_site_U_iso_or_equiv
_atom_site_adp_type
_atom_site_occupancy
C1     C     0.16548   0.08742   0.16665   0.00000  Uiso   1.00
C2     C     0.13788   0.02041   0.19750   0.00000  Uiso   1.00
C3     C     0.16820   0.29052   0.16651   0.00000  Uiso   1.00
C4     C     0.16513   0.04281   0.16682   0.00000  Uiso   1.00
C5     C     0.13057   0.14519   0.02038   0.00000  Uiso   1.00
C6     C     0.20277   0.18815   0.31296   0.00000  Uiso   1.00
C7     C     0.13053   0.14526   0.30412   0.00000  Uiso   1.00
C8     C     0.20280   0.18808   0.02922   0.00000  Uiso   1.00
C9     C     0.32544   0.13320   0.10941   0.00000  Uiso   1.00
C10    C     0.00790   0.20013   0.22393   0.00000  Uiso   1.00
C11    C     0.16786   0.24591   0.16669   0.00000  Uiso   1.00
C12    C     0.06808   0.16638   0.15475   0.00000  Uiso   1.00
C13    C     0.26525   0.16695   0.17859   0.00000  Uiso   1.00
C14    C     0.01352   0.16034   0.14930   0.00000  Uiso   1.00
C15    C     0.31981   0.17299   0.18403   0.00000  Uiso   1.00
C16    C     0.19337   0.02227   0.13601   0.00000  Uiso   1.00
C17    C     0.13996   0.31106   0.19732   0.00000  Uiso   1.00
C18    C     0.19545   0.31292   0.13583   0.00000  Uiso   1.00
Cl19   Cl    0.23504   0.28926   0.09875   0.00000  Uiso   1.00
Cl20   Cl    0.09829   0.04407   0.23458   0.00000  Uiso   1.00
Cu21   Cu    0.16667   0.16667   0.21355   0.00000  Uiso   1.00
Cu22   Cu    0.16667   0.16666   0.11978   0.00000  Uiso   1.00
H23    H     0.21475   0.03947   0.11268   0.00000  Uiso   1.00
H24    H     0.11858   0.29386   0.22065   0.00000  Uiso   1.00
H25    H     0.10174   0.12786   0.03550   0.00000  Uiso   1.00
H26    H     0.23160   0.20547   0.29783   0.00000  Uiso   1.00
H27    H     0.10154   0.12813   0.28193   0.00000  Uiso   1.00
H28    H     0.23179   0.20520   0.05140   0.00000  Uiso   1.00
H29    H     0.28525   0.08219   0.08843   0.00000  Uiso   1.00
H30    H     0.04808   0.25114   0.24490   0.00000  Uiso   1.00
N31    N     0.16668   0.16668   0.28403   0.00000  Uiso   1.00
N32    N     0.16665   0.16666   0.04931   0.00000  Uiso   1.00
O33    O     0.16666   0.10655   0.20625   0.00000  Uiso   1.00
O34    O     0.29731   0.09819   0.11828   0.00000  Uiso   1.00
O35    O     0.33326   0.19225   0.26421   0.00000  Uiso   1.00
O36    O     0.03602   0.23515   0.21506   0.00000  Uiso   1.00
O37    O     0.16667   0.22678   0.12709   0.00000  Uiso   1.00
O38    O     0.16666   0.10654   0.12706   0.00000  Uiso   1.00
O39    O     0.16667   0.22679   0.20628   0.00000  Uiso   1.00
O40    O     0.09161   0.16667   0.19712   0.00000  Uiso   1.00
O41    O     0.24172   0.16666   0.13621   0.00000  Uiso   1.00
O42    O     0.09161   0.16666   0.11793   0.00000  Uiso   1.00
O43    O     0.24172   0.16667   0.21540   0.00000  Uiso   1.00
O44    O     0.00007   0.14108   0.06912   0.00000  Uiso   1.00
C45    C     0.49881   0.08742   0.16665   0.00000  Uiso   1.00
C46    C     0.47121   0.02041   0.19750   0.00000  Uiso   1.00
C47    C     0.50154   0.29052   0.16651   0.00000  Uiso   1.00
C48    C     0.49846   0.04281   0.16682   0.00000  Uiso   1.00
C49    C     0.46390   0.14519   0.02038   0.00000  Uiso   1.00
C50    C     0.53610   0.18815   0.31296   0.00000  Uiso   1.00
C51    C     0.46387   0.14526   0.30412   0.00000  Uiso   1.00
C52    C     0.53613   0.18808   0.02922   0.00000  Uiso   1.00
C53    C     0.65877   0.13320   0.10941   0.00000  Uiso   1.00
C54    C     0.34123   0.20013   0.22393   0.00000  Uiso   1.00
C55    C     0.50119   0.24591   0.16669   0.00000  Uiso   1.00
C56    C     0.40141   0.16638   0.15475   0.00000  Uiso   1.00
C57    C     0.59859   0.16695   0.17859   0.00000  Uiso   1.00
C58    C     0.34686   0.16034   0.14930   0.00000  Uiso   1.00
C59    C     0.65314   0.17299   0.18403   0.00000  Uiso   1.00
C60    C     0.52671   0.02227   0.13601   0.00000  Uiso   1.00
C61    C     0.47329   0.31106   0.19732   0.00000  Uiso   1.00
C62    C     0.52879   0.31292   0.13583   0.00000  Uiso   1.00
Cl63   Cl    0.56838   0.28926   0.09875   0.00000  Uiso   1.00
Cl64   Cl    0.43162   0.04407   0.23458   0.00000  Uiso   1.00
Cu65   Cu    0.50000   0.16667   0.21355   0.00000  Uiso   1.00
Cu66   Cu    0.50000   0.16666   0.11978   0.00000  Uiso   1.00
H67    H     0.54808   0.03947   0.11268   0.00000  Uiso   1.00
H68    H     0.45192   0.29386   0.22065   0.00000  Uiso   1.00
H69    H     0.43507   0.12786   0.03550   0.00000  Uiso   1.00
H70    H     0.56493   0.20547   0.29783   0.00000  Uiso   1.00
H71    H     0.43487   0.12813   0.28193   0.00000  Uiso   1.00
H72    H     0.56513   0.20520   0.05140   0.00000  Uiso   1.00
H73    H     0.61859   0.08219   0.08843   0.00000  Uiso   1.00
H74    H     0.38141   0.25114   0.24490   0.00000  Uiso   1.00
N75    N     0.50001   0.16668   0.28403   0.00000  Uiso   1.00
N76    N     0.49999   0.16666   0.04931   0.00000  Uiso   1.00
O77    O     0.50000   0.10655   0.20625   0.00000  Uiso   1.00
O78    O     0.63064   0.09819   0.11828   0.00000  Uiso   1.00
O79    O     0.66659   0.19225   0.26421   0.00000  Uiso   1.00
O80    O     0.36936   0.23515   0.21506   0.00000  Uiso   1.00
O81    O     0.50000   0.22678   0.12709   0.00000  Uiso   1.00
O82    O     0.50000   0.10654   0.12706   0.00000  Uiso   1.00
O83    O     0.50000   0.22679   0.20628   0.00000  Uiso   1.00
O84    O     0.42495   0.16667   0.19712   0.00000  Uiso   1.00
O85    O     0.57505   0.16666   0.13621   0.00000  Uiso   1.00
O86    O     0.42494   0.16666   0.11793   0.00000  Uiso   1.00
O87    O     0.57506   0.16667   0.21540   0.00000  Uiso   1.00
O88    O     0.33341   0.14108   0.06912   0.00000  Uiso   1.00
C89    C     0.83214   0.08742   0.16665   0.00000  Uiso   1.00
C90    C     0.80455   0.02041   0.19750   0.00000  Uiso   1.00
C91    C     0.83487   0.29052   0.16651   0.00000  Uiso   1.00
C92    C     0.83180   0.04281   0.16682   0.00000  Uiso   1.00
C93    C     0.79723   0.14519   0.02038   0.00000  Uiso   1.00
C94    C     0.86943   0.18815   0.31296   0.00000  Uiso   1.00
C95    C     0.79720   0.14526   0.30412   0.00000  Uiso   1.00
C96    C     0.86947   0.18808   0.02922   0.00000  Uiso   1.00
C97    C     0.99210   0.13320   0.10941   0.00000  Uiso   1.00
C98    C     0.67456   0.20013   0.22393   0.00000  Uiso   1.00
C99    C     0.83452   0.24591   0.16669   0.00000  Uiso   1.00
C100   C     0.73475   0.16638   0.15475   0.00000  Uiso   1.00
C101   C     0.93192   0.16695   0.17859   0.00000  Uiso   1.00
C102   C     0.68019   0.16034   0.14930   0.00000  Uiso   1.00
C103   C     0.98648   0.17299   0.18403   0.00000  Uiso   1.00
C104   C     0.86004   0.02227   0.13601   0.00000  Uiso   1.00
C105   C     0.80663   0.31106   0.19732   0.00000  Uiso   1.00
C106   C     0.86212   0.31292   0.13583   0.00000  Uiso   1.00
Cl107  Cl    0.90171   0.28926   0.09875   0.00000  Uiso   1.00
Cl108  Cl    0.76495   0.04407   0.23458   0.00000  Uiso   1.00
Cu109  Cu    0.83333   0.16667   0.21355   0.00000  Uiso   1.00
Cu110  Cu    0.83333   0.16666   0.11978   0.00000  Uiso   1.00
H111   H     0.88142   0.03947   0.11268   0.00000  Uiso   1.00
H112   H     0.78525   0.29386   0.22065   0.00000  Uiso   1.00
H113   H     0.76840   0.12786   0.03550   0.00000  Uiso   1.00
H114   H     0.89826   0.20547   0.29783   0.00000  Uiso   1.00
H115   H     0.76820   0.12813   0.28193   0.00000  Uiso   1.00
H116   H     0.89846   0.20520   0.05140   0.00000  Uiso   1.00
H117   H     0.95192   0.08219   0.08843   0.00000  Uiso   1.00
H118   H     0.71475   0.25114   0.24490   0.00000  Uiso   1.00
N119   N     0.83335   0.16668   0.28403   0.00000  Uiso   1.00
N120   N     0.83332   0.16666   0.04931   0.00000  Uiso   1.00
O121   O     0.83333   0.10655   0.20625   0.00000  Uiso   1.00
O122   O     0.96397   0.09819   0.11828   0.00000  Uiso   1.00
O123   O     0.99993   0.19225   0.26421   0.00000  Uiso   1.00
O124   O     0.70269   0.23515   0.21506   0.00000  Uiso   1.00
O125   O     0.83334   0.22678   0.12709   0.00000  Uiso   1.00
O126   O     0.83333   0.10654   0.12706   0.00000  Uiso   1.00
O127   O     0.83334   0.22679   0.20628   0.00000  Uiso   1.00
O128   O     0.75828   0.16667   0.19712   0.00000  Uiso   1.00
O129   O     0.90839   0.16666   0.13621   0.00000  Uiso   1.00
O130   O     0.75828   0.16666   0.11793   0.00000  Uiso   1.00
O131   O     0.90839   0.16667   0.21540   0.00000  Uiso   1.00
O132   O     0.66674   0.14108   0.06912   0.00000  Uiso   1.00
C133   C     0.16548   0.42075   0.16665   0.00000  Uiso   1.00
C134   C     0.13788   0.35374   0.19750   0.00000  Uiso   1.00
C135   C     0.16820   0.62385   0.16651   0.00000  Uiso   1.00
C136   C     0.16513   0.37615   0.16682   0.00000  Uiso   1.00
C137   C     0.13057   0.47852   0.02038   0.00000  Uiso   1.00
C138   C     0.20277   0.52148   0.31296   0.00000  Uiso   1.00
C139   C     0.13053   0.47859   0.30412   0.00000  Uiso   1.00
C140   C     0.20280   0.52141   0.02922   0.00000  Uiso   1.00
C141   C     0.32544   0.46654   0.10941   0.00000  Uiso   1.00
C142   C     0.00790   0.53346   0.22393   0.00000  Uiso   1.00
C143   C     0.16786   0.57925   0.16669   0.00000  Uiso   1.00
C144   C     0.06808   0.49972   0.15475   0.00000  Uiso   1.00
C145   C     0.26525   0.50028   0.17859   0.00000  Uiso   1.00
C146   C     0.01352   0.49368   0.14930   0.00000  Uiso   1.00
C147   C     0.31981   0.50632   0.18403   0.00000  Uiso   1.00
C148   C     0.19337   0.35560   0.13601   0.00000  Uiso   1.00
C149   C     0.13996   0.64440   0.19732   0.00000  Uiso   1.00
C150   C     0.19545   0.64626   0.13583   0.00000  Uiso   1.00
Cl151  Cl    0.23504   0.62259   0.09875   0.00000  Uiso   1.00
Cl152  Cl    0.09829   0.37741   0.23458   0.00000  Uiso   1.00
Cu153  Cu    0.16667   0.50001   0.21355   0.00000  Uiso   1.00
Cu154  Cu    0.16667   0.49999   0.11978   0.00000  Uiso   1.00
H155   H     0.21475   0.37281   0.11268   0.00000  Uiso   1.00
H156   H     0.11858   0.62719   0.22065   0.00000  Uiso   1.00
H157   H     0.10174   0.46119   0.03550   0.00000  Uiso   1.00
H158   H     0.23160   0.53881   0.29783   0.00000  Uiso   1.00
H159   H     0.10154   0.46147   0.28193   0.00000  Uiso   1.00
H160   H     0.23179   0.53853   0.05140   0.00000  Uiso   1.00
H161   H     0.28525   0.41553   0.08843   0.00000  Uiso   1.00
H162   H     0.04808   0.58447   0.24490   0.00000  Uiso   1.00
N163   N     0.16668   0.50001   0.28403   0.00000  Uiso   1.00
N164   N     0.16665   0.49999   0.04931   0.00000  Uiso   1.00
O165   O     0.16666   0.43989   0.20625   0.00000  Uiso   1.00
O166   O     0.29731   0.43152   0.11828   0.00000  Uiso   1.00
O167   O     0.33326   0.52558   0.26421   0.00000  Uiso   1.00
O168   O     0.03602   0.56848   0.21506   0.00000  Uiso   1.00
O169   O     0.16667   0.56011   0.12709   0.00000  Uiso   1.00
O170   O     0.16666   0.43988   0.12706   0.00000  Uiso   1.00
O171   O     0.16667   0.56012   0.20628   0.00000  Uiso   1.00
O172   O     0.09161   0.50000   0.19712   0.00000  Uiso   1.00
O173   O     0.24172   0.50000   0.13621   0.00000  Uiso   1.00
O174   O     0.09161   0.49999   0.11793   0.00000  Uiso   1.00
O175   O     0.24172   0.50001   0.21540   0.00000  Uiso   1.00
O176   O     0.00007   0.47442   0.06912   0.00000  Uiso   1.00
C177   C     0.49881   0.42075   0.16665   0.00000  Uiso   1.00
C178   C     0.47121   0.35374   0.19750   0.00000  Uiso   1.00
C179   C     0.50154   0.62385   0.16651   0.00000  Uiso   1.00
C180   C     0.49846   0.37615   0.16682   0.00000  Uiso   1.00
C181   C     0.46390   0.47852   0.02038   0.00000  Uiso   1.00
C182   C     0.53610   0.52148   0.31296   0.00000  Uiso   1.00
C183   C     0.46387   0.47859   0.30412   0.00000  Uiso   1.00
C184   C     0.53613   0.52141   0.02922   0.00000  Uiso   1.00
C185   C     0.65877   0.46654   0.10941   0.00000  Uiso   1.00
C186   C     0.34123   0.53346   0.22393   0.00000  Uiso   1.00
C187   C     0.50119   0.57925   0.16669   0.00000  Uiso   1.00
C188   C     0.40141   0.49972   0.15475   0.00000  Uiso   1.00
C189   C     0.59859   0.50028   0.17859   0.00000  Uiso   1.00
C190   C     0.34686   0.49368   0.14930   0.00000  Uiso   1.00
C191   C     0.65314   0.50632   0.18403   0.00000  Uiso   1.00
C192   C     0.52671   0.35560   0.13601   0.00000  Uiso   1.00
C193   C     0.47329   0.64440   0.19732   0.00000  Uiso   1.00
C194   C     0.52879   0.64626   0.13583   0.00000  Uiso   1.00
Cl195  Cl    0.56838   0.62259   0.09875   0.00000  Uiso   1.00
Cl196  Cl    0.43162   0.37741   0.23458   0.00000  Uiso   1.00
Cu197  Cu    0.50000   0.50001   0.21355   0.00000  Uiso   1.00
Cu198  Cu    0.50000   0.49999   0.11978   0.00000  Uiso   1.00
H199   H     0.54808   0.37281   0.11268   0.00000  Uiso   1.00
H200   H     0.45192   0.62719   0.22065   0.00000  Uiso   1.00
H201   H     0.43507   0.46119   0.03550   0.00000  Uiso   1.00
H202   H     0.56493   0.53881   0.29783   0.00000  Uiso   1.00
H203   H     0.43487   0.46147   0.28193   0.00000  Uiso   1.00
H204   H     0.56513   0.53853   0.05140   0.00000  Uiso   1.00
H205   H     0.61859   0.41553   0.08843   0.00000  Uiso   1.00
H206   H     0.38141   0.58447   0.24490   0.00000  Uiso   1.00
N207   N     0.50001   0.50001   0.28403   0.00000  Uiso   1.00
N208   N     0.49999   0.49999   0.04931   0.00000  Uiso   1.00
O209   O     0.50000   0.43989   0.20625   0.00000  Uiso   1.00
O210   O     0.63064   0.43152   0.11828   0.00000  Uiso   1.00
O211   O     0.66659   0.52558   0.26421   0.00000  Uiso   1.00
O212   O     0.36936   0.56848   0.21506   0.00000  Uiso   1.00
O213   O     0.50000   0.56011   0.12709   0.00000  Uiso   1.00
O214   O     0.50000   0.43988   0.12706   0.00000  Uiso   1.00
O215   O     0.50000   0.56012   0.20628   0.00000  Uiso   1.00
O216   O     0.42495   0.50000   0.19712   0.00000  Uiso   1.00
O217   O     0.57505   0.50000   0.13621   0.00000  Uiso   1.00
O218   O     0.42494   0.49999   0.11793   0.00000  Uiso   1.00
O219   O     0.57506   0.50001   0.21540   0.00000  Uiso   1.00
O220   O     0.33341   0.47442   0.06912   0.00000  Uiso   1.00
C221   C     0.83214   0.42075   0.16665   0.00000  Uiso   1.00
C222   C     0.80455   0.35374   0.19750   0.00000  Uiso   1.00
C223   C     0.83487   0.62385   0.16651   0.00000  Uiso   1.00
C224   C     0.83180   0.37615   0.16682   0.00000  Uiso   1.00
C225   C     0.79723   0.47852   0.02038   0.00000  Uiso   1.00
C226   C     0.86943   0.52148   0.31296   0.00000  Uiso   1.00
C227   C     0.79720   0.47859   0.30412   0.00000  Uiso   1.00
C228   C     0.86947   0.52141   0.02922   0.00000  Uiso   1.00
C229   C     0.99210   0.46654   0.10941   0.00000  Uiso   1.00
C230   C     0.67456   0.53346   0.22393   0.00000  Uiso   1.00
C231   C     0.83452   0.57925   0.16669   0.00000  Uiso   1.00
C232   C     0.73475   0.49972   0.15475   0.00000  Uiso   1.00
C233   C     0.93192   0.50028   0.17859   0.00000  Uiso   1.00
C234   C     0.68019   0.49368   0.14930   0.00000  Uiso   1.00
C235   C     0.98648   0.50632   0.18403   0.00000  Uiso   1.00
C236   C     0.86004   0.35560   0.13601   0.00000  Uiso   1.00
C237   C     0.80663   0.64440   0.19732   0.00000  Uiso   1.00
C238   C     0.86212   0.64626   0.13583   0.00000  Uiso   1.00
Cl239  Cl    0.90171   0.62259   0.09875   0.00000  Uiso   1.00
Cl240  Cl    0.76495   0.37741   0.23458   0.00000  Uiso   1.00
Cu241  Cu    0.83333   0.50001   0.21355   0.00000  Uiso   1.00
Cu242  Cu    0.83333   0.49999   0.11978   0.00000  Uiso   1.00
H243   H     0.88142   0.37281   0.11268   0.00000  Uiso   1.00
H244   H     0.78525   0.62719   0.22065   0.00000  Uiso   1.00
H245   H     0.76840   0.46119   0.03550   0.00000  Uiso   1.00
H246   H     0.89826   0.53881   0.29783   0.00000  Uiso   1.00
H247   H     0.76820   0.46147   0.28193   0.00000  Uiso   1.00
H248   H     0.89846   0.53853   0.05140   0.00000  Uiso   1.00
H249   H     0.95192   0.41553   0.08843   0.00000  Uiso   1.00
H250   H     0.71475   0.58447   0.24490   0.00000  Uiso   1.00
N251   N     0.83335   0.50001   0.28403   0.00000  Uiso   1.00
N252   N     0.83332   0.49999   0.04931   0.00000  Uiso   1.00
O253   O     0.83333   0.43989   0.20625   0.00000  Uiso   1.00
O254   O     0.96397   0.43152   0.11828   0.00000  Uiso   1.00
O255   O     0.99993   0.52558   0.26421   0.00000  Uiso   1.00
O256   O     0.70269   0.56848   0.21506   0.00000  Uiso   1.00
O257   O     0.83334   0.56011   0.12709   0.00000  Uiso   1.00
O258   O     0.83333   0.43988   0.12706   0.00000  Uiso   1.00
O259   O     0.83334   0.56012   0.20628   0.00000  Uiso   1.00
O260   O     0.75828   0.50000   0.19712   0.00000  Uiso   1.00
O261   O     0.90839   0.50000   0.13621   0.00000  Uiso   1.00
O262   O     0.75828   0.49999   0.11793   0.00000  Uiso   1.00
O263   O     0.90839   0.50001   0.21540   0.00000  Uiso   1.00
O264   O     0.66674   0.47442   0.06912   0.00000  Uiso   1.00
C265   C     0.16548   0.75409   0.16665   0.00000  Uiso   1.00
C266   C     0.13788   0.68708   0.19750   0.00000  Uiso   1.00
C267   C     0.16820   0.95719   0.16651   0.00000  Uiso   1.00
C268   C     0.16513   0.70948   0.16682   0.00000  Uiso   1.00
C269   C     0.13057   0.81185   0.02038   0.00000  Uiso   1.00
C270   C     0.20277   0.85481   0.31296   0.00000  Uiso   1.00
C271   C     0.13053   0.81192   0.30412   0.00000  Uiso   1.00
C272   C     0.20280   0.85474   0.02922   0.00000  Uiso   1.00
C273   C     0.32544   0.79987   0.10941   0.00000  Uiso   1.00
C274   C     0.00790   0.86680   0.22393   0.00000  Uiso   1.00
C275   C     0.16786   0.91258   0.16669   0.00000  Uiso   1.00
C276   C     0.06808   0.83305   0.15475   0.00000  Uiso   1.00
C277   C     0.26525   0.83361   0.17859   0.00000  Uiso   1.00
C278   C     0.01352   0.82701   0.14930   0.00000  Uiso   1.00
C279   C     0.31981   0.83966   0.18403   0.00000  Uiso   1.00
C280   C     0.19337   0.68894   0.13601   0.00000  Uiso   1.00
C281   C     0.13996   0.97773   0.19732   0.00000  Uiso   1.00
C282   C     0.19545   0.97959   0.13583   0.00000  Uiso   1.00
Cl283  Cl    0.23504   0.95593   0.09875   0.00000  Uiso   1.00
Cl284  Cl    0.09829   0.71074   0.23458   0.00000  Uiso   1.00
Cu285  Cu    0.16667   0.83334   0.21355   0.00000  Uiso   1.00
Cu286  Cu    0.16667   0.83333   0.11978   0.00000  Uiso   1.00
H287   H     0.21475   0.70614   0.11268   0.00000  Uiso   1.00
H288   H     0.11858   0.96053   0.22065   0.00000  Uiso   1.00
H289   H     0.10174   0.79453   0.03550   0.00000  Uiso   1.00
H290   H     0.23160   0.87214   0.29783   0.00000  Uiso   1.00
H291   H     0.10154   0.79480   0.28193   0.00000  Uiso   1.00
H292   H     0.23179   0.87187   0.05140   0.00000  Uiso   1.00
H293   H     0.28525   0.74886   0.08843   0.00000  Uiso   1.00
H294   H     0.04808   0.91781   0.24490   0.00000  Uiso   1.00
N295   N     0.16668   0.83334   0.28403   0.00000  Uiso   1.00
N296   N     0.16665   0.83332   0.04931   0.00000  Uiso   1.00
O297   O     0.16666   0.77322   0.20625   0.00000  Uiso   1.00
O298   O     0.29731   0.76485   0.11828   0.00000  Uiso   1.00
O299   O     0.33326   0.85892   0.26421   0.00000  Uiso   1.00
O300   O     0.03602   0.90181   0.21506   0.00000  Uiso   1.00
O301   O     0.16667   0.89345   0.12709   0.00000  Uiso   1.00
O302   O     0.16666   0.77321   0.12706   0.00000  Uiso   1.00
O303   O     0.16667   0.89346   0.20628   0.00000  Uiso   1.00
O304   O     0.09161   0.83334   0.19712   0.00000  Uiso   1.00
O305   O     0.24172   0.83333   0.13621   0.00000  Uiso   1.00
O306   O     0.09161   0.83333   0.11793   0.00000  Uiso   1.00
O307   O     0.24172   0.83334   0.21540   0.00000  Uiso   1.00
O308   O     0.00007   0.80775   0.06912   0.00000  Uiso   1.00
C309   C     0.49881   0.75409   0.16665   0.00000  Uiso   1.00
C310   C     0.47121   0.68708   0.19750   0.00000  Uiso   1.00
C311   C     0.50154   0.95719   0.16651   0.00000  Uiso   1.00
C312   C     0.49846   0.70948   0.16682   0.00000  Uiso   1.00
C313   C     0.46390   0.81185   0.02038   0.00000  Uiso   1.00
C314   C     0.53610   0.85481   0.31296   0.00000  Uiso   1.00
C315   C     0.46387   0.81192   0.30412   0.00000  Uiso   1.00
C316   C     0.53613   0.85474   0.02922   0.00000  Uiso   1.00
C317   C     0.65877   0.79987   0.10941   0.00000  Uiso   1.00
C318   C     0.34123   0.86680   0.22393   0.00000  Uiso   1.00
C319   C     0.50119   0.91258   0.16669   0.00000  Uiso   1.00
C320   C     0.40141   0.83305   0.15475   0.00000  Uiso   1.00
C321   C     0.59859   0.83361   0.17859   0.00000  Uiso   1.00
C322   C     0.34686   0.82701   0.14930   0.00000  Uiso   1.00
C323   C     0.65314   0.83966   0.18403   0.00000  Uiso   1.00
C324   C     0.52671   0.68894   0.13601   0.00000  Uiso   1.00
C325   C     0.47329   0.97773   0.19732   0.00000  Uiso   1.00
C326   C     0.52879   0.97959   0.13583   0.00000  Uiso   1.00
Cl327  Cl    0.56838   0.95593   0.09875   0.00000  Uiso   1.00
Cl328  Cl    0.43162   0.71074   0.23458   0.00000  Uiso   1.00
Cu329  Cu    0.50000   0.83334   0.21355   0.00000  Uiso   1.00
Cu330  Cu    0.50000   0.83333   0.11978   0.00000  Uiso   1.00
H331   H     0.54808   0.70614   0.11268   0.00000  Uiso   1.00
H332   H     0.45192   0.96053   0.22065   0.00000  Uiso   1.00
H333   H     0.43507   0.79453   0.03550   0.00000  Uiso   1.00
H334   H     0.56493   0.87214   0.29783   0.00000  Uiso   1.00
H335   H     0.43487   0.79480   0.28193   0.00000  Uiso   1.00
H336   H     0.56513   0.87187   0.05140   0.00000  Uiso   1.00
H337   H     0.61859   0.74886   0.08843   0.00000  Uiso   1.00
H338   H     0.38141   0.91781   0.24490   0.00000  Uiso   1.00
N339   N     0.50001   0.83334   0.28403   0.00000  Uiso   1.00
N340   N     0.49999   0.83332   0.04931   0.00000  Uiso   1.00
O341   O     0.50000   0.77322   0.20625   0.00000  Uiso   1.00
O342   O     0.63064   0.76485   0.11828   0.00000  Uiso   1.00
O343   O     0.66659   0.85892   0.26421   0.00000  Uiso   1.00
O344   O     0.36936   0.90181   0.21506   0.00000  Uiso   1.00
O345   O     0.50000   0.89345   0.12709   0.00000  Uiso   1.00
O346   O     0.50000   0.77321   0.12706   0.00000  Uiso   1.00
O347   O     0.50000   0.89346   0.20628   0.00000  Uiso   1.00
O348   O     0.42495   0.83334   0.19712   0.00000  Uiso   1.00
O349   O     0.57505   0.83333   0.13621   0.00000  Uiso   1.00
O350   O     0.42494   0.83333   0.11793   0.00000  Uiso   1.00
O351   O     0.57506   0.83334   0.21540   0.00000  Uiso   1.00
O352   O     0.33341   0.80775   0.06912   0.00000  Uiso   1.00
C353   C     0.83214   0.75409   0.16665   0.00000  Uiso   1.00
C354   C     0.80455   0.68708   0.19750   0.00000  Uiso   1.00
C355   C     0.83487   0.95719   0.16651   0.00000  Uiso   1.00
C356   C     0.83180   0.70948   0.16682   0.00000  Uiso   1.00
C357   C     0.79723   0.81185   0.02038   0.00000  Uiso   1.00
C358   C     0.86943   0.85481   0.31296   0.00000  Uiso   1.00
C359   C     0.79720   0.81192   0.30412   0.00000  Uiso   1.00
C360   C     0.86947   0.85474   0.02922   0.00000  Uiso   1.00
C361   C     0.99210   0.79987   0.10941   0.00000  Uiso   1.00
C362   C     0.67456   0.86680   0.22393   0.00000  Uiso   1.00
C363   C     0.83452   0.91258   0.16669   0.00000  Uiso   1.00
C364   C     0.73475   0.83305   0.15475   0.00000  Uiso   1.00
C365   C     0.93192   0.83361   0.17859   0.00000  Uiso   1.00
C366   C     0.68019   0.82701   0.14930   0.00000  Uiso   1.00
C367   C     0.98648   0.83966   0.18403   0.00000  Uiso   1.00
C368   C     0.86004   0.68894   0.13601   0.00000  Uiso   1.00
C369   C     0.80663   0.97773   0.19732   0.00000  Uiso   1.00
C370   C     0.86212   0.97959   0.13583   0.00000  Uiso   1.00
Cl371  Cl    0.90171   0.95593   0.09875   0.00000  Uiso   1.00
Cl372  Cl    0.76495   0.71074   0.23458   0.00000  Uiso   1.00
Cu373  Cu    0.83333   0.83334   0.21355   0.00000  Uiso   1.00
Cu374  Cu    0.83333   0.83333   0.11978   0.00000  Uiso   1.00
H375   H     0.88142   0.70614   0.11268   0.00000  Uiso   1.00
H376   H     0.78525   0.96053   0.22065   0.00000  Uiso   1.00
H377   H     0.76840   0.79453   0.03550   0.00000  Uiso   1.00
H378   H     0.89826   0.87214   0.29783   0.00000  Uiso   1.00
H379   H     0.76820   0.79480   0.28193   0.00000  Uiso   1.00
H380   H     0.89846   0.87187   0.05140   0.00000  Uiso   1.00
H381   H     0.95192   0.74886   0.08843   0.00000  Uiso   1.00
H382   H     0.71475   0.91781   0.24490   0.00000  Uiso   1.00
N383   N     0.83335   0.83334   0.28403   0.00000  Uiso   1.00
N384   N     0.83332   0.83332   0.04931   0.00000  Uiso   1.00
O385   O     0.83333   0.77322   0.20625   0.00000  Uiso   1.00
O386   O     0.96397   0.76485   0.11828   0.00000  Uiso   1.00
O387   O     0.99993   0.85892   0.26421   0.00000  Uiso   1.00
O388   O     0.70269   0.90181   0.21506   0.00000  Uiso   1.00
O389   O     0.83334   0.89345   0.12709   0.00000  Uiso   1.00
O390   O     0.83333   0.77321   0.12706   0.00000  Uiso   1.00
O391   O     0.83334   0.89346   0.20628   0.00000  Uiso   1.00
O392   O     0.75828   0.83334   0.19712   0.00000  Uiso   1.00
O393   O     0.90839   0.83333   0.13621   0.00000  Uiso   1.00
O394   O     0.75828   0.83333   0.11793   0.00000  Uiso   1.00
O395   O     0.90839   0.83334   0.21540   0.00000  Uiso   1.00
O396   O     0.66674   0.80775   0.06912   0.00000  Uiso   1.00
C397   C     0.16548   0.08742   0.49998   0.00000  Uiso   1.00
C398   C     0.13788   0.02041   0.53084   0.00000  Uiso   1.00
C399   C     0.16820   0.29052   0.49985   0.00000  Uiso   1.00
C400   C     0.16513   0.04281   0.50015   0.00000  Uiso   1.00
C401   C     0.13057   0.14519   0.35371   0.00000  Uiso   1.00
C402   C     0.20277   0.18815   0.64629   0.00000  Uiso   1.00
C403   C     0.13053   0.14526   0.63745   0.00000  Uiso   1.00
C404   C     0.20280   0.18808   0.36255   0.00000  Uiso   1.00
C405   C     0.32544   0.13320   0.44274   0.00000  Uiso   1.00
C406   C     0.00790   0.20013   0.55726   0.00000  Uiso   1.00
C407   C     0.16786   0.24591   0.50002   0.00000  Uiso   1.00
C408   C     0.06808   0.16638   0.48808   0.00000  Uiso   1.00
C409   C     0.26525   0.16695   0.51192   0.00000  Uiso   1.00
C410   C     0.01352   0.16034   0.48263   0.00000  Uiso   1.00
C411   C     0.31981   0.17299   0.51737   0.00000  Uiso   1.00
C412   C     0.19337   0.02227   0.46934   0.00000  Uiso   1.00
C413   C     0.13996   0.31106   0.53066   0.00000  Uiso   1.00
C414   C     0.19545   0.31292   0.46916   0.00000  Uiso   1.00
Cl415  Cl    0.23504   0.28926   0.43208   0.00000  Uiso   1.00
Cl416  Cl    0.09829   0.04407   0.56792   0.00000  Uiso   1.00
Cu417  Cu    0.16667   0.16667   0.54689   0.00000  Uiso   1.00
Cu418  Cu    0.16667   0.16666   0.45311   0.00000  Uiso   1.00
H419   H     0.21475   0.03947   0.44602   0.00000  Uiso   1.00
H420   H     0.11858   0.29386   0.55398   0.00000  Uiso   1.00
H421   H     0.10174   0.12786   0.36883   0.00000  Uiso   1.00
H422   H     0.23160   0.20547   0.63117   0.00000  Uiso   1.00
H423   H     0.10154   0.12813   0.61526   0.00000  Uiso   1.00
H424   H     0.23179   0.20520   0.38474   0.00000  Uiso   1.00
H425   H     0.28525   0.08219   0.42177   0.00000  Uiso   1.00
H426   H     0.04808   0.25114   0.57823   0.00000  Uiso   1.00
N427   N     0.16668   0.16668   0.61736   0.00000  Uiso   1.00
N428   N     0.16665   0.16666   0.38264   0.00000  Uiso   1.00
O429   O     0.16666   0.10655   0.53958   0.00000  Uiso   1.00
O430   O     0.29731   0.09819   0.45161   0.00000  Uiso   1.00
O431   O     0.33326   0.19225   0.59754   0.00000  Uiso   1.00
O432   O     0.03602   0.23515   0.54839   0.00000  Uiso   1.00
O433   O     0.16667   0.22678   0.46042   0.00000  Uiso   1.00
O434   O     0.16666   0.10654   0.46039   0.00000  Uiso   1.00
O435   O     0.16667   0.22679   0.53961   0.00000  Uiso   1.00
O436   O     0.09161   0.16667   0.53046   0.00000  Uiso   1.00
O437   O     0.24172   0.16666   0.46954   0.00000  Uiso   1.00
O438   O     0.09161   0.16666   0.45127   0.00000  Uiso   1.00
O439   O     0.24172   0.16667   0.54873   0.00000  Uiso   1.00
O440   O     0.00007   0.14108   0.40246   0.00000  Uiso   1.00
C441   C     0.49881   0.08742   0.49998   0.00000  Uiso   1.00
C442   C     0.47121   0.02041   0.53084   0.00000  Uiso   1.00
C443   C     0.50154   0.29052   0.49985   0.00000  Uiso   1.00
C444   C     0.49846   0.04281   0.50015   0.00000  Uiso   1.00
C445   C     0.46390   0.14519   0.35371   0.00000  Uiso   1.00
C446   C     0.53610   0.18815   0.64629   0.00000  Uiso   1.00
C447   C     0.46387   0.14526   0.63745   0.00000  Uiso   1.00
C448   C     0.53613   0.18808   0.36255   0.00000  Uiso   1.00
C449   C     0.65877   0.13320   0.44274   0.00000  Uiso   1.00
C450   C     0.34123   0.20013   0.55726   0.00000  Uiso   1.00
C451   C     0.50119   0.24591   0.50002   0.00000  Uiso   1.00
C452   C     0.40141   0.16638   0.48808   0.00000  Uiso   1.00
C453   C     0.59859   0.16695   0.51192   0.00000  Uiso   1.00
C454   C     0.34686   0.16034   0.48263   0.00000  Uiso   1.00
C455   C     0.65314   0.17299   0.51737   0.00000  Uiso   1.00
C456   C     0.52671   0.02227   0.46934   0.00000  Uiso   1.00
C457   C     0.47329   0.31106   0.53066   0.00000  Uiso   1.00
C458   C     0.52879   0.31292   0.46916   0.00000  Uiso   1.00
Cl459  Cl    0.56838   0.28926   0.43208   0.00000  Uiso   1.00
Cl460  Cl    0.43162   0.04407   0.56792   0.00000  Uiso   1.00
Cu461  Cu    0.50000   0.16667   0.54689   0.00000  Uiso   1.00
Cu462  Cu    0.50000   0.16666   0.45311   0.00000  Uiso   1.00
H463   H     0.54808   0.03947   0.44602   0.00000  Uiso   1.00
H464   H     0.45192   0.29386   0.55398   0.00000  Uiso   1.00
H465   H     0.43507   0.12786   0.36883   0.00000  Uiso   1.00
H466   H     0.56493   0.20547   0.63117   0.00000  Uiso   1.00
H467   H     0.43487   0.12813   0.61526   0.00000  Uiso   1.00
H468   H     0.56513   0.20520   0.38474   0.00000  Uiso   1.00
H469   H     0.61859   0.08219   0.42177   0.00000  Uiso   1.00
H470   H     0.38141   0.25114   0.57823   0.00000  Uiso   1.00
N471   N     0.50001   0.16668   0.61736   0.00000  Uiso   1.00
N472   N     0.49999   0.16666   0.38264   0.00000  Uiso   1.00
O473   O     0.50000   0.10655   0.53958   0.00000  Uiso   1.00
O474   O     0.63064   0.09819   0.45161   0.00000  Uiso   1.00
O475   O     0.66659   0.19225   0.59754   0.00000  Uiso   1.00
O476   O     0.36936   0.23515   0.54839   0.00000  Uiso   1.00
O477   O     0.50000   0.22678   0.46042   0.00000  Uiso   1.00
O478   O     0.50000   0.10654   0.46039   0.00000  Uiso   1.00
O479   O     0.50000   0.22679   0.53961   0.00000  Uiso   1.00
O480   O     0.42495   0.16667   0.53046   0.00000  Uiso   1.00
O481   O     0.57505   0.16666   0.46954   0.00000  Uiso   1.00
O482   O     0.42494   0.16666   0.45127   0.00000  Uiso   1.00
O483   O     0.57506   0.16667   0.54873   0.00000  Uiso   1.00
O484   O     0.33341   0.14108   0.40246   0.00000  Uiso   1.00
C485   C     0.83214   0.08742   0.49998   0.00000  Uiso   1.00
C486   C     0.80455   0.02041   0.53084   0.00000  Uiso   1.00
C487   C     0.83487   0.29052   0.49985   0.00000  Uiso   1.00
C488   C     0.83180   0.04281   0.50015   0.00000  Uiso   1.00
C489   C     0.79723   0.14519   0.35371   0.00000  Uiso   1.00
C490   C     0.86943   0.18815   0.64629   0.00000  Uiso   1.00
C491   C     0.79720   0.14526   0.63745   0.00000  Uiso   1.00
C492   C     0.86947   0.18808   0.36255   0.00000  Uiso   1.00
C493   C     0.99210   0.13320   0.44274   0.00000  Uiso   1.00
C494   C     0.67456   0.20013   0.55726   0.00000  Uiso   1.00
C495   C     0.83452   0.24591   0.50002   0.00000  Uiso   1.00
C496   C     0.73475   0.16638   0.48808   0.00000  Uiso   1.00
C497   C     0.93192   0.16695   0.51192   0.00000  Uiso   1.00
C498   C     0.68019   0.16034   0.48263   0.00000  Uiso   1.00
C499   C     0.98648   0.17299   0.51737   0.00000  Uiso   1.00
C500   C     0.86004   0.02227   0.46934   0.00000  Uiso   1.00
C501   C     0.80663   0.31106   0.53066   0.00000  Uiso   1.00
C502   C     0.86212   0.31292   0.46916   0.00000  Uiso   1.00
Cl503  Cl    0.90171   0.28926   0.43208   0.00000  Uiso   1.00
Cl504  Cl    0.76495   0.04407   0.56792   0.00000  Uiso   1.00
Cu505  Cu    0.83333   0.16667   0.54689   0.00000  Uiso   1.00
Cu506  Cu    0.83333   0.16666   0.45311   0.00000  Uiso   1.00
H507   H     0.88142   0.03947   0.44602   0.00000  Uiso   1.00
H508   H     0.78525   0.29386   0.55398   0.00000  Uiso   1.00
H509   H     0.76840   0.12786   0.36883   0.00000  Uiso   1.00
H510   H     0.89826   0.20547   0.63117   0.00000  Uiso   1.00
H511   H     0.76820   0.12813   0.61526   0.00000  Uiso   1.00
H512   H     0.89846   0.20520   0.38474   0.00000  Uiso   1.00
H513   H     0.95192   0.08219   0.42177   0.00000  Uiso   1.00
H514   H     0.71475   0.25114   0.57823   0.00000  Uiso   1.00
N515   N     0.83335   0.16668   0.61736   0.00000  Uiso   1.00
N516   N     0.83332   0.16666   0.38264   0.00000  Uiso   1.00
O517   O     0.83333   0.10655   0.53958   0.00000  Uiso   1.00
O518   O     0.96397   0.09819   0.45161   0.00000  Uiso   1.00
O519   O     0.99993   0.19225   0.59754   0.00000  Uiso   1.00
O520   O     0.70269   0.23515   0.54839   0.00000  Uiso   1.00
O521   O     0.83334   0.22678   0.46042   0.00000  Uiso   1.00
O522   O     0.83333   0.10654   0.46039   0.00000  Uiso   1.00
O523   O     0.83334   0.22679   0.53961   0.00000  Uiso   1.00
O524   O     0.75828   0.16667   0.53046   0.00000  Uiso   1.00
O525   O     0.90839   0.16666   0.46954   0.00000  Uiso   1.00
O526   O     0.75828   0.16666   0.45127   0.00000  Uiso   1.00
O527   O     0.90839   0.16667   0.54873   0.00000  Uiso   1.00
O528   O     0.66674   0.14108   0.40246   0.00000  Uiso   1.00
C529   C     0.16548   0.42075   0.49998   0.00000  Uiso   1.00
C530   C     0.13788   0.35374   0.53084   0.00000  Uiso   1.00
C531   C     0.16820   0.62385   0.49985   0.00000  Uiso   1.00
C532   C     0.16513   0.37615   0.50015   0.00000  Uiso   1.00
C533   C     0.13057   0.47852   0.35371   0.00000  Uiso   1.00
C534   C     0.20277   0.52148   0.64629   0.00000  Uiso   1.00
C535   C     0.13053   0.47859   0.63745   0.00000  Uiso   1.00
C536   C     0.20280   0.52141   0.36255   0.00000  Uiso   1.00
C537   C     0.32544   0.46654   0.44274   0.00000  Uiso   1.00
C538   C     0.00790   0.53346   0.55726   0.00000  Uiso   1.00
C539   C     0.16786   0.57925   0.50002   0.00000  Uiso   1.00
C540   C     0.06808   0.49972   0.48808   0.00000  Uiso   1.00
C541   C     0.26525   0.50028   0.51192   0.00000  Uiso   1.00
C542   C     0.01352   0.49368   0.48263   0.00000  Uiso   1.00
C543   C     0.31981   0.50632   0.51737   0.00000  Uiso   1.00
C544   C     0.19337   0.35560   0.46934   0.00000  Uiso   1.00
C545   C     0.13996   0.64440   0.53066   0.00000  Uiso   1.00
C546   C     0.19545   0.64626   0.46916   0.00000  Uiso   1.00
Cl547  Cl    0.23504   0.62259   0.43208   0.00000  Uiso   1.00
Cl548  Cl    0.09829   0.37741   0.56792   0.00000  Uiso   1.00
Cu549  Cu    0.16667   0.50001   0.54689   0.00000  Uiso   1.00
Cu550  Cu    0.16667   0.49999   0.45311   0.00000  Uiso   1.00
H551   H     0.21475   0.37281   0.44602   0.00000  Uiso   1.00
H552   H     0.11858   0.62719   0.55398   0.00000  Uiso   1.00
H553   H     0.10174   0.46119   0.36883   0.00000  Uiso   1.00
H554   H     0.23160   0.53881   0.63117   0.00000  Uiso   1.00
H555   H     0.10154   0.46147   0.61526   0.00000  Uiso   1.00
H556   H     0.23179   0.53853   0.38474   0.00000  Uiso   1.00
H557   H     0.28525   0.41553   0.42177   0.00000  Uiso   1.00
H558   H     0.04808   0.58447   0.57823   0.00000  Uiso   1.00
N559   N     0.16668   0.50001   0.61736   0.00000  Uiso   1.00
N560   N     0.16665   0.49999   0.38264   0.00000  Uiso   1.00
O561   O     0.16666   0.43989   0.53958   0.00000  Uiso   1.00
O562   O     0.29731   0.43152   0.45161   0.00000  Uiso   1.00
O563   O     0.33326   0.52558   0.59754   0.00000  Uiso   1.00
O564   O     0.03602   0.56848   0.54839   0.00000  Uiso   1.00
O565   O     0.16667   0.56011   0.46042   0.00000  Uiso   1.00
O566   O     0.16666   0.43988   0.46039   0.00000  Uiso   1.00
O567   O     0.16667   0.56012   0.53961   0.00000  Uiso   1.00
O568   O     0.09161   0.50000   0.53046   0.00000  Uiso   1.00
O569   O     0.24172   0.50000   0.46954   0.00000  Uiso   1.00
O570   O     0.09161   0.49999   0.45127   0.00000  Uiso   1.00
O571   O     0.24172   0.50001   0.54873   0.00000  Uiso   1.00
O572   O     0.00007   0.47442   0.40246   0.00000  Uiso   1.00
C573   C     0.49881   0.42075   0.49998   0.00000  Uiso   1.00
C574   C     0.47121   0.35374   0.53084   0.00000  Uiso   1.00
C575   C     0.50154   0.62385   0.49985   0.00000  Uiso   1.00
C576   C     0.49846   0.37615   0.50015   0.00000  Uiso   1.00
C577   C     0.46390   0.47852   0.35371   0.00000  Uiso   1.00
C578   C     0.53610   0.52148   0.64629   0.00000  Uiso   1.00
C579   C     0.46387   0.47859   0.63745   0.00000  Uiso   1.00
C580   C     0.53613   0.52141   0.36255   0.00000  Uiso   1.00
C581   C     0.65877   0.46654   0.44274   0.00000  Uiso   1.00
C582   C     0.34123   0.53346   0.55726   0.00000  Uiso   1.00
C583   C     0.50119   0.57925   0.50002   0.00000  Uiso   1.00
C584   C     0.40141   0.49972   0.48808   0.00000  Uiso   1.00
C585   C     0.59859   0.50028   0.51192   0.00000  Uiso   1.00
C586   C     0.34686   0.49368   0.48263   0.00000  Uiso   1.00
C587   C     0.65314   0.50632   0.51737   0.00000  Uiso   1.00
C588   C     0.52671   0.35560   0.46934   0.00000  Uiso   1.00
C589   C     0.47329   0.64440   0.53066   0.00000  Uiso   1.00
C590   C     0.52879   0.64626   0.46916   0.00000  Uiso   1.00
Cl591  Cl    0.56838   0.62259   0.43208   0.00000  Uiso   1.00
Cl592  Cl    0.43162   0.37741   0.56792   0.00000  Uiso   1.00
Cu593  Cu    0.50000   0.50001   0.54689   0.00000  Uiso   1.00
Cu594  Cu    0.50000   0.49999   0.45311   0.00000  Uiso   1.00
H595   H     0.54808   0.37281   0.44602   0.00000  Uiso   1.00
H596   H     0.45192   0.62719   0.55398   0.00000  Uiso   1.00
H597   H     0.43507   0.46119   0.36883   0.00000  Uiso   1.00
H598   H     0.56493   0.53881   0.63117   0.00000  Uiso   1.00
H599   H     0.43487   0.46147   0.61526   0.00000  Uiso   1.00
H600   H     0.56513   0.53853   0.38474   0.00000  Uiso   1.00
H601   H     0.61859   0.41553   0.42177   0.00000  Uiso   1.00
H602   H     0.38141   0.58447   0.57823   0.00000  Uiso   1.00
N603   N     0.50001   0.50001   0.61736   0.00000  Uiso   1.00
N604   N     0.49999   0.49999   0.38264   0.00000  Uiso   1.00
O605   O     0.50000   0.43989   0.53958   0.00000  Uiso   1.00
O606   O     0.63064   0.43152   0.45161   0.00000  Uiso   1.00
O607   O     0.66659   0.52558   0.59754   0.00000  Uiso   1.00
O608   O     0.36936   0.56848   0.54839   0.00000  Uiso   1.00
O609   O     0.50000   0.56011   0.46042   0.00000  Uiso   1.00
O610   O     0.50000   0.43988   0.46039   0.00000  Uiso   1.00
O611   O     0.50000   0.56012   0.53961   0.00000  Uiso   1.00
O612   O     0.42495   0.50000   0.53046   0.00000  Uiso   1.00
O613   O     0.57505   0.50000   0.46954   0.00000  Uiso   1.00
O614   O     0.42494   0.49999   0.45127   0.00000  Uiso   1.00
O615   O     0.57506   0.50001   0.54873   0.00000  Uiso   1.00
O616   O     0.33341   0.47442   0.40246   0.00000  Uiso   1.00
C617   C     0.83214   0.42075   0.49998   0.00000  Uiso   1.00
C618   C     0.80455   0.35374   0.53084   0.00000  Uiso   1.00
C619   C     0.83487   0.62385   0.49985   0.00000  Uiso   1.00
C620   C     0.83180   0.37615   0.50015   0.00000  Uiso   1.00
C621   C     0.79723   0.47852   0.35371   0.00000  Uiso   1.00
C622   C     0.86943   0.52148   0.64629   0.00000  Uiso   1.00
C623   C     0.79720   0.47859   0.63745   0.00000  Uiso   1.00
C624   C     0.86947   0.52141   0.36255   0.00000  Uiso   1.00
C625   C     0.99210   0.46654   0.44274   0.00000  Uiso   1.00
C626   C     0.67456   0.53346   0.55726   0.00000  Uiso   1.00
C627   C     0.83452   0.57925   0.50002   0.00000  Uiso   1.00
C628   C     0.73475   0.49972   0.48808   0.00000  Uiso   1.00
C629   C     0.93192   0.50028   0.51192   0.00000  Uiso   1.00
C630   C     0.68019   0.49368   0.48263   0.00000  Uiso   1.00
C631   C     0.98648   0.50632   0.51737   0.00000  Uiso   1.00
C632   C     0.86004   0.35560   0.46934   0.00000  Uiso   1.00
C633   C     0.80663   0.64440   0.53066   0.00000  Uiso   1.00
C634   C     0.86212   0.64626   0.46916   0.00000  Uiso   1.00
Cl635  Cl    0.90171   0.62259   0.43208   0.00000  Uiso   1.00
Cl636  Cl    0.76495   0.37741   0.56792   0.00000  Uiso   1.00
Cu637  Cu    0.83333   0.50001   0.54689   0.00000  Uiso   1.00
Cu638  Cu    0.83333   0.49999   0.45311   0.00000  Uiso   1.00
H639   H     0.88142   0.37281   0.44602   0.00000  Uiso   1.00
H640   H     0.78525   0.62719   0.55398   0.00000  Uiso   1.00
H641   H     0.76840   0.46119   0.36883   0.00000  Uiso   1.00
H642   H     0.89826   0.53881   0.63117   0.00000  Uiso   1.00
H643   H     0.76820   0.46147   0.61526   0.00000  Uiso   1.00
H644   H     0.89846   0.53853   0.38474   0.00000  Uiso   1.00
H645   H     0.95192   0.41553   0.42177   0.00000  Uiso   1.00
H646   H     0.71475   0.58447   0.57823   0.00000  Uiso   1.00
N647   N     0.83335   0.50001   0.61736   0.00000  Uiso   1.00
N648   N     0.83332   0.49999   0.38264   0.00000  Uiso   1.00
O649   O     0.83333   0.43989   0.53958   0.00000  Uiso   1.00
O650   O     0.96397   0.43152   0.45161   0.00000  Uiso   1.00
O651   O     0.99993   0.52558   0.59754   0.00000  Uiso   1.00
O652   O     0.70269   0.56848   0.54839   0.00000  Uiso   1.00
O653   O     0.83334   0.56011   0.46042   0.00000  Uiso   1.00
O654   O     0.83333   0.43988   0.46039   0.00000  Uiso   1.00
O655   O     0.83334   0.56012   0.53961   0.00000  Uiso   1.00
O656   O     0.75828   0.50000   0.53046   0.00000  Uiso   1.00
O657   O     0.90839   0.50000   0.46954   0.00000  Uiso   1.00
O658   O     0.75828   0.49999   0.45127   0.00000  Uiso   1.00
O659   O     0.90839   0.50001   0.54873   0.00000  Uiso   1.00
O660   O     0.66674   0.47442   0.40246   0.00000  Uiso   1.00
C661   C     0.16548   0.75409   0.49998   0.00000  Uiso   1.00
C662   C     0.13788   0.68708   0.53084   0.00000  Uiso   1.00
C663   C     0.16820   0.95719   0.49985   0.00000  Uiso   1.00
C664   C     0.16513   0.70948   0.50015   0.00000  Uiso   1.00
C665   C     0.13057   0.81185   0.35371   0.00000  Uiso   1.00
C666   C     0.20277   0.85481   0.64629   0.00000  Uiso   1.00
C667   C     0.13053   0.81192   0.63745   0.00000  Uiso   1.00
C668   C     0.20280   0.85474   0.36255   0.00000  Uiso   1.00
C669   C     0.32544   0.79987   0.44274   0.00000  Uiso   1.00
C670   C     0.00790   0.86680   0.55726   0.00000  Uiso   1.00
C671   C     0.16786   0.91258   0.50002   0.00000  Uiso   1.00
C672   C     0.06808   0.83305   0.48808   0.00000  Uiso   1.00
C673   C     0.26525   0.83361   0.51192   0.00000  Uiso   1.00
C674   C     0.01352   0.82701   0.48263   0.00000  Uiso   1.00
C675   C     0.31981   0.83966   0.51737   0.00000  Uiso   1.00
C676   C     0.19337   0.68894   0.46934   0.00000  Uiso   1.00
C677   C     0.13996   0.97773   0.53066   0.00000  Uiso   1.00
C678   C     0.19545   0.97959   0.46916   0.00000  Uiso   1.00
Cl679  Cl    0.23504   0.95593   0.43208   0.00000  Uiso   1.00
Cl680  Cl    0.09829   0.71074   0.56792   0.00000  Uiso   1.00
Cu681  Cu    0.16667   0.83334   0.54689   0.00000  Uiso   1.00
Cu682  Cu    0.16667   0.83333   0.45311   0.00000  Uiso   1.00
H683   H     0.21475   0.70614   0.44602   0.00000  Uiso   1.00
H684   H     0.11858   0.96053   0.55398   0.00000  Uiso   1.00
H685   H     0.10174   0.79453   0.36883   0.00000  Uiso   1.00
H686   H     0.23160   0.87214   0.63117   0.00000  Uiso   1.00
H687   H     0.10154   0.79480   0.61526   0.00000  Uiso   1.00
H688   H     0.23179   0.87187   0.38474   0.00000  Uiso   1.00
H689   H     0.28525   0.74886   0.42177   0.00000  Uiso   1.00
H690   H     0.04808   0.91781   0.57823   0.00000  Uiso   1.00
N691   N     0.16668   0.83334   0.61736   0.00000  Uiso   1.00
N692   N     0.16665   0.83332   0.38264   0.00000  Uiso   1.00
O693   O     0.16666   0.77322   0.53958   0.00000  Uiso   1.00
O694   O     0.29731   0.76485   0.45161   0.00000  Uiso   1.00
O695   O     0.33326   0.85892   0.59754   0.00000  Uiso   1.00
O696   O     0.03602   0.90181   0.54839   0.00000  Uiso   1.00
O697   O     0.16667   0.89345   0.46042   0.00000  Uiso   1.00
O698   O     0.16666   0.77321   0.46039   0.00000  Uiso   1.00
O699   O     0.16667   0.89346   0.53961   0.00000  Uiso   1.00
O700   O     0.09161   0.83334   0.53046   0.00000  Uiso   1.00
O701   O     0.24172   0.83333   0.46954   0.00000  Uiso   1.00
O702   O     0.09161   0.83333   0.45127   0.00000  Uiso   1.00
O703   O     0.24172   0.83334   0.54873   0.00000  Uiso   1.00
O704   O     0.00007   0.80775   0.40246   0.00000  Uiso   1.00
C705   C     0.49881   0.75409   0.49998   0.00000  Uiso   1.00
C706   C     0.47121   0.68708   0.53084   0.00000  Uiso   1.00
C707   C     0.50154   0.95719   0.49985   0.00000  Uiso   1.00
C708   C     0.49846   0.70948   0.50015   0.00000  Uiso   1.00
C709   C     0.46390   0.81185   0.35371   0.00000  Uiso   1.00
C710   C     0.53610   0.85481   0.64629   0.00000  Uiso   1.00
C711   C     0.46387   0.81192   0.63745   0.00000  Uiso   1.00
C712   C     0.53613   0.85474   0.36255   0.00000  Uiso   1.00
C713   C     0.65877   0.79987   0.44274   0.00000  Uiso   1.00
C714   C     0.34123   0.86680   0.55726   0.00000  Uiso   1.00
C715   C     0.50119   0.91258   0.50002   0.00000  Uiso   1.00
C716   C     0.40141   0.83305   0.48808   0.00000  Uiso   1.00
C717   C     0.59859   0.83361   0.51192   0.00000  Uiso   1.00
C718   C     0.34686   0.82701   0.48263   0.00000  Uiso   1.00
C719   C     0.65314   0.83966   0.51737   0.00000  Uiso   1.00
C720   C     0.52671   0.68894   0.46934   0.00000  Uiso   1.00
C721   C     0.47329   0.97773   0.53066   0.00000  Uiso   1.00
C722   C     0.52879   0.97959   0.46916   0.00000  Uiso   1.00
Cl723  Cl    0.56838   0.95593   0.43208   0.00000  Uiso   1.00
Cl724  Cl    0.43162   0.71074   0.56792   0.00000  Uiso   1.00
Cu725  Cu    0.50000   0.83334   0.54689   0.00000  Uiso   1.00
Cu726  Cu    0.50000   0.83333   0.45311   0.00000  Uiso   1.00
H727   H     0.54808   0.70614   0.44602   0.00000  Uiso   1.00
H728   H     0.45192   0.96053   0.55398   0.00000  Uiso   1.00
H729   H     0.43507   0.79453   0.36883   0.00000  Uiso   1.00
H730   H     0.56493   0.87214   0.63117   0.00000  Uiso   1.00
H731   H     0.43487   0.79480   0.61526   0.00000  Uiso   1.00
H732   H     0.56513   0.87187   0.38474   0.00000  Uiso   1.00
H733   H     0.61859   0.74886   0.42177   0.00000  Uiso   1.00
H734   H     0.38141   0.91781   0.57823   0.00000  Uiso   1.00
N735   N     0.50001   0.83334   0.61736   0.00000  Uiso   1.00
N736   N     0.49999   0.83332   0.38264   0.00000  Uiso   1.00
O737   O     0.50000   0.77322   0.53958   0.00000  Uiso   1.00
O738   O     0.63064   0.76485   0.45161   0.00000  Uiso   1.00
O739   O     0.66659   0.85892   0.59754   0.00000  Uiso   1.00
O740   O     0.36936   0.90181   0.54839   0.00000  Uiso   1.00
O741   O     0.50000   0.89345   0.46042   0.00000  Uiso   1.00
O742   O     0.50000   0.77321   0.46039   0.00000  Uiso   1.00
O743   O     0.50000   0.89346   0.53961   0.00000  Uiso   1.00
O744   O     0.42495   0.83334   0.53046   0.00000  Uiso   1.00
O745   O     0.57505   0.83333   0.46954   0.00000  Uiso   1.00
O746   O     0.42494   0.83333   0.45127   0.00000  Uiso   1.00
O747   O     0.57506   0.83334   0.54873   0.00000  Uiso   1.00
O748   O     0.33341   0.80775   0.40246   0.00000  Uiso   1.00
C749   C     0.83214   0.75409   0.49998   0.00000  Uiso   1.00
C750   C     0.80455   0.68708   0.53084   0.00000  Uiso   1.00
C751   C     0.83487   0.95719   0.49985   0.00000  Uiso   1.00
C752   C     0.83180   0.70948   0.50015   0.00000  Uiso   1.00
C753   C     0.79723   0.81185   0.35371   0.00000  Uiso   1.00
C754   C     0.86943   0.85481   0.64629   0.00000  Uiso   1.00
C755   C     0.79720   0.81192   0.63745   0.00000  Uiso   1.00
C756   C     0.86947   0.85474   0.36255   0.00000  Uiso   1.00
C757   C     0.99210   0.79987   0.44274   0.00000  Uiso   1.00
C758   C     0.67456   0.86680   0.55726   0.00000  Uiso   1.00
C759   C     0.83452   0.91258   0.50002   0.00000  Uiso   1.00
C760   C     0.73475   0.83305   0.48808   0.00000  Uiso   1.00
C761   C     0.93192   0.83361   0.51192   0.00000  Uiso   1.00
C762   C     0.68019   0.82701   0.48263   0.00000  Uiso   1.00
C763   C     0.98648   0.83966   0.51737   0.00000  Uiso   1.00
C764   C     0.86004   0.68894   0.46934   0.00000  Uiso   1.00
C765   C     0.80663   0.97773   0.53066   0.00000  Uiso   1.00
C766   C     0.86212   0.97959   0.46916   0.00000  Uiso   1.00
Cl767  Cl    0.90171   0.95593   0.43208   0.00000  Uiso   1.00
Cl768  Cl    0.76495   0.71074   0.56792   0.00000  Uiso   1.00
Cu769  Cu    0.83333   0.83334   0.54689   0.00000  Uiso   1.00
Cu770  Cu    0.83333   0.83333   0.45311   0.00000  Uiso   1.00
H771   H     0.88142   0.70614   0.44602   0.00000  Uiso   1.00
H772   H     0.78525   0.96053   0.55398   0.00000  Uiso   1.00
H773   H     0.76840   0.79453   0.36883   0.00000  Uiso   1.00
H774   H     0.89826   0.87214   0.63117   0.00000  Uiso   1.00
H775   H     0.76820   0.79480   0.61526   0.00000  Uiso   1.00
H776   H     0.89846   0.87187   0.38474   0.00000  Uiso   1.00
H777   H     0.95192   0.74886   0.42177   0.00000  Uiso   1.00
H778   H     0.71475   0.91781   0.57823   0.00000  Uiso   1.00
N779   N     0.83335   0.83334   0.61736   0.00000  Uiso   1.00
N780   N     0.83332   0.83332   0.38264   0.00000  Uiso   1.00
O781   O     0.83333   0.77322   0.53958   0.00000  Uiso   1.00
O782   O     0.96397   0.76485   0.45161   0.00000  Uiso   1.00
O783   O     0.99993   0.85892   0.59754   0.00000  Uiso   1.00
O784   O     0.70269   0.90181   0.54839   0.00000  Uiso   1.00
O785   O     0.83334   0.89345   0.46042   0.00000  Uiso   1.00
O786   O     0.83333   0.77321   0.46039   0.00000  Uiso   1.00
O787   O     0.83334   0.89346   0.53961   0.00000  Uiso   1.00
O788   O     0.75828   0.83334   0.53046   0.00000  Uiso   1.00
O789   O     0.90839   0.83333   0.46954   0.00000  Uiso   1.00
O790   O     0.75828   0.83333   0.45127   0.00000  Uiso   1.00
O791   O     0.90839   0.83334   0.54873   0.00000  Uiso   1.00
O792   O     0.66674   0.80775   0.40246   0.00000  Uiso   1.00
C793   C     0.16548   0.08742   0.83331   0.00000  Uiso   1.00
C794   C     0.13788   0.02041   0.86417   0.00000  Uiso   1.00
C795   C     0.16820   0.29052   0.83318   0.00000  Uiso   1.00
C796   C     0.16513   0.04281   0.83349   0.00000  Uiso   1.00
C797   C     0.13057   0.14519   0.68704   0.00000  Uiso   1.00
C798   C     0.20277   0.18815   0.97962   0.00000  Uiso   1.00
C799   C     0.13053   0.14526   0.97078   0.00000  Uiso   1.00
C800   C     0.20280   0.18808   0.69588   0.00000  Uiso   1.00
C801   C     0.32544   0.13320   0.77607   0.00000  Uiso   1.00
C802   C     0.00790   0.20013   0.89059   0.00000  Uiso   1.00
C803   C     0.16786   0.24591   0.83335   0.00000  Uiso   1.00
C804   C     0.06808   0.16638   0.82141   0.00000  Uiso   1.00
C805   C     0.26525   0.16695   0.84525   0.00000  Uiso   1.00
C806   C     0.01352   0.16034   0.81597   0.00000  Uiso   1.00
C807   C     0.31981   0.17299   0.85070   0.00000  Uiso   1.00
C808   C     0.19337   0.02227   0.80268   0.00000  Uiso   1.00
C809   C     0.13996   0.31106   0.86399   0.00000  Uiso   1.00
C810   C     0.19545   0.31292   0.80250   0.00000  Uiso   1.00
Cl811  Cl    0.23504   0.28926   0.76541   0.00000  Uiso   1.00
Cl812  Cl    0.09829   0.04407   0.90125   0.00000  Uiso   1.00
Cu813  Cu    0.16667   0.16667   0.88022   0.00000  Uiso   1.00
Cu814  Cu    0.16667   0.16666   0.78645   0.00000  Uiso   1.00
H815   H     0.21475   0.03947   0.77935   0.00000  Uiso   1.00
H816   H     0.11858   0.29386   0.88732   0.00000  Uiso   1.00
H817   H     0.10174   0.12786   0.70216   0.00000  Uiso   1.00
H818   H     0.23160   0.20547   0.96450   0.00000  Uiso   1.00
H819   H     0.10154   0.12813   0.94860   0.00000  Uiso   1.00
H820   H     0.23179   0.20520   0.71807   0.00000  Uiso   1.00
H821   H     0.28525   0.08219   0.75510   0.00000  Uiso   1.00
H822   H     0.04808   0.25114   0.91157   0.00000  Uiso   1.00
N823   N     0.16668   0.16668   0.95069   0.00000  Uiso   1.00
N824   N     0.16665   0.16666   0.71597   0.00000  Uiso   1.00
O825   O     0.16666   0.10655   0.87291   0.00000  Uiso   1.00
O826   O     0.29731   0.09819   0.78494   0.00000  Uiso   1.00
O827   O     0.33326   0.19225   0.93088   0.00000  Uiso   1.00
O828   O     0.03602   0.23515   0.88172   0.00000  Uiso   1.00
O829   O     0.16667   0.22678   0.79375   0.00000  Uiso   1.00
O830   O     0.16666   0.10654   0.79372   0.00000  Uiso   1.00
O831   O     0.16667   0.22679   0.87294   0.00000  Uiso   1.00
O832   O     0.09161   0.16667   0.86379   0.00000  Uiso   1.00
O833   O     0.24172   0.16666   0.80288   0.00000  Uiso   1.00
O834   O     0.09161   0.16666   0.78460   0.00000  Uiso   1.00
O835   O     0.24172   0.16667   0.88207   0.00000  Uiso   1.00
O836   O     0.00007   0.14108   0.73579   0.00000  Uiso   1.00
C837   C     0.49881   0.08742   0.83331   0.00000  Uiso   1.00
C838   C     0.47121   0.02041   0.86417   0.00000  Uiso   1.00
C839   C     0.50154   0.29052   0.83318   0.00000  Uiso   1.00
C840   C     0.49846   0.04281   0.83349   0.00000  Uiso   1.00
C841   C     0.46390   0.14519   0.68704   0.00000  Uiso   1.00
C842   C     0.53610   0.18815   0.97962   0.00000  Uiso   1.00
C843   C     0.46387   0.14526   0.97078   0.00000  Uiso   1.00
C844   C     0.53613   0.18808   0.69588   0.00000  Uiso   1.00
C845   C     0.65877   0.13320   0.77607   0.00000  Uiso   1.00
C846   C     0.34123   0.20013   0.89059   0.00000  Uiso   1.00
C847   C     0.50119   0.24591   0.83335   0.00000  Uiso   1.00
C848   C     0.40141   0.16638   0.82141   0.00000  Uiso   1.00
C849   C     0.59859   0.16695   0.84525   0.00000  Uiso   1.00
C850   C     0.34686   0.16034   0.81597   0.00000  Uiso   1.00
C851   C     0.65314   0.17299   0.85070   0.00000  Uiso   1.00
C852   C     0.52671   0.02227   0.80268   0.00000  Uiso   1.00
C853   C     0.47329   0.31106   0.86399   0.00000  Uiso   1.00
C854   C     0.52879   0.31292   0.80250   0.00000  Uiso   1.00
Cl855  Cl    0.56838   0.28926   0.76541   0.00000  Uiso   1.00
Cl856  Cl    0.43162   0.04407   0.90125   0.00000  Uiso   1.00
Cu857  Cu    0.50000   0.16667   0.88022   0.00000  Uiso   1.00
Cu858  Cu    0.50000   0.16666   0.78645   0.00000  Uiso   1.00
H859   H     0.54808   0.03947   0.77935   0.00000  Uiso   1.00
H860   H     0.45192   0.29386   0.88732   0.00000  Uiso   1.00
H861   H     0.43507   0.12786   0.70216   0.00000  Uiso   1.00
H862   H     0.56493   0.20547   0.96450   0.00000  Uiso   1.00
H863   H     0.43487   0.12813   0.94860   0.00000  Uiso   1.00
H864   H     0.56513   0.20520   0.71807   0.00000  Uiso   1.00
H865   H     0.61859   0.08219   0.75510   0.00000  Uiso   1.00
H866   H     0.38141   0.25114   0.91157   0.00000  Uiso   1.00
N867   N     0.50001   0.16668   0.95069   0.00000  Uiso   1.00
N868   N     0.49999   0.16666   0.71597   0.00000  Uiso   1.00
O869   O     0.50000   0.10655   0.87291   0.00000  Uiso   1.00
O870   O     0.63064   0.09819   0.78494   0.00000  Uiso   1.00
O871   O     0.66659   0.19225   0.93088   0.00000  Uiso   1.00
O872   O     0.36936   0.23515   0.88172   0.00000  Uiso   1.00
O873   O     0.50000   0.22678   0.79375   0.00000  Uiso   1.00
O874   O     0.50000   0.10654   0.79372   0.00000  Uiso   1.00
O875   O     0.50000   0.22679   0.87294   0.00000  Uiso   1.00
O876   O     0.42495   0.16667   0.86379   0.00000  Uiso   1.00
O877   O     0.57505   0.16666   0.80288   0.00000  Uiso   1.00
O878   O     0.42494   0.16666   0.78460   0.00000  Uiso   1.00
O879   O     0.57506   0.16667   0.88207   0.00000  Uiso   1.00
O880   O     0.33341   0.14108   0.73579   0.00000  Uiso   1.00
C881   C     0.83214   0.08742   0.83331   0.00000  Uiso   1.00
C882   C     0.80455   0.02041   0.86417   0.00000  Uiso   1.00
C883   C     0.83487   0.29052   0.83318   0.00000  Uiso   1.00
C884   C     0.83180   0.04281   0.83349   0.00000  Uiso   1.00
C885   C     0.79723   0.14519   0.68704   0.00000  Uiso   1.00
C886   C     0.86943   0.18815   0.97962   0.00000  Uiso   1.00
C887   C     0.79720   0.14526   0.97078   0.00000  Uiso   1.00
C888   C     0.86947   0.18808   0.69588   0.00000  Uiso   1.00
C889   C     0.99210   0.13320   0.77607   0.00000  Uiso   1.00
C890   C     0.67456   0.20013   0.89059   0.00000  Uiso   1.00
C891   C     0.83452   0.24591   0.83335   0.00000  Uiso   1.00
C892   C     0.73475   0.16638   0.82141   0.00000  Uiso   1.00
C893   C     0.93192   0.16695   0.84525   0.00000  Uiso   1.00
C894   C     0.68019   0.16034   0.81597   0.00000  Uiso   1.00
C895   C     0.98648   0.17299   0.85070   0.00000  Uiso   1.00
C896   C     0.86004   0.02227   0.80268   0.00000  Uiso   1.00
C897   C     0.80663   0.31106   0.86399   0.00000  Uiso   1.00
C898   C     0.86212   0.31292   0.80250   0.00000  Uiso   1.00
Cl899  Cl    0.90171   0.28926   0.76541   0.00000  Uiso   1.00
Cl900  Cl    0.76495   0.04407   0.90125   0.00000  Uiso   1.00
Cu901  Cu    0.83333   0.16667   0.88022   0.00000  Uiso   1.00
Cu902  Cu    0.83333   0.16666   0.78645   0.00000  Uiso   1.00
H903   H     0.88142   0.03947   0.77935   0.00000  Uiso   1.00
H904   H     0.78525   0.29386   0.88732   0.00000  Uiso   1.00
H905   H     0.76840   0.12786   0.70216   0.00000  Uiso   1.00
H906   H     0.89826   0.20547   0.96450   0.00000  Uiso   1.00
H907   H     0.76820   0.12813   0.94860   0.00000  Uiso   1.00
H908   H     0.89846   0.20520   0.71807   0.00000  Uiso   1.00
H909   H     0.95192   0.08219   0.75510   0.00000  Uiso   1.00
H910   H     0.71475   0.25114   0.91157   0.00000  Uiso   1.00
N911   N     0.83335   0.16668   0.95069   0.00000  Uiso   1.00
N912   N     0.83332   0.16666   0.71597   0.00000  Uiso   1.00
O913   O     0.83333   0.10655   0.87291   0.00000  Uiso   1.00
O914   O     0.96397   0.09819   0.78494   0.00000  Uiso   1.00
O915   O     0.99993   0.19225   0.93088   0.00000  Uiso   1.00
O916   O     0.70269   0.23515   0.88172   0.00000  Uiso   1.00
O917   O     0.83334   0.22678   0.79375   0.00000  Uiso   1.00
O918   O     0.83333   0.10654   0.79372   0.00000  Uiso   1.00
O919   O     0.83334   0.22679   0.87294   0.00000  Uiso   1.00
O920   O     0.75828   0.16667   0.86379   0.00000  Uiso   1.00
O921   O     0.90839   0.16666   0.80288   0.00000  Uiso   1.00
O922   O     0.75828   0.16666   0.78460   0.00000  Uiso   1.00
O923   O     0.90839   0.16667   0.88207   0.00000  Uiso   1.00
O924   O     0.66674   0.14108   0.73579   0.00000  Uiso   1.00
C925   C     0.16548   0.42075   0.83331   0.00000  Uiso   1.00
C926   C     0.13788   0.35374   0.86417   0.00000  Uiso   1.00
C927   C     0.16820   0.62385   0.83318   0.00000  Uiso   1.00
C928   C     0.16513   0.37615   0.83349   0.00000  Uiso   1.00
C929   C     0.13057   0.47852   0.68704   0.00000  Uiso   1.00
C930   C     0.20277   0.52148   0.97962   0.00000  Uiso   1.00
C931   C     0.13053   0.47859   0.97078   0.00000  Uiso   1.00
C932   C     0.20280   0.52141   0.69588   0.00000  Uiso   1.00
C933   C     0.32544   0.46654   0.77607   0.00000  Uiso   1.00
C934   C     0.00790   0.53346   0.89059   0.00000  Uiso   1.00
C935   C     0.16786   0.57925   0.83335   0.00000  Uiso   1.00
C936   C     0.06808   0.49972   0.82141   0.00000  Uiso   1.00
C937   C     0.26525   0.50028   0.84525   0.00000  Uiso   1.00
C938   C     0.01352   0.49368   0.81597   0.00000  Uiso   1.00
C939   C     0.31981   0.50632   0.85070   0.00000  Uiso   1.00
C940   C     0.19337   0.35560   0.80268   0.00000  Uiso   1.00
C941   C     0.13996   0.64440   0.86399   0.00000  Uiso   1.00
C942   C     0.19545   0.64626   0.80250   0.00000  Uiso   1.00
Cl943  Cl    0.23504   0.62259   0.76541   0.00000  Uiso   1.00
Cl944  Cl    0.09829   0.37741   0.90125   0.00000  Uiso   1.00
Cu945  Cu    0.16667   0.50001   0.88022   0.00000  Uiso   1.00
Cu946  Cu    0.16667   0.49999   0.78645   0.00000  Uiso   1.00
H947   H     0.21475   0.37281   0.77935   0.00000  Uiso   1.00
H948   H     0.11858   0.62719   0.88732   0.00000  Uiso   1.00
H949   H     0.10174   0.46119   0.70216   0.00000  Uiso   1.00
H950   H     0.23160   0.53881   0.96450   0.00000  Uiso   1.00
H951   H     0.10154   0.46147   0.94860   0.00000  Uiso   1.00
H952   H     0.23179   0.53853   0.71807   0.00000  Uiso   1.00
H953   H     0.28525   0.41553   0.75510   0.00000  Uiso   1.00
H954   H     0.04808   0.58447   0.91157   0.00000  Uiso   1.00
N955   N     0.16668   0.50001   0.95069   0.00000  Uiso   1.00
N956   N     0.16665   0.49999   0.71597   0.00000  Uiso   1.00
O957   O     0.16666   0.43989   0.87291   0.00000  Uiso   1.00
O958   O     0.29731   0.43152   0.78494   0.00000  Uiso   1.00
O959   O     0.33326   0.52558   0.93088   0.00000  Uiso   1.00
O960   O     0.03602   0.56848   0.88172   0.00000  Uiso   1.00
O961   O     0.16667   0.56011   0.79375   0.00000  Uiso   1.00
O962   O     0.16666   0.43988   0.79372   0.00000  Uiso   1.00
O963   O     0.16667   0.56012   0.87294   0.00000  Uiso   1.00
O964   O     0.09161   0.50000   0.86379   0.00000  Uiso   1.00
O965   O     0.24172   0.50000   0.80288   0.00000  Uiso   1.00
O966   O     0.09161   0.49999   0.78460   0.00000  Uiso   1.00
O967   O     0.24172   0.50001   0.88207   0.00000  Uiso   1.00
O968   O     0.00007   0.47442   0.73579   0.00000  Uiso   1.00
C969   C     0.49881   0.42075   0.83331   0.00000  Uiso   1.00
C970   C     0.47121   0.35374   0.86417   0.00000  Uiso   1.00
C971   C     0.50154   0.62385   0.83318   0.00000  Uiso   1.00
C972   C     0.49846   0.37615   0.83349   0.00000  Uiso   1.00
C973   C     0.46390   0.47852   0.68704   0.00000  Uiso   1.00
C974   C     0.53610   0.52148   0.97962   0.00000  Uiso   1.00
C975   C     0.46387   0.47859   0.97078   0.00000  Uiso   1.00
C976   C     0.53613   0.52141   0.69588   0.00000  Uiso   1.00
C977   C     0.65877   0.46654   0.77607   0.00000  Uiso   1.00
C978   C     0.34123   0.53346   0.89059   0.00000  Uiso   1.00
C979   C     0.50119   0.57925   0.83335   0.00000  Uiso   1.00
C980   C     0.40141   0.49972   0.82141   0.00000  Uiso   1.00
C981   C     0.59859   0.50028   0.84525   0.00000  Uiso   1.00
C982   C     0.34686   0.49368   0.81597   0.00000  Uiso   1.00
C983   C     0.65314   0.50632   0.85070   0.00000  Uiso   1.00
C984   C     0.52671   0.35560   0.80268   0.00000  Uiso   1.00
C985   C     0.47329   0.64440   0.86399   0.00000  Uiso   1.00
C986   C     0.52879   0.64626   0.80250   0.00000  Uiso   1.00
Cl987  Cl    0.56838   0.62259   0.76541   0.00000  Uiso   1.00
Cl988  Cl    0.43162   0.37741   0.90125   0.00000  Uiso   1.00
Cu989  Cu    0.50000   0.50001   0.88022   0.00000  Uiso   1.00
Cu990  Cu    0.50000   0.49999   0.78645   0.00000  Uiso   1.00
H991   H     0.54808   0.37281   0.77935   0.00000  Uiso   1.00
H992   H     0.45192   0.62719   0.88732   0.00000  Uiso   1.00
H993   H     0.43507   0.46119   0.70216   0.00000  Uiso   1.00
H994   H     0.56493   0.53881   0.96450   0.00000  Uiso   1.00
H995   H     0.43487   0.46147   0.94860   0.00000  Uiso   1.00
H996   H     0.56513   0.53853   0.71807   0.00000  Uiso   1.00
H997   H     0.61859   0.41553   0.75510   0.00000  Uiso   1.00
H998   H     0.38141   0.58447   0.91157   0.00000  Uiso   1.00
N999   N     0.50001   0.50001   0.95069   0.00000  Uiso   1.00
N1000  N     0.49999   0.49999   0.71597   0.00000  Uiso   1.00
O1001  O     0.50000   0.43989   0.87291   0.00000  Uiso   1.00
O1002  O     0.63064   0.43152   0.78494   0.00000  Uiso   1.00
O1003  O     0.66659   0.52558   0.93088   0.00000  Uiso   1.00
O1004  O     0.36936   0.56848   0.88172   0.00000  Uiso   1.00
O1005  O     0.50000   0.56011   0.79375   0.00000  Uiso   1.00
O1006  O     0.50000   0.43988   0.79372   0.00000  Uiso   1.00
O1007  O     0.50000   0.56012   0.87294   0.00000  Uiso   1.00
O1008  O     0.42495   0.50000   0.86379   0.00000  Uiso   1.00
O1009  O     0.57505   0.50000   0.80288   0.00000  Uiso   1.00
O1010  O     0.42494   0.49999   0.78460   0.00000  Uiso   1.00
O1011  O     0.57506   0.50001   0.88207   0.00000  Uiso   1.00
O1012  O     0.33341   0.47442   0.73579   0.00000  Uiso   1.00
C1013  C     0.83214   0.42075   0.83331   0.00000  Uiso   1.00
C1014  C     0.80455   0.35374   0.86417   0.00000  Uiso   1.00
C1015  C     0.83487   0.62385   0.83318   0.00000  Uiso   1.00
C1016  C     0.83180   0.37615   0.83349   0.00000  Uiso   1.00
C1017  C     0.79723   0.47852   0.68704   0.00000  Uiso   1.00
C1018  C     0.86943   0.52148   0.97962   0.00000  Uiso   1.00
C1019  C     0.79720   0.47859   0.97078   0.00000  Uiso   1.00
C1020  C     0.86947   0.52141   0.69588   0.00000  Uiso   1.00
C1021  C     0.99210   0.46654   0.77607   0.00000  Uiso   1.00
C1022  C     0.67456   0.53346   0.89059   0.00000  Uiso   1.00
C1023  C     0.83452   0.57925   0.83335   0.00000  Uiso   1.00
C1024  C     0.73475   0.49972   0.82141   0.00000  Uiso   1.00
C1025  C     0.93192   0.50028   0.84525   0.00000  Uiso   1.00
C1026  C     0.68019   0.49368   0.81597   0.00000  Uiso   1.00
C1027  C     0.98648   0.50632   0.85070   0.00000  Uiso   1.00
C1028  C     0.86004   0.35560   0.80268   0.00000  Uiso   1.00
C1029  C     0.80663   0.64440   0.86399   0.00000  Uiso   1.00
C1030  C     0.86212   0.64626   0.80250   0.00000  Uiso   1.00
Cl1031 Cl    0.90171   0.62259   0.76541   0.00000  Uiso   1.00
Cl1032 Cl    0.76495   0.37741   0.90125   0.00000  Uiso   1.00
Cu1033 Cu    0.83333   0.50001   0.88022   0.00000  Uiso   1.00
Cu1034 Cu    0.83333   0.49999   0.78645   0.00000  Uiso   1.00
H1035  H     0.88142   0.37281   0.77935   0.00000  Uiso   1.00
H1036  H     0.78525   0.62719   0.88732   0.00000  Uiso   1.00
H1037  H     0.76840   0.46119   0.70216   0.00000  Uiso   1.00
H1038  H     0.89826   0.53881   0.96450   0.00000  Uiso   1.00
H1039  H     0.76820   0.46147   0.94860   0.00000  Uiso   1.00
H1040  H     0.89846   0.53853   0.71807   0.00000  Uiso   1.00
H1041  H     0.95192   0.41553   0.75510   0.00000  Uiso   1.00
H1042  H     0.71475   0.58447   0.91157   0.00000  Uiso   1.00
N1043  N     0.83335   0.50001   0.95069   0.00000  Uiso   1.00
N1044  N     0.83332   0.49999   0.71597   0.00000  Uiso   1.00
O1045  O     0.83333   0.43989   0.87291   0.00000  Uiso   1.00
O1046  O     0.96397   0.43152   0.78494   0.00000  Uiso   1.00
O1047  O     0.99993   0.52558   0.93088   0.00000  Uiso   1.00
O1048  O     0.70269   0.56848   0.88172   0.00000  Uiso   1.00
O1049  O     0.83334   0.56011   0.79375   0.00000  Uiso   1.00
O1050  O     0.83333   0.43988   0.79372   0.00000  Uiso   1.00
O1051  O     0.83334   0.56012   0.87294   0.00000  Uiso   1.00
O1052  O     0.75828   0.50000   0.86379   0.00000  Uiso   1.00
O1053  O     0.90839   0.50000   0.80288   0.00000  Uiso   1.00
O1054  O     0.75828   0.49999   0.78460   0.00000  Uiso   1.00
O1055  O     0.90839   0.50001   0.88207   0.00000  Uiso   1.00
O1056  O     0.66674   0.47442   0.73579   0.00000  Uiso   1.00
C1057  C     0.16548   0.75409   0.83331   0.00000  Uiso   1.00
C1058  C     0.13788   0.68708   0.86417   0.00000  Uiso   1.00
C1059  C     0.16820   0.95719   0.83318   0.00000  Uiso   1.00
C1060  C     0.16513   0.70948   0.83349   0.00000  Uiso   1.00
C1061  C     0.13057   0.81185   0.68704   0.00000  Uiso   1.00
C1062  C     0.20277   0.85481   0.97962   0.00000  Uiso   1.00
C1063  C     0.13053   0.81192   0.97078   0.00000  Uiso   1.00
C1064  C     0.20280   0.85474   0.69588   0.00000  Uiso   1.00
C1065  C     0.32544   0.79987   0.77607   0.00000  Uiso   1.00
C1066  C     0.00790   0.86680   0.89059   0.00000  Uiso   1.00
C1067  C     0.16786   0.91258   0.83335   0.00000  Uiso   1.00
C1068  C     0.06808   0.83305   0.82141   0.00000  Uiso   1.00
C1069  C     0.26525   0.83361   0.84525   0.00000  Uiso   1.00
C1070  C     0.01352   0.82701   0.81597   0.00000  Uiso   1.00
C1071  C     0.31981   0.83966   0.85070   0.00000  Uiso   1.00
C1072  C     0.19337   0.68894   0.80268   0.00000  Uiso   1.00
C1073  C     0.13996   0.97773   0.86399   0.00000  Uiso   1.00
C1074  C     0.19545   0.97959   0.80250   0.00000  Uiso   1.00
Cl1075 Cl    0.23504   0.95593   0.76541   0.00000  Uiso   1.00
Cl1076 Cl    0.09829   0.71074   0.90125   0.00000  Uiso   1.00
Cu1077 Cu    0.16667   0.83334   0.88022   0.00000  Uiso   1.00
Cu1078 Cu    0.16667   0.83333   0.78645   0.00000  Uiso   1.00
H1079  H     0.21475   0.70614   0.77935   0.00000  Uiso   1.00
H1080  H     0.11858   0.96053   0.88732   0.00000  Uiso   1.00
H1081  H     0.10174   0.79453   0.70216   0.00000  Uiso   1.00
H1082  H     0.23160   0.87214   0.96450   0.00000  Uiso   1.00
H1083  H     0.10154   0.79480   0.94860   0.00000  Uiso   1.00
H1084  H     0.23179   0.87187   0.71807   0.00000  Uiso   1.00
H1085  H     0.28525   0.74886   0.75510   0.00000  Uiso   1.00
H1086  H     0.04808   0.91781   0.91157   0.00000  Uiso   1.00
N1087  N     0.16668   0.83334   0.95069   0.00000  Uiso   1.00
N1088  N     0.16665   0.83332   0.71597   0.00000  Uiso   1.00
O1089  O     0.16666   0.77322   0.87291   0.00000  Uiso   1.00
O1090  O     0.29731   0.76485   0.78494   0.00000  Uiso   1.00
O1091  O     0.33326   0.85892   0.93088   0.00000  Uiso   1.00
O1092  O     0.03602   0.90181   0.88172   0.00000  Uiso   1.00
O1093  O     0.16667   0.89345   0.79375   0.00000  Uiso   1.00
O1094  O     0.16666   0.77321   0.79372   0.00000  Uiso   1.00
O1095  O     0.16667   0.89346   0.87294   0.00000  Uiso   1.00
O1096  O     0.09161   0.83334   0.86379   0.00000  Uiso   1.00
O1097  O     0.24172   0.83333   0.80288   0.00000  Uiso   1.00
O1098  O     0.09161   0.83333   0.78460   0.00000  Uiso   1.00
O1099  O     0.24172   0.83334   0.88207   0.00000  Uiso   1.00
O1100  O     0.00007   0.80775   0.73579   0.00000  Uiso   1.00
C1101  C     0.49881   0.75409   0.83331   0.00000  Uiso   1.00
C1102  C     0.47121   0.68708   0.86417   0.00000  Uiso   1.00
C1103  C     0.50154   0.95719   0.83318   0.00000  Uiso   1.00
C1104  C     0.49846   0.70948   0.83349   0.00000  Uiso   1.00
C1105  C     0.46390   0.81185   0.68704   0.00000  Uiso   1.00
C1106  C     0.53610   0.85481   0.97962   0.00000  Uiso   1.00
C1107  C     0.46387   0.81192   0.97078   0.00000  Uiso   1.00
C1108  C     0.53613   0.85474   0.69588   0.00000  Uiso   1.00
C1109  C     0.65877   0.79987   0.77607   0.00000  Uiso   1.00
C1110  C     0.34123   0.86680   0.89059   0.00000  Uiso   1.00
C1111  C     0.50119   0.91258   0.83335   0.00000  Uiso   1.00
C1112  C     0.40141   0.83305   0.82141   0.00000  Uiso   1.00
C1113  C     0.59859   0.83361   0.84525   0.00000  Uiso   1.00
C1114  C     0.34686   0.82701   0.81597   0.00000  Uiso   1.00
C1115  C     0.65314   0.83966   0.85070   0.00000  Uiso   1.00
C1116  C     0.52671   0.68894   0.80268   0.00000  Uiso   1.00
C1117  C     0.47329   0.97773   0.86399   0.00000  Uiso   1.00
C1118  C     0.52879   0.97959   0.80250   0.00000  Uiso   1.00
Cl1119 Cl    0.56838   0.95593   0.76541   0.00000  Uiso   1.00
Cl1120 Cl    0.43162   0.71074   0.90125   0.00000  Uiso   1.00
Cu1121 Cu    0.50000   0.83334   0.88022   0.00000  Uiso   1.00
Cu1122 Cu    0.50000   0.83333   0.78645   0.00000  Uiso   1.00
H1123  H     0.54808   0.70614   0.77935   0.00000  Uiso   1.00
H1124  H     0.45192   0.96053   0.88732   0.00000  Uiso   1.00
H1125  H     0.43507   0.79453   0.70216   0.00000  Uiso   1.00
H1126  H     0.56493   0.87214   0.96450   0.00000  Uiso   1.00
H1127  H     0.43487   0.79480   0.94860   0.00000  Uiso   1.00
H1128  H     0.56513   0.87187   0.71807   0.00000  Uiso   1.00
H1129  H     0.61859   0.74886   0.75510   0.00000  Uiso   1.00
H1130  H     0.38141   0.91781   0.91157   0.00000  Uiso   1.00
N1131  N     0.50001   0.83334   0.95069   0.00000  Uiso   1.00
N1132  N     0.49999   0.83332   0.71597   0.00000  Uiso   1.00
O1133  O     0.50000   0.77322   0.87291   0.00000  Uiso   1.00
O1134  O     0.63064   0.76485   0.78494   0.00000  Uiso   1.00
O1135  O     0.66659   0.85892   0.93088   0.00000  Uiso   1.00
O1136  O     0.36936   0.90181   0.88172   0.00000  Uiso   1.00
O1137  O     0.50000   0.89345   0.79375   0.00000  Uiso   1.00
O1138  O     0.50000   0.77321   0.79372   0.00000  Uiso   1.00
O1139  O     0.50000   0.89346   0.87294   0.00000  Uiso   1.00
O1140  O     0.42495   0.83334   0.86379   0.00000  Uiso   1.00
O1141  O     0.57505   0.83333   0.80288   0.00000  Uiso   1.00
O1142  O     0.42494   0.83333   0.78460   0.00000  Uiso   1.00
O1143  O     0.57506   0.83334   0.88207   0.00000  Uiso   1.00
O1144  O     0.33341   0.80775   0.73579   0.00000  Uiso   1.00
C1145  C     0.83214   0.75409   0.83331   0.00000  Uiso   1.00
C1146  C     0.80455   0.68708   0.86417   0.00000  Uiso   1.00
C1147  C     0.83487   0.95719   0.83318   0.00000  Uiso   1.00
C1148  C     0.83180   0.70948   0.83349   0.00000  Uiso   1.00
C1149  C     0.79723   0.81185   0.68704   0.00000  Uiso   1.00
C1150  C     0.86943   0.85481   0.97962   0.00000  Uiso   1.00
C1151  C     0.79720   0.81192   0.97078   0.00000  Uiso   1.00
C1152  C     0.86947   0.85474   0.69588   0.00000  Uiso   1.00
C1153  C     0.99210   0.79987   0.77607   0.00000  Uiso   1.00
C1154  C     0.67456   0.86680   0.89059   0.00000  Uiso   1.00
C1155  C     0.83452   0.91258   0.83335   0.00000  Uiso   1.00
C1156  C     0.73475   0.83305   0.82141   0.00000  Uiso   1.00
C1157  C     0.93192   0.83361   0.84525   0.00000  Uiso   1.00
C1158  C     0.68019   0.82701   0.81597   0.00000  Uiso   1.00
C1159  C     0.98648   0.83966   0.85070   0.00000  Uiso   1.00
C1160  C     0.86004   0.68894   0.80268   0.00000  Uiso   1.00
C1161  C     0.80663   0.97773   0.86399   0.00000  Uiso   1.00
C1162  C     0.86212   0.97959   0.80250   0.00000  Uiso   1.00
Cl1163 Cl    0.90171   0.95593   0.76541   0.00000  Uiso   1.00
Cl1164 Cl    0.76495   0.71074   0.90125   0.00000  Uiso   1.00
Cu1165 Cu    0.83333   0.83334   0.88022   0.00000  Uiso   1.00
Cu1166 Cu    0.83333   0.83333   0.78645   0.00000  Uiso   1.00
H1167  H     0.88142   0.70614   0.77935   0.00000  Uiso   1.00
H1168  H     0.78525   0.96053   0.88732   0.00000  Uiso   1.00
H1169  H     0.76840   0.79453   0.70216   0.00000  Uiso   1.00
H1170  H     0.89826   0.87214   0.96450   0.00000  Uiso   1.00
H1171  H     0.76820   0.79480   0.94860   0.00000  Uiso   1.00
H1172  H     0.89846   0.87187   0.71807   0.00000  Uiso   1.00
H1173  H     0.95192   0.74886   0.75510   0.00000  Uiso   1.00
H1174  H     0.71475   0.91781   0.91157   0.00000  Uiso   1.00
N1175  N     0.83335   0.83334   0.95069   0.00000  Uiso   1.00
N1176  N     0.83332   0.83332   0.71597   0.00000  Uiso   1.00
O1177  O     0.83333   0.77322   0.87291   0.00000  Uiso   1.00
O1178  O     0.96397   0.76485   0.78494   0.00000  Uiso   1.00
O1179  O     0.99993   0.85892   0.93088   0.00000  Uiso   1.00
O1180  O     0.70269   0.90181   0.88172   0.00000  Uiso   1.00
O1181  O     0.83334   0.89345   0.79375   0.00000  Uiso   1.00
O1182  O     0.83333   0.77321   0.79372   0.00000  Uiso   1.00
O1183  O     0.83334   0.89346   0.87294   0.00000  Uiso   1.00
O1184  O     0.75828   0.83334   0.86379   0.00000  Uiso   1.00
O1185  O     0.90839   0.83333   0.80288   0.00000  Uiso   1.00
O1186  O     0.75828   0.83333   0.78460   0.00000  Uiso   1.00
O1187  O     0.90839   0.83334   0.88207   0.00000  Uiso   1.00
O1188  O     0.66674   0.80775   0.73579   0.00000  Uiso   1.00
loop_
_geom_bond_atom_site_label_1
_geom_bond_atom_site_label_2
_geom_bond_distance
_geom_bond_site_symmetry_2
_ccdc_geom_bond_type
C1     C4      1.447   .     S
C1     O33     1.289   .     A
C1     O38     1.291   .     A
C2     C4      1.407   .     A
C2     Cl20    1.763   .     S
C2     C281    1.385   1_545 S
C3     C17     1.399   .     A
C3     C11     1.447   .     S
C3     C18     1.407   .     A
C4     C16     1.399   .     A
C5     N32     1.367   .     A
C5     H25     1.081   .     S
C5     C799    1.416   1_554 S
C6     N31     1.367   .     A
C6     H26     1.081   .     S
C6     C404    1.416   .     S
C7     H27     1.081   .     S
C7     N31     1.367   .     A
C7     C401    1.416   .     S
C8     H28     1.081   .     S
C8     N32     1.367   .     A
C8     C798    1.416   1_554 S
C9     O34     1.398   .     S
C9     C58     1.493   .     S
C9     O88     1.223   .     S
C10    O36     1.398   .     S
C10    C103    1.493   1_455 S
C10    O123    1.223   1_455 S
C11    O39     1.291   .     A
C11    O37     1.289   .     A
C12    O40     1.283   .     A
C12    O42     1.292   .     A
C12    C14     1.441   .     S
C13    O41     1.283   .     A
C13    C15     1.441   .     S
C13    O43     1.292   .     A
C14    C97     1.493   1_455 S
C14    C103    1.363   1_455 S
C15    C54     1.493   .     S
C15    C58     1.363   .     S
C16    H23     1.083   .     S
C16    C282    1.385   1_545 S
C17    H24     1.083   .     S
C17    C134    1.385   .     S
C18    Cl19    1.763   .     S
C18    C148    1.385   .     S
Cu21   O39     1.960   .     S
Cu21   Cu22    2.678   .     S
Cu21   N31     2.013   .     S
Cu21   O40     1.973   .     S
Cu21   O33     1.962   .     S
Cu21   O43     1.975   .     S
Cu22   O42     1.975   .     S
Cu22   N32     2.013   .     S
Cu22   O41     1.973   .     S
Cu22   O37     1.962   .     S
Cu22   O38     1.960   .     S
H29    O34     1.014   .     S
H30    O36     1.014   .     S
O35    C54     1.223   .     S
O44    C97     1.223   1_455 S
C45    C48     1.447   .     S
C45    O77     1.289   .     A
C45    O82     1.291   .     A
C46    C48     1.407   .     A
C46    Cl64    1.763   .     S
C46    C325    1.385   1_545 S
C47    C61     1.399   .     A
C47    C55     1.447   .     S
C47    C62     1.407   .     A
C48    C60     1.399   .     A
C49    N76     1.367   .     A
C49    H69     1.081   .     S
C49    C843    1.416   1_554 S
C50    N75     1.367   .     A
C50    H70     1.081   .     S
C50    C448    1.416   .     S
C51    H71     1.081   .     S
C51    N75     1.367   .     A
C51    C445    1.416   .     S
C52    H72     1.081   .     S
C52    N76     1.367   .     A
C52    C842    1.416   1_554 S
C53    O78     1.398   .     S
C53    C102    1.493   .     S
C53    O132    1.223   .     S
C54    O80     1.398   .     S
C55    O83     1.291   .     A
C55    O81     1.289   .     A
C56    O84     1.283   .     A
C56    O86     1.292   .     A
C56    C58     1.441   .     S
C57    O85     1.283   .     A
C57    C59     1.441   .     S
C57    O87     1.292   .     A
C59    C98     1.493   .     S
C59    C102    1.363   .     S
C60    H67     1.083   .     S
C60    C326    1.385   1_545 S
C61    H68     1.083   .     S
C61    C178    1.385   .     S
C62    Cl63    1.763   .     S
C62    C192    1.385   .     S
Cu65   O83     1.960   .     S
Cu65   Cu66    2.678   .     S
Cu65   N75     2.013   .     S
Cu65   O84     1.973   .     S
Cu65   O77     1.962   .     S
Cu65   O87     1.975   .     S
Cu66   O86     1.975   .     S
Cu66   N76     2.013   .     S
Cu66   O85     1.973   .     S
Cu66   O81     1.962   .     S
Cu66   O82     1.960   .     S
H73    O78     1.014   .     S
H74    O80     1.014   .     S
O79    C98     1.223   .     S
C89    C92     1.447   .     S
C89    O121    1.289   .     A
C89    O126    1.291   .     A
C90    C92     1.407   .     A
C90    Cl108   1.763   .     S
C90    C369    1.385   1_545 S
C91    C105    1.399   .     A
C91    C99     1.447   .     S
C91    C106    1.407   .     A
C92    C104    1.399   .     A
C93    N120    1.367   .     A
C93    H113    1.081   .     S
C93    C887    1.416   1_554 S
C94    N119    1.367   .     A
C94    H114    1.081   .     S
C94    C492    1.416   .     S
C95    H115    1.081   .     S
C95    N119    1.367   .     A
C95    C489    1.416   .     S
C96    H116    1.081   .     S
C96    N120    1.367   .     A
C96    C886    1.416   1_554 S
C97    O122    1.398   .     S
C97    C14     1.493   1_655 S
C97    O44     1.223   1_655 S
C98    O124    1.398   .     S
C99    O127    1.291   .     A
C99    O125    1.289   .     A
C100   O128    1.283   .     A
C100   O130    1.292   .     A
C100   C102    1.441   .     S
C101   O129    1.283   .     A
C101   C103    1.441   .     S
C101   O131    1.292   .     A
C103   C10     1.493   1_655 S
C103   C14     1.363   1_655 S
C104   H111    1.083   .     S
C104   C370    1.385   1_545 S
C105   H112    1.083   .     S
C105   C222    1.385   .     S
C106   Cl107   1.763   .     S
C106   C236    1.385   .     S
Cu109  O127    1.960   .     S
Cu109  Cu110   2.678   .     S
Cu109  N119    2.013   .     S
Cu109  O128    1.973   .     S
Cu109  O121    1.962   .     S
Cu109  O131    1.975   .     S
Cu110  O130    1.975   .     S
Cu110  N120    2.013   .     S
Cu110  O129    1.973   .     S
Cu110  O125    1.962   .     S
Cu110  O126    1.960   .     S
H117   O122    1.014   .     S
H118   O124    1.014   .     S
O123   C10     1.223   1_655 S
C133   C136    1.447   .     S
C133   O165    1.289   .     A
C133   O170    1.291   .     A
C134   C136    1.407   .     A
C134   Cl152   1.763   .     S
C135   C149    1.399   .     A
C135   C143    1.447   .     S
C135   C150    1.407   .     A
C136   C148    1.399   .     A
C137   N164    1.367   .     A
C137   H157    1.081   .     S
C137   C931    1.416   1_554 S
C138   N163    1.367   .     A
C138   H158    1.081   .     S
C138   C536    1.416   .     S
C139   H159    1.081   .     S
C139   N163    1.367   .     A
C139   C533    1.416   .     S
C140   H160    1.081   .     S
C140   N164    1.367   .     A
C140   C930    1.416   1_554 S
C141   O166    1.398   .     S
C141   C190    1.493   .     S
C141   O220    1.223   .     S
C142   O168    1.398   .     S
C142   C235    1.493   1_455 S
C142   O255    1.223   1_455 S
C143   O171    1.291   .     A
C143   O169    1.289   .     A
C144   O172    1.283   .     A
C144   O174    1.292   .     A
C144   C146    1.441   .     S
C145   O173    1.283   .     A
C145   C147    1.441   .     S
C145   O175    1.292   .     A
C146   C229    1.493   1_455 S
C146   C235    1.363   1_455 S
C147   C186    1.493   .     S
C147   C190    1.363   .     S
C148   H155    1.083   .     S
C149   H156    1.083   .     S
C149   C266    1.385   .     S
C150   Cl151   1.763   .     S
C150   C280    1.385   .     S
Cu153  O171    1.960   .     S
Cu153  Cu154   2.678   .     S
Cu153  N163    2.013   .     S
Cu153  O172    1.973   .     S
Cu153  O165    1.962   .     S
Cu153  O175    1.975   .     S
Cu154  O174    1.975   .     S
Cu154  N164    2.013   .     S
Cu154  O173    1.973   .     S
Cu154  O169    1.962   .     S
Cu154  O170    1.960   .     S
H161   O166    1.014   .     S
H162   O168    1.014   .     S
O167   C186    1.223   .     S
O176   C229    1.223   1_455 S
C177   C180    1.447   .     S
C177   O209    1.289   .     A
C177   O214    1.291   .     A
C178   C180    1.407   .     A
C178   Cl196   1.763   .     S
C179   C193    1.399   .     A
C179   C187    1.447   .     S
C179   C194    1.407   .     A
C180   C192    1.399   .     A
C181   N208    1.367   .     A
C181   H201    1.081   .     S
C181   C975    1.416   1_554 S
C182   N207    1.367   .     A
C182   H202    1.081   .     S
C182   C580    1.416   .     S
C183   H203    1.081   .     S
C183   N207    1.367   .     A
C183   C577    1.416   .     S
C184   H204    1.081   .     S
C184   N208    1.367   .     A
C184   C974    1.416   1_554 S
C185   O210    1.398   .     S
C185   C234    1.493   .     S
C185   O264    1.223   .     S
C186   O212    1.398   .     S
C187   O215    1.291   .     A
C187   O213    1.289   .     A
C188   O216    1.283   .     A
C188   O218    1.292   .     A
C188   C190    1.441   .     S
C189   O217    1.283   .     A
C189   C191    1.441   .     S
C189   O219    1.292   .     A
C191   C230    1.493   .     S
C191   C234    1.363   .     S
C192   H199    1.083   .     S
C193   H200    1.083   .     S
C193   C310    1.385   .     S
C194   Cl195   1.763   .     S
C194   C324    1.385   .     S
Cu197  O215    1.960   .     S
Cu197  Cu198   2.678   .     S
Cu197  N207    2.013   .     S
Cu197  O216    1.973   .     S
Cu197  O209    1.962   .     S
Cu197  O219    1.975   .     S
Cu198  O218    1.975   .     S
Cu198  N208    2.013   .     S
Cu198  O217    1.973   .     S
Cu198  O213    1.962   .     S
Cu198  O214    1.960   .     S
H205   O210    1.014   .     S
H206   O212    1.014   .     S
O211   C230    1.223   .     S
C221   C224    1.447   .     S
C221   O253    1.289   .     A
C221   O258    1.291   .     A
C222   C224    1.407   .     A
C222   Cl240   1.763   .     S
C223   C237    1.399   .     A
C223   C231    1.447   .     S
C223   C238    1.407   .     A
C224   C236    1.399   .     A
C225   N252    1.367   .     A
C225   H245    1.081   .     S
C225   C1019   1.416   1_554 S
C226   N251    1.367   .     A
C226   H246    1.081   .     S
C226   C624    1.416   .     S
C227   H247    1.081   .     S
C227   N251    1.367   .     A
C227   C621    1.416   .     S
C228   H248    1.081   .     S
C228   N252    1.367   .     A
C228   C1018   1.416   1_554 S
C229   O254    1.398   .     S
C229   C146    1.493   1_655 S
C229   O176    1.223   1_655 S
C230   O256    1.398   .     S
C231   O259    1.291   .     A
C231   O257    1.289   .     A
C232   O260    1.283   .     A
C232   O262    1.292   .     A
C232   C234    1.441   .     S
C233   O261    1.283   .     A
C233   C235    1.441   .     S
C233   O263    1.292   .     A
C235   C142    1.493   1_655 S
C235   C146    1.363   1_655 S
C236   H243    1.083   .     S
C237   H244    1.083   .     S
C237   C354    1.385   .     S
C238   Cl239   1.763   .     S
C238   C368    1.385   .     S
Cu241  O259    1.960   .     S
Cu241  Cu242   2.678   .     S
Cu241  N251    2.013   .     S
Cu241  O260    1.973   .     S
Cu241  O253    1.962   .     S
Cu241  O263    1.975   .     S
Cu242  O262    1.975   .     S
Cu242  N252    2.013   .     S
Cu242  O261    1.973   .     S
Cu242  O257    1.962   .     S
Cu242  O258    1.960   .     S
H249   O254    1.014   .     S
H250   O256    1.014   .     S
O255   C142    1.223   1_655 S
C265   C268    1.447   .     S
C265   O297    1.289   .     A
C265   O302    1.291   .     A
C266   C268    1.407   .     A
C266   Cl284   1.763   .     S
C267   C281    1.399   .     A
C267   C275    1.447   .     S
C267   C282    1.407   .     A
C268   C280    1.399   .     A
C269   N296    1.367   .     A
C269   H289    1.081   .     S
C269   C1063   1.416   1_554 S
C270   N295    1.367   .     A
C270   H290    1.081   .     S
C270   C668    1.416   .     S
C271   H291    1.081   .     S
C271   N295    1.367   .     A
C271   C665    1.416   .     S
C272   H292    1.081   .     S
C272   N296    1.367   .     A
C272   C1062   1.416   1_554 S
C273   O298    1.398   .     S
C273   C322    1.493   .     S
C273   O352    1.223   .     S
C274   O300    1.398   .     S
C274   C367    1.493   1_455 S
C274   O387    1.223   1_455 S
C275   O303    1.291   .     A
C275   O301    1.289   .     A
C276   O304    1.283   .     A
C276   O306    1.292   .     A
C276   C278    1.441   .     S
C277   O305    1.283   .     A
C277   C279    1.441   .     S
C277   O307    1.292   .     A
C278   C361    1.493   1_455 S
C278   C367    1.363   1_455 S
C279   C318    1.493   .     S
C279   C322    1.363   .     S
C280   H287    1.083   .     S
C281   H288    1.083   .     S
C281   C2      1.385   1_565 S
C282   Cl283   1.763   .     S
C282   C16     1.385   1_565 S
Cu285  O303    1.960   .     S
Cu285  Cu286   2.678   .     S
Cu285  N295    2.013   .     S
Cu285  O304    1.973   .     S
Cu285  O297    1.962   .     S
Cu285  O307    1.975   .     S
Cu286  O306    1.975   .     S
Cu286  N296    2.013   .     S
Cu286  O305    1.973   .     S
Cu286  O301    1.962   .     S
Cu286  O302    1.960   .     S
H293   O298    1.014   .     S
H294   O300    1.014   .     S
O299   C318    1.223   .     S
O308   C361    1.223   1_455 S
C309   C312    1.447   .     S
C309   O341    1.289   .     A
C309   O346    1.291   .     A
C310   C312    1.407   .     A
C310   Cl328   1.763   .     S
C311   C325    1.399   .     A
C311   C319    1.447   .     S
C311   C326    1.407   .     A
C312   C324    1.399   .     A
C313   N340    1.367   .     A
C313   H333    1.081   .     S
C313   C1107   1.416   1_554 S
C314   N339    1.367   .     A
C314   H334    1.081   .     S
C314   C712    1.416   .     S
C315   H335    1.081   .     S
C315   N339    1.367   .     A
C315   C709    1.416   .     S
C316   H336    1.081   .     S
C316   N340    1.367   .     A
C316   C1106   1.416   1_554 S
C317   O342    1.398   .     S
C317   C366    1.493   .     S
C317   O396    1.223   .     S
C318   O344    1.398   .     S
C319   O347    1.291   .     A
C319   O345    1.289   .     A
C320   O348    1.283   .     A
C320   O350    1.292   .     A
C320   C322    1.441   .     S
C321   O349    1.283   .     A
C321   C323    1.441   .     S
C321   O351    1.292   .     A
C323   C362    1.493   .     S
C323   C366    1.363   .     S
C324   H331    1.083   .     S
C325   H332    1.083   .     S
C325   C46     1.385   1_565 S
C326   Cl327   1.763   .     S
C326   C60     1.385   1_565 S
Cu329  O347    1.960   .     S
Cu329  Cu330   2.678   .     S
Cu329  N339    2.013   .     S
Cu329  O348    1.973   .     S
Cu329  O341    1.962   .     S
Cu329  O351    1.975   .     S
Cu330  O350    1.975   .     S
Cu330  N340    2.013   .     S
Cu330  O349    1.973   .     S
Cu330  O345    1.962   .     S
Cu330  O346    1.960   .     S
H337   O342    1.014   .     S
H338   O344    1.014   .     S
O343   C362    1.223   .     S
C353   C356    1.447   .     S
C353   O385    1.289   .     A
C353   O390    1.291   .     A
C354   C356    1.407   .     A
C354   Cl372   1.763   .     S
C355   C369    1.399   .     A
C355   C363    1.447   .     S
C355   C370    1.407   .     A
C356   C368    1.399   .     A
C357   N384    1.367   .     A
C357   H377    1.081   .     S
C357   C1151   1.416   1_554 S
C358   N383    1.367   .     A
C358   H378    1.081   .     S
C358   C756    1.416   .     S
C359   H379    1.081   .     S
C359   N383    1.367   .     A
C359   C753    1.416   .     S
C360   H380    1.081   .     S
C360   N384    1.367   .     A
C360   C1150   1.416   1_554 S
C361   O386    1.398   .     S
C361   C278    1.493   1_655 S
C361   O308    1.223   1_655 S
C362   O388    1.398   .     S
C363   O391    1.291   .     A
C363   O389    1.289   .     A
C364   O392    1.283   .     A
C364   O394    1.292   .     A
C364   C366    1.441   .     S
C365   O393    1.283   .     A
C365   C367    1.441   .     S
C365   O395    1.292   .     A
C367   C274    1.493   1_655 S
C367   C278    1.363   1_655 S
C368   H375    1.083   .     S
C369   H376    1.083   .     S
C369   C90     1.385   1_565 S
C370   Cl371   1.763   .     S
C370   C104    1.385   1_565 S
Cu373  O391    1.960   .     S
Cu373  Cu374   2.678   .     S
Cu373  N383    2.013   .     S
Cu373  O392    1.973   .     S
Cu373  O385    1.962   .     S
Cu373  O395    1.975   .     S
Cu374  O394    1.975   .     S
Cu374  N384    2.013   .     S
Cu374  O393    1.973   .     S
Cu374  O389    1.962   .     S
Cu374  O390    1.960   .     S
H381   O386    1.014   .     S
H382   O388    1.014   .     S
O387   C274    1.223   1_655 S
C397   C400    1.447   .     S
C397   O429    1.289   .     A
C397   O434    1.291   .     A
C398   C400    1.407   .     A
C398   Cl416   1.763   .     S
C398   C677    1.385   1_545 S
C399   C413    1.399   .     A
C399   C407    1.447   .     S
C399   C414    1.407   .     A
C400   C412    1.399   .     A
C401   N428    1.367   .     A
C401   H421    1.081   .     S
C402   N427    1.367   .     A
C402   H422    1.081   .     S
C402   C800    1.416   .     S
C403   H423    1.081   .     S
C403   N427    1.367   .     A
C403   C797    1.416   .     S
C404   H424    1.081   .     S
C404   N428    1.367   .     A
C405   O430    1.398   .     S
C405   C454    1.493   .     S
C405   O484    1.223   .     S
C406   O432    1.398   .     S
C406   C499    1.493   1_455 S
C406   O519    1.223   1_455 S
C407   O435    1.291   .     A
C407   O433    1.289   .     A
C408   O436    1.283   .     A
C408   O438    1.292   .     A
C408   C410    1.441   .     S
C409   O437    1.283   .     A
C409   C411    1.441   .     S
C409   O439    1.292   .     A
C410   C493    1.493   1_455 S
C410   C499    1.363   1_455 S
C411   C450    1.493   .     S
C411   C454    1.363   .     S
C412   H419    1.083   .     S
C412   C678    1.385   1_545 S
C413   H420    1.083   .     S
C413   C530    1.385   .     S
C414   Cl415   1.763   .     S
C414   C544    1.385   .     S
Cu417  O435    1.960   .     S
Cu417  Cu418   2.678   .     S
Cu417  N427    2.013   .     S
Cu417  O436    1.973   .     S
Cu417  O429    1.962   .     S
Cu417  O439    1.975   .     S
Cu418  O438    1.975   .     S
Cu418  N428    2.013   .     S
Cu418  O437    1.973   .     S
Cu418  O433    1.962   .     S
Cu418  O434    1.960   .     S
H425   O430    1.014   .     S
H426   O432    1.014   .     S
O431   C450    1.223   .     S
O440   C493    1.223   1_455 S
C441   C444    1.447   .     S
C441   O473    1.289   .     A
C441   O478    1.291   .     A
C442   C444    1.407   .     A
C442   Cl460   1.763   .     S
C442   C721    1.385   1_545 S
C443   C457    1.399   .     A
C443   C451    1.447   .     S
C443   C458    1.407   .     A
C444   C456    1.399   .     A
C445   N472    1.367   .     A
C445   H465    1.081   .     S
C446   N471    1.367   .     A
C446   H466    1.081   .     S
C446   C844    1.416   .     S
C447   H467    1.081   .     S
C447   N471    1.367   .     A
C447   C841    1.416   .     S
C448   H468    1.081   .     S
C448   N472    1.367   .     A
C449   O474    1.398   .     S
C449   C498    1.493   .     S
C449   O528    1.223   .     S
C450   O476    1.398   .     S
C451   O479    1.291   .     A
C451   O477    1.289   .     A
C452   O480    1.283   .     A
C452   O482    1.292   .     A
C452   C454    1.441   .     S
C453   O481    1.283   .     A
C453   C455    1.441   .     S
C453   O483    1.292   .     A
C455   C494    1.493   .     S
C455   C498    1.363   .     S
C456   H463    1.083   .     S
C456   C722    1.385   1_545 S
C457   H464    1.083   .     S
C457   C574    1.385   .     S
C458   Cl459   1.763   .     S
C458   C588    1.385   .     S
Cu461  O479    1.960   .     S
Cu461  Cu462   2.678   .     S
Cu461  N471    2.013   .     S
Cu461  O480    1.973   .     S
Cu461  O473    1.962   .     S
Cu461  O483    1.975   .     S
Cu462  O482    1.975   .     S
Cu462  N472    2.013   .     S
Cu462  O481    1.973   .     S
Cu462  O477    1.962   .     S
Cu462  O478    1.960   .     S
H469   O474    1.014   .     S
H470   O476    1.014   .     S
O475   C494    1.223   .     S
C485   C488    1.447   .     S
C485   O517    1.289   .     A
C485   O522    1.291   .     A
C486   C488    1.407   .     A
C486   Cl504   1.763   .     S
C486   C765    1.385   1_545 S
C487   C501    1.399   .     A
C487   C495    1.447   .     S
C487   C502    1.407   .     A
C488   C500    1.399   .     A
C489   N516    1.367   .     A
C489   H509    1.081   .     S
C490   N515    1.367   .     A
C490   H510    1.081   .     S
C490   C888    1.416   .     S
C491   H511    1.081   .     S
C491   N515    1.367   .     A
C491   C885    1.416   .     S
C492   H512    1.081   .     S
C492   N516    1.367   .     A
C493   O518    1.398   .     S
C493   C410    1.493   1_655 S
C493   O440    1.223   1_655 S
C494   O520    1.398   .     S
C495   O523    1.291   .     A
C495   O521    1.289   .     A
C496   O524    1.283   .     A
C496   O526    1.292   .     A
C496   C498    1.441   .     S
C497   O525    1.283   .     A
C497   C499    1.441   .     S
C497   O527    1.292   .     A
C499   C406    1.493   1_655 S
C499   C410    1.363   1_655 S
C500   H507    1.083   .     S
C500   C766    1.385   1_545 S
C501   H508    1.083   .     S
C501   C618    1.385   .     S
C502   Cl503   1.763   .     S
C502   C632    1.385   .     S
Cu505  O523    1.960   .     S
Cu505  Cu506   2.678   .     S
Cu505  N515    2.013   .     S
Cu505  O524    1.973   .     S
Cu505  O517    1.962   .     S
Cu505  O527    1.975   .     S
Cu506  O526    1.975   .     S
Cu506  N516    2.013   .     S
Cu506  O525    1.973   .     S
Cu506  O521    1.962   .     S
Cu506  O522    1.960   .     S
H513   O518    1.014   .     S
H514   O520    1.014   .     S
O519   C406    1.223   1_655 S
C529   C532    1.447   .     S
C529   O561    1.289   .     A
C529   O566    1.291   .     A
C530   C532    1.407   .     A
C530   Cl548   1.763   .     S
C531   C545    1.399   .     A
C531   C539    1.447   .     S
C531   C546    1.407   .     A
C532   C544    1.399   .     A
C533   N560    1.367   .     A
C533   H553    1.081   .     S
C534   N559    1.367   .     A
C534   H554    1.081   .     S
C534   C932    1.416   .     S
C535   H555    1.081   .     S
C535   N559    1.367   .     A
C535   C929    1.416   .     S
C536   H556    1.081   .     S
C536   N560    1.367   .     A
C537   O562    1.398   .     S
C537   C586    1.493   .     S
C537   O616    1.223   .     S
C538   O564    1.398   .     S
C538   C631    1.493   1_455 S
C538   O651    1.223   1_455 S
C539   O567    1.291   .     A
C539   O565    1.289   .     A
C540   O568    1.283   .     A
C540   O570    1.292   .     A
C540   C542    1.441   .     S
C541   O569    1.283   .     A
C541   C543    1.441   .     S
C541   O571    1.292   .     A
C542   C625    1.493   1_455 S
C542   C631    1.363   1_455 S
C543   C582    1.493   .     S
C543   C586    1.363   .     S
C544   H551    1.083   .     S
C545   H552    1.083   .     S
C545   C662    1.385   .     S
C546   Cl547   1.763   .     S
C546   C676    1.385   .     S
Cu549  O567    1.960   .     S
Cu549  Cu550   2.678   .     S
Cu549  N559    2.013   .     S
Cu549  O568    1.973   .     S
Cu549  O561    1.962   .     S
Cu549  O571    1.975   .     S
Cu550  O570    1.975   .     S
Cu550  N560    2.013   .     S
Cu550  O569    1.973   .     S
Cu550  O565    1.962   .     S
Cu550  O566    1.960   .     S
H557   O562    1.014   .     S
H558   O564    1.014   .     S
O563   C582    1.223   .     S
O572   C625    1.223   1_455 S
C573   C576    1.447   .     S
C573   O605    1.289   .     A
C573   O610    1.291   .     A
C574   C576    1.407   .     A
C574   Cl592   1.763   .     S
C575   C589    1.399   .     A
C575   C583    1.447   .     S
C575   C590    1.407   .     A
C576   C588    1.399   .     A
C577   N604    1.367   .     A
C577   H597    1.081   .     S
C578   N603    1.367   .     A
C578   H598    1.081   .     S
C578   C976    1.416   .     S
C579   H599    1.081   .     S
C579   N603    1.367   .     A
C579   C973    1.416   .     S
C580   H600    1.081   .     S
C580   N604    1.367   .     A
C581   O606    1.398   .     S
C581   C630    1.493   .     S
C581   O660    1.223   .     S
C582   O608    1.398   .     S
C583   O611    1.291   .     A
C583   O609    1.289   .     A
C584   O612    1.283   .     A
C584   O614    1.292   .     A
C584   C586    1.441   .     S
C585   O613    1.283   .     A
C585   C587    1.441   .     S
C585   O615    1.292   .     A
C587   C626    1.493   .     S
C587   C630    1.363   .     S
C588   H595    1.083   .     S
C589   H596    1.083   .     S
C589   C706    1.385   .     S
C590   Cl591   1.763   .     S
C590   C720    1.385   .     S
Cu593  O611    1.960   .     S
Cu593  Cu594   2.678   .     S
Cu593  N603    2.013   .     S
Cu593  O612    1.973   .     S
Cu593  O605    1.962   .     S
Cu593  O615    1.975   .     S
Cu594  O614    1.975   .     S
Cu594  N604    2.013   .     S
Cu594  O613    1.973   .     S
Cu594  O609    1.962   .     S
Cu594  O610    1.960   .     S
H601   O606    1.014   .     S
H602   O608    1.014   .     S
O607   C626    1.223   .     S
C617   C620    1.447   .     S
C617   O649    1.289   .     A
C617   O654    1.291   .     A
C618   C620    1.407   .     A
C618   Cl636   1.763   .     S
C619   C633    1.399   .     A
C619   C627    1.447   .     S
C619   C634    1.407   .     A
C620   C632    1.399   .     A
C621   N648    1.367   .     A
C621   H641    1.081   .     S
C622   N647    1.367   .     A
C622   H642    1.081   .     S
C622   C1020   1.416   .     S
C623   H643    1.081   .     S
C623   N647    1.367   .     A
C623   C1017   1.416   .     S
C624   H644    1.081   .     S
C624   N648    1.367   .     A
C625   O650    1.398   .     S
C625   C542    1.493   1_655 S
C625   O572    1.223   1_655 S
C626   O652    1.398   .     S
C627   O655    1.291   .     A
C627   O653    1.289   .     A
C628   O656    1.283   .     A
C628   O658    1.292   .     A
C628   C630    1.441   .     S
C629   O657    1.283   .     A
C629   C631    1.441   .     S
C629   O659    1.292   .     A
C631   C538    1.493   1_655 S
C631   C542    1.363   1_655 S
C632   H639    1.083   .     S
C633   H640    1.083   .     S
C633   C750    1.385   .     S
C634   Cl635   1.763   .     S
C634   C764    1.385   .     S
Cu637  O655    1.960   .     S
Cu637  Cu638   2.678   .     S
Cu637  N647    2.013   .     S
Cu637  O656    1.973   .     S
Cu637  O649    1.962   .     S
Cu637  O659    1.975   .     S
Cu638  O658    1.975   .     S
Cu638  N648    2.013   .     S
Cu638  O657    1.973   .     S
Cu638  O653    1.962   .     S
Cu638  O654    1.960   .     S
H645   O650    1.014   .     S
H646   O652    1.014   .     S
O651   C538    1.223   1_655 S
C661   C664    1.447   .     S
C661   O693    1.289   .     A
C661   O698    1.291   .     A
C662   C664    1.407   .     A
C662   Cl680   1.763   .     S
C663   C677    1.399   .     A
C663   C671    1.447   .     S
C663   C678    1.407   .     A
C664   C676    1.399   .     A
C665   N692    1.367   .     A
C665   H685    1.081   .     S
C666   N691    1.367   .     A
C666   H686    1.081   .     S
C666   C1064   1.416   .     S
C667   H687    1.081   .     S
C667   N691    1.367   .     A
C667   C1061   1.416   .     S
C668   H688    1.081   .     S
C668   N692    1.367   .     A
C669   O694    1.398   .     S
C669   C718    1.493   .     S
C669   O748    1.223   .     S
C670   O696    1.398   .     S
C670   C763    1.493   1_455 S
C670   O783    1.223   1_455 S
C671   O699    1.291   .     A
C671   O697    1.289   .     A
C672   O700    1.283   .     A
C672   O702    1.292   .     A
C672   C674    1.441   .     S
C673   O701    1.283   .     A
C673   C675    1.441   .     S
C673   O703    1.292   .     A
C674   C757    1.493   1_455 S
C674   C763    1.363   1_455 S
C675   C714    1.493   .     S
C675   C718    1.363   .     S
C676   H683    1.083   .     S
C677   H684    1.083   .     S
C677   C398    1.385   1_565 S
C678   Cl679   1.763   .     S
C678   C412    1.385   1_565 S
Cu681  O699    1.960   .     S
Cu681  Cu682   2.678   .     S
Cu681  N691    2.013   .     S
Cu681  O700    1.973   .     S
Cu681  O693    1.962   .     S
Cu681  O703    1.975   .     S
Cu682  O702    1.975   .     S
Cu682  N692    2.013   .     S
Cu682  O701    1.973   .     S
Cu682  O697    1.962   .     S
Cu682  O698    1.960   .     S
H689   O694    1.014   .     S
H690   O696    1.014   .     S
O695   C714    1.223   .     S
O704   C757    1.223   1_455 S
C705   C708    1.447   .     S
C705   O737    1.289   .     A
C705   O742    1.291   .     A
C706   C708    1.407   .     A
C706   Cl724   1.763   .     S
C707   C721    1.399   .     A
C707   C715    1.447   .     S
C707   C722    1.407   .     A
C708   C720    1.399   .     A
C709   N736    1.367   .     A
C709   H729    1.081   .     S
C710   N735    1.367   .     A
C710   H730    1.081   .     S
C710   C1108   1.416   .     S
C711   H731    1.081   .     S
C711   N735    1.367   .     A
C711   C1105   1.416   .     S
C712   H732    1.081   .     S
C712   N736    1.367   .     A
C713   O738    1.398   .     S
C713   C762    1.493   .     S
C713   O792    1.223   .     S
C714   O740    1.398   .     S
C715   O743    1.291   .     A
C715   O741    1.289   .     A
C716   O744    1.283   .     A
C716   O746    1.292   .     A
C716   C718    1.441   .     S
C717   O745    1.283   .     A
C717   C719    1.441   .     S
C717   O747    1.292   .     A
C719   C758    1.493   .     S
C719   C762    1.363   .     S
C720   H727    1.083   .     S
C721   H728    1.083   .     S
C721   C442    1.385   1_565 S
C722   Cl723   1.763   .     S
C722   C456    1.385   1_565 S
Cu725  O743    1.960   .     S
Cu725  Cu726   2.678   .     S
Cu725  N735    2.013   .     S
Cu725  O744    1.973   .     S
Cu725  O737    1.962   .     S
Cu725  O747    1.975   .     S
Cu726  O746    1.975   .     S
Cu726  N736    2.013   .     S
Cu726  O745    1.973   .     S
Cu726  O741    1.962   .     S
Cu726  O742    1.960   .     S
H733   O738    1.014   .     S
H734   O740    1.014   .     S
O739   C758    1.223   .     S
C749   C752    1.447   .     S
C749   O781    1.289   .     A
C749   O786    1.291   .     A
C750   C752    1.407   .     A
C750   Cl768   1.763   .     S
C751   C765    1.399   .     A
C751   C759    1.447   .     S
C751   C766    1.407   .     A
C752   C764    1.399   .     A
C753   N780    1.367   .     A
C753   H773    1.081   .     S
C754   N779    1.367   .     A
C754   H774    1.081   .     S
C754   C1152   1.416   .     S
C755   H775    1.081   .     S
C755   N779    1.367   .     A
C755   C1149   1.416   .     S
C756   H776    1.081   .     S
C756   N780    1.367   .     A
C757   O782    1.398   .     S
C757   C674    1.493   1_655 S
C757   O704    1.223   1_655 S
C758   O784    1.398   .     S
C759   O787    1.291   .     A
C759   O785    1.289   .     A
C760   O788    1.283   .     A
C760   O790    1.292   .     A
C760   C762    1.441   .     S
C761   O789    1.283   .     A
C761   C763    1.441   .     S
C761   O791    1.292   .     A
C763   C670    1.493   1_655 S
C763   C674    1.363   1_655 S
C764   H771    1.083   .     S
C765   H772    1.083   .     S
C765   C486    1.385   1_565 S
C766   Cl767   1.763   .     S
C766   C500    1.385   1_565 S
Cu769  O787    1.960   .     S
Cu769  Cu770   2.678   .     S
Cu769  N779    2.013   .     S
Cu769  O788    1.973   .     S
Cu769  O781    1.962   .     S
Cu769  O791    1.975   .     S
Cu770  O790    1.975   .     S
Cu770  N780    2.013   .     S
Cu770  O789    1.973   .     S
Cu770  O785    1.962   .     S
Cu770  O786    1.960   .     S
H777   O782    1.014   .     S
H778   O784    1.014   .     S
O783   C670    1.223   1_655 S
C793   C796    1.447   .     S
C793   O825    1.289   .     A
C793   O830    1.291   .     A
C794   C796    1.407   .     A
C794   Cl812   1.763   .     S
C794   C1073   1.385   1_545 S
C795   C809    1.399   .     A
C795   C803    1.447   .     S
C795   C810    1.407   .     A
C796   C808    1.399   .     A
C797   N824    1.367   .     A
C797   H817    1.081   .     S
C798   N823    1.367   .     A
C798   H818    1.081   .     S
C798   C8      1.416   1_556 S
C799   H819    1.081   .     S
C799   N823    1.367   .     A
C799   C5      1.416   1_556 S
C800   H820    1.081   .     S
C800   N824    1.367   .     A
C801   O826    1.398   .     S
C801   C850    1.493   .     S
C801   O880    1.223   .     S
C802   O828    1.398   .     S
C802   C895    1.493   1_455 S
C802   O915    1.223   1_455 S
C803   O831    1.291   .     A
C803   O829    1.289   .     A
C804   O832    1.283   .     A
C804   O834    1.292   .     A
C804   C806    1.441   .     S
C805   O833    1.283   .     A
C805   C807    1.441   .     S
C805   O835    1.292   .     A
C806   C889    1.493   1_455 S
C806   C895    1.363   1_455 S
C807   C846    1.493   .     S
C807   C850    1.363   .     S
C808   H815    1.083   .     S
C808   C1074   1.385   1_545 S
C809   H816    1.083   .     S
C809   C926    1.385   .     S
C810   Cl811   1.763   .     S
C810   C940    1.385   .     S
Cu813  O831    1.960   .     S
Cu813  Cu814   2.678   .     S
Cu813  N823    2.013   .     S
Cu813  O832    1.973   .     S
Cu813  O825    1.962   .     S
Cu813  O835    1.975   .     S
Cu814  O834    1.975   .     S
Cu814  N824    2.013   .     S
Cu814  O833    1.973   .     S
Cu814  O829    1.962   .     S
Cu814  O830    1.960   .     S
H821   O826    1.014   .     S
H822   O828    1.014   .     S
O827   C846    1.223   .     S
O836   C889    1.223   1_455 S
C837   C840    1.447   .     S
C837   O869    1.289   .     A
C837   O874    1.291   .     A
C838   C840    1.407   .     A
C838   Cl856   1.763   .     S
C838   C1117   1.385   1_545 S
C839   C853    1.399   .     A
C839   C847    1.447   .     S
C839   C854    1.407   .     A
C840   C852    1.399   .     A
C841   N868    1.367   .     A
C841   H861    1.081   .     S
C842   N867    1.367   .     A
C842   H862    1.081   .     S
C842   C52     1.416   1_556 S
C843   H863    1.081   .     S
C843   N867    1.367   .     A
C843   C49     1.416   1_556 S
C844   H864    1.081   .     S
C844   N868    1.367   .     A
C845   O870    1.398   .     S
C845   C894    1.493   .     S
C845   O924    1.223   .     S
C846   O872    1.398   .     S
C847   O875    1.291   .     A
C847   O873    1.289   .     A
C848   O876    1.283   .     A
C848   O878    1.292   .     A
C848   C850    1.441   .     S
C849   O877    1.283   .     A
C849   C851    1.441   .     S
C849   O879    1.292   .     A
C851   C890    1.493   .     S
C851   C894    1.363   .     S
C852   H859    1.083   .     S
C852   C1118   1.385   1_545 S
C853   H860    1.083   .     S
C853   C970    1.385   .     S
C854   Cl855   1.763   .     S
C854   C984    1.385   .     S
Cu857  O875    1.960   .     S
Cu857  Cu858   2.678   .     S
Cu857  N867    2.013   .     S
Cu857  O876    1.973   .     S
Cu857  O869    1.962   .     S
Cu857  O879    1.975   .     S
Cu858  O878    1.975   .     S
Cu858  N868    2.013   .     S
Cu858  O877    1.973   .     S
Cu858  O873    1.962   .     S
Cu858  O874    1.960   .     S
H865   O870    1.014   .     S
H866   O872    1.014   .     S
O871   C890    1.223   .     S
C881   C884    1.447   .     S
C881   O913    1.289   .     A
C881   O918    1.291   .     A
C882   C884    1.407   .     A
C882   Cl900   1.763   .     S
C882   C1161   1.385   1_545 S
C883   C897    1.399   .     A
C883   C891    1.447   .     S
C883   C898    1.407   .     A
C884   C896    1.399   .     A
C885   N912    1.367   .     A
C885   H905    1.081   .     S
C886   N911    1.367   .     A
C886   H906    1.081   .     S
C886   C96     1.416   1_556 S
C887   H907    1.081   .     S
C887   N911    1.367   .     A
C887   C93     1.416   1_556 S
C888   H908    1.081   .     S
C888   N912    1.367   .     A
C889   O914    1.398   .     S
C889   C806    1.493   1_655 S
C889   O836    1.223   1_655 S
C890   O916    1.398   .     S
C891   O919    1.291   .     A
C891   O917    1.289   .     A
C892   O920    1.283   .     A
C892   O922    1.292   .     A
C892   C894    1.441   .     S
C893   O921    1.283   .     A
C893   C895    1.441   .     S
C893   O923    1.292   .     A
C895   C802    1.493   1_655 S
C895   C806    1.363   1_655 S
C896   H903    1.083   .     S
C896   C1162   1.385   1_545 S
C897   H904    1.083   .     S
C897   C1014   1.385   .     S
C898   Cl899   1.763   .     S
C898   C1028   1.385   .     S
Cu901  O919    1.960   .     S
Cu901  Cu902   2.678   .     S
Cu901  N911    2.013   .     S
Cu901  O920    1.973   .     S
Cu901  O913    1.962   .     S
Cu901  O923    1.975   .     S
Cu902  O922    1.975   .     S
Cu902  N912    2.013   .     S
Cu902  O921    1.973   .     S
Cu902  O917    1.962   .     S
Cu902  O918    1.960   .     S
H909   O914    1.014   .     S
H910   O916    1.014   .     S
O915   C802    1.223   1_655 S
C925   C928    1.447   .     S
C925   O957    1.289   .     A
C925   O962    1.291   .     A
C926   C928    1.407   .     A
C926   Cl944   1.763   .     S
C927   C941    1.399   .     A
C927   C935    1.447   .     S
C927   C942    1.407   .     A
C928   C940    1.399   .     A
C929   N956    1.367   .     A
C929   H949    1.081   .     S
C930   N955    1.367   .     A
C930   H950    1.081   .     S
C930   C140    1.416   1_556 S
C931   H951    1.081   .     S
C931   N955    1.367   .     A
C931   C137    1.416   1_556 S
C932   H952    1.081   .     S
C932   N956    1.367   .     A
C933   O958    1.398   .     S
C933   C982    1.493   .     S
C933   O1012   1.223   .     S
C934   O960    1.398   .     S
C934   C1027   1.493   1_455 S
C934   O1047   1.223   1_455 S
C935   O963    1.291   .     A
C935   O961    1.289   .     A
C936   O964    1.283   .     A
C936   O966    1.292   .     A
C936   C938    1.441   .     S
C937   O965    1.283   .     A
C937   C939    1.441   .     S
C937   O967    1.292   .     A
C938   C1021   1.493   1_455 S
C938   C1027   1.363   1_455 S
C939   C978    1.493   .     S
C939   C982    1.363   .     S
C940   H947    1.083   .     S
C941   H948    1.083   .     S
C941   C1058   1.385   .     S
C942   Cl943   1.763   .     S
C942   C1072   1.385   .     S
Cu945  O963    1.960   .     S
Cu945  Cu946   2.678   .     S
Cu945  N955    2.013   .     S
Cu945  O964    1.973   .     S
Cu945  O957    1.962   .     S
Cu945  O967    1.975   .     S
Cu946  O966    1.975   .     S
Cu946  N956    2.013   .     S
Cu946  O965    1.973   .     S
Cu946  O961    1.962   .     S
Cu946  O962    1.960   .     S
H953   O958    1.014   .     S
H954   O960    1.014   .     S
O959   C978    1.223   .     S
O968   C1021   1.223   1_455 S
C969   C972    1.447   .     S
C969   O1001   1.289   .     A
C969   O1006   1.291   .     A
C970   C972    1.407   .     A
C970   Cl988   1.763   .     S
C971   C985    1.399   .     A
C971   C979    1.447   .     S
C971   C986    1.407   .     A
C972   C984    1.399   .     A
C973   N1000   1.367   .     A
C973   H993    1.081   .     S
C974   N999    1.367   .     A
C974   H994    1.081   .     S
C974   C184    1.416   1_556 S
C975   H995    1.081   .     S
C975   N999    1.367   .     A
C975   C181    1.416   1_556 S
C976   H996    1.081   .     S
C976   N1000   1.367   .     A
C977   O1002   1.398   .     S
C977   C1026   1.493   .     S
C977   O1056   1.223   .     S
C978   O1004   1.398   .     S
C979   O1007   1.291   .     A
C979   O1005   1.289   .     A
C980   O1008   1.283   .     A
C980   O1010   1.292   .     A
C980   C982    1.441   .     S
C981   O1009   1.283   .     A
C981   C983    1.441   .     S
C981   O1011   1.292   .     A
C983   C1022   1.493   .     S
C983   C1026   1.363   .     S
C984   H991    1.083   .     S
C985   H992    1.083   .     S
C985   C1102   1.385   .     S
C986   Cl987   1.763   .     S
C986   C1116   1.385   .     S
Cu989  O1007   1.960   .     S
Cu989  Cu990   2.678   .     S
Cu989  N999    2.013   .     S
Cu989  O1008   1.973   .     S
Cu989  O1001   1.962   .     S
Cu989  O1011   1.975   .     S
Cu990  O1010   1.975   .     S
Cu990  N1000   2.013   .     S
Cu990  O1009   1.973   .     S
Cu990  O1005   1.962   .     S
Cu990  O1006   1.960   .     S
H997   O1002   1.014   .     S
H998   O1004   1.014   .     S
O1003  C1022   1.223   .     S
C1013  C1016   1.447   .     S
C1013  O1045   1.289   .     A
C1013  O1050   1.291   .     A
C1014  C1016   1.407   .     A
C1014  Cl1032  1.763   .     S
C1015  C1029   1.399   .     A
C1015  C1023   1.447   .     S
C1015  C1030   1.407   .     A
C1016  C1028   1.399   .     A
C1017  N1044   1.367   .     A
C1017  H1037   1.081   .     S
C1018  N1043   1.367   .     A
C1018  H1038   1.081   .     S
C1018  C228    1.416   1_556 S
C1019  H1039   1.081   .     S
C1019  N1043   1.367   .     A
C1019  C225    1.416   1_556 S
C1020  H1040   1.081   .     S
C1020  N1044   1.367   .     A
C1021  O1046   1.398   .     S
C1021  C938    1.493   1_655 S
C1021  O968    1.223   1_655 S
C1022  O1048   1.398   .     S
C1023  O1051   1.291   .     A
C1023  O1049   1.289   .     A
C1024  O1052   1.283   .     A
C1024  O1054   1.292   .     A
C1024  C1026   1.441   .     S
C1025  O1053   1.283   .     A
C1025  C1027   1.441   .     S
C1025  O1055   1.292   .     A
C1027  C934    1.493   1_655 S
C1027  C938    1.363   1_655 S
C1028  H1035   1.083   .     S
C1029  H1036   1.083   .     S
C1029  C1146   1.385   .     S
C1030  Cl1031  1.763   .     S
C1030  C1160   1.385   .     S
Cu1033 O1051   1.960   .     S
Cu1033 Cu1034  2.678   .     S
Cu1033 N1043   2.013   .     S
Cu1033 O1052   1.973   .     S
Cu1033 O1045   1.962   .     S
Cu1033 O1055   1.975   .     S
Cu1034 O1054   1.975   .     S
Cu1034 N1044   2.013   .     S
Cu1034 O1053   1.973   .     S
Cu1034 O1049   1.962   .     S
Cu1034 O1050   1.960   .     S
H1041  O1046   1.014   .     S
H1042  O1048   1.014   .     S
O1047  C934    1.223   1_655 S
C1057  C1060   1.447   .     S
C1057  O1089   1.289   .     A
C1057  O1094   1.291   .     A
C1058  C1060   1.407   .     A
C1058  Cl1076  1.763   .     S
C1059  C1073   1.399   .     A
C1059  C1067   1.447   .     S
C1059  C1074   1.407   .     A
C1060  C1072   1.399   .     A
C1061  N1088   1.367   .     A
C1061  H1081   1.081   .     S
C1062  N1087   1.367   .     A
C1062  H1082   1.081   .     S
C1062  C272    1.416   1_556 S
C1063  H1083   1.081   .     S
C1063  N1087   1.367   .     A
C1063  C269    1.416   1_556 S
C1064  H1084   1.081   .     S
C1064  N1088   1.367   .     A
C1065  O1090   1.398   .     S
C1065  C1114   1.493   .     S
C1065  O1144   1.223   .     S
C1066  O1092   1.398   .     S
C1066  C1159   1.493   1_455 S
C1066  O1179   1.223   1_455 S
C1067  O1095   1.291   .     A
C1067  O1093   1.289   .     A
C1068  O1096   1.283   .     A
C1068  O1098   1.292   .     A
C1068  C1070   1.441   .     S
C1069  O1097   1.283   .     A
C1069  C1071   1.441   .     S
C1069  O1099   1.292   .     A
C1070  C1153   1.493   1_455 S
C1070  C1159   1.363   1_455 S
C1071  C1110   1.493   .     S
C1071  C1114   1.363   .     S
C1072  H1079   1.083   .     S
C1073  H1080   1.083   .     S
C1073  C794    1.385   1_565 S
C1074  Cl1075  1.763   .     S
C1074  C808    1.385   1_565 S
Cu1077 O1095   1.960   .     S
Cu1077 Cu1078  2.678   .     S
Cu1077 N1087   2.013   .     S
Cu1077 O1096   1.973   .     S
Cu1077 O1089   1.962   .     S
Cu1077 O1099   1.975   .     S
Cu1078 O1098   1.975   .     S
Cu1078 N1088   2.013   .     S
Cu1078 O1097   1.973   .     S
Cu1078 O1093   1.962   .     S
Cu1078 O1094   1.960   .     S
H1085  O1090   1.014   .     S
H1086  O1092   1.014   .     S
O1091  C1110   1.223   .     S
O1100  C1153   1.223   1_455 S
C1101  C1104   1.447   .     S
C1101  O1133   1.289   .     A
C1101  O1138   1.291   .     A
C1102  C1104   1.407   .     A
C1102  Cl1120  1.763   .     S
C1103  C1117   1.399   .     A
C1103  C1111   1.447   .     S
C1103  C1118   1.407   .     A
C1104  C1116   1.399   .     A
C1105  N1132   1.367   .     A
C1105  H1125   1.081   .     S
C1106  N1131   1.367   .     A
C1106  H1126   1.081   .     S
C1106  C316    1.416   1_556 S
C1107  H1127   1.081   .     S
C1107  N1131   1.367   .     A
C1107  C313    1.416   1_556 S
C1108  H1128   1.081   .     S
C1108  N1132   1.367   .     A
C1109  O1134   1.398   .     S
C1109  C1158   1.493   .     S
C1109  O1188   1.223   .     S
C1110  O1136   1.398   .     S
C1111  O1139   1.291   .     A
C1111  O1137   1.289   .     A
C1112  O1140   1.283   .     A
C1112  O1142   1.292   .     A
C1112  C1114   1.441   .     S
C1113  O1141   1.283   .     A
C1113  C1115   1.441   .     S
C1113  O1143   1.292   .     A
C1115  C1154   1.493   .     S
C1115  C1158   1.363   .     S
C1116  H1123   1.083   .     S
C1117  H1124   1.083   .     S
C1117  C838    1.385   1_565 S
C1118  Cl1119  1.763   .     S
C1118  C852    1.385   1_565 S
Cu1121 O1139   1.960   .     S
Cu1121 Cu1122  2.678   .     S
Cu1121 N1131   2.013   .     S
Cu1121 O1140   1.973   .     S
Cu1121 O1133   1.962   .     S
Cu1121 O1143   1.975   .     S
Cu1122 O1142   1.975   .     S
Cu1122 N1132   2.013   .     S
Cu1122 O1141   1.973   .     S
Cu1122 O1137   1.962   .     S
Cu1122 O1138   1.960   .     S
H1129  O1134   1.014   .     S
H1130  O1136   1.014   .     S
O1135  C1154   1.223   .     S
C1145  C1148   1.447   .     S
C1145  O1177   1.289   .     A
C1145  O1182   1.291   .     A
C1146  C1148   1.407   .     A
C1146  Cl1164  1.763   .     S
C1147  C1161   1.399   .     A
C1147  C1155   1.447   .     S
C1147  C1162   1.407   .     A
C1148  C1160   1.399   .     A
C1149  N1176   1.367   .     A
C1149  H1169   1.081   .     S
C1150  N1175   1.367   .     A
C1150  H1170   1.081   .     S
C1150  C360    1.416   1_556 S
C1151  H1171   1.081   .     S
C1151  N1175   1.367   .     A
C1151  C357    1.416   1_556 S
C1152  H1172   1.081   .     S
C1152  N1176   1.367   .     A
C1153  O1178   1.398   .     S
C1153  C1070   1.493   1_655 S
C1153  O1100   1.223   1_655 S
C1154  O1180   1.398   .     S
C1155  O1183   1.291   .     A
C1155  O1181   1.289   .     A
C1156  O1184   1.283   .     A
C1156  O1186   1.292   .     A
C1156  C1158   1.441   .     S
C1157  O1185   1.283   .     A
C1157  C1159   1.441   .     S
C1157  O1187   1.292   .     A
C1159  C1066   1.493   1_655 S
C1159  C1070   1.363   1_655 S
C1160  H1167   1.083   .     S
C1161  H1168   1.083   .     S
C1161  C882    1.385   1_565 S
C1162  Cl1163  1.763   .     S
C1162  C896    1.385   1_565 S
Cu1165 O1183   1.960   .     S
Cu1165 Cu1166  2.678   .     S
Cu1165 N1175   2.013   .     S
Cu1165 O1184   1.973   .     S
Cu1165 O1177   1.962   .     S
Cu1165 O1187   1.975   .     S
Cu1166 O1186   1.975   .     S
Cu1166 N1176   2.013   .     S
Cu1166 O1185   1.973   .     S
Cu1166 O1181   1.962   .     S
Cu1166 O1182   1.960   .     S
H1173  O1178   1.014   .     S
H1174  O1180   1.014   .     S
O1179  C1066   1.223   1_655 S
