data_str_m3_o1_o16_pcu_sym.171
_audit_creation_date              2020-01-03
_audit_creation_method            'Materials Studio'
_symmetry_space_group_name_H-M    'P1'
_symmetry_Int_Tables_number       1
_symmetry_cell_setting            triclinic
loop_
_symmetry_equiv_pos_as_xyz
  x,y,z
_cell_length_a                    29.6885
_cell_length_b                    32.1763
_cell_length_c                    26.4663
_cell_angle_alpha                 91.0499
_cell_angle_beta                  72.2736
_cell_angle_gamma                 89.9436
loop_
_atom_site_label
_atom_site_type_symbol
_atom_site_fract_x
_atom_site_fract_y
_atom_site_fract_z
_atom_site_U_iso_or_equiv
_atom_site_adp_type
_atom_site_occupancy
C1     C     0.16668   0.24666   0.25000   0.00000  Uiso   1.00
C2     C     0.15016   0.19467   0.48848   0.00000  Uiso   1.00
C3     C     0.16385   0.19283   0.43284   0.00000  Uiso   1.00
C4     C     0.18483   0.18476   0.01349   0.00000  Uiso   1.00
C5     C     0.23181   0.17430   0.48223   0.00000  Uiso   1.00
C6     C     0.24599   0.18364   0.42873   0.00000  Uiso   1.00
C7     C     0.21242   0.19587   0.40559   0.00000  Uiso   1.00
C8     C     0.17369   0.18252   0.06814   0.00000  Uiso   1.00
C9     C     0.25099   0.15360   0.06051   0.00000  Uiso   1.00
C10    C     0.12881   0.18814   0.40665   0.00000  Uiso   1.00
C11    C     0.20686   0.31205   0.25327   0.00000  Uiso   1.00
C12    C     0.14153   0.17278   0.35091   0.00000  Uiso   1.00
C13    C     0.20685   0.02130   0.25330   0.00000  Uiso   1.00
C14    C     0.16659   0.04249   0.25050   0.00000  Uiso   1.00
C15    C     0.12633   0.02125   0.24784   0.00000  Uiso   1.00
C16    C     0.12651   0.31204   0.24725   0.00000  Uiso   1.00
C17    C     0.16670   0.29084   0.25014   0.00000  Uiso   1.00
C18    C     0.31699   0.13771   0.22112   0.00000  Uiso   1.00
C19    C     0.03171   0.13830   0.21980   0.00000  Uiso   1.00
C20    C     0.01565   0.19574   0.27890   0.00000  Uiso   1.00
C21    C     0.30206   0.19673   0.27664   0.00000  Uiso   1.00
C22    C     0.16663   0.08668   0.25018   0.00000  Uiso   1.00
C23    C     0.19226   0.16627   0.14863   0.00000  Uiso   1.00
C24    C     0.26359   0.15616   0.00562   0.00000  Uiso   1.00
C25    C     0.20660   0.16787   0.09151   0.00000  Uiso   1.00
C26    C     0.08185   0.19844   0.43466   0.00000  Uiso   1.00
C27    C     0.06960   0.20959   0.48836   0.00000  Uiso   1.00
C28    C     0.10261   0.20542   0.01586   0.00000  Uiso   1.00
H29    H     0.27542   0.13999   0.07882   0.00000  Uiso   1.00
H30    H     0.23820   0.03745   0.25560   0.00000  Uiso   1.00
H31    H     0.09481   0.03729   0.24605   0.00000  Uiso   1.00
H32    H     0.09532   0.29597   0.24444   0.00000  Uiso   1.00
H33    H     0.30502   0.11475   0.19778   0.00000  Uiso   1.00
H34    H     0.27909   0.22210   0.29566   0.00000  Uiso   1.00
H35    H     0.28276   0.18227   0.40487   0.00000  Uiso   1.00
H36    H     0.13931   0.19188   0.09348   0.00000  Uiso   1.00
H37    H     0.05498   0.19866   0.41481   0.00000  Uiso   1.00
H38    H     0.09026   0.21197   0.05791   0.00000  Uiso   1.00
H39    H     0.22468   0.20808   0.36657   0.00000  Uiso   1.00
H40    H     0.23818   0.29592   0.25567   0.00000  Uiso   1.00
N41    N     0.04760   0.16668   0.25001   0.00000  Uiso   1.00
N42    N     0.28573   0.16665   0.25000   0.00000  Uiso   1.00
O43    O     0.12846   0.22775   0.25000   0.00000  Uiso   1.00
O44    O     0.20490   0.22774   0.25000   0.00000  Uiso   1.00
O45    O     0.10947   0.16666   0.32681   0.00000  Uiso   1.00
O46    O     0.18591   0.16665   0.32681   0.00000  Uiso   1.00
O47    O     0.12843   0.10559   0.24999   0.00000  Uiso   1.00
O48    O     0.20488   0.10558   0.24999   0.00000  Uiso   1.00
O49    O     0.14742   0.16668   0.17319   0.00000  Uiso   1.00
O50    O     0.22387   0.16667   0.17319   0.00000  Uiso   1.00
Zn51   Zn    0.11562   0.16667   0.25000   0.00000  Uiso   1.00
Zn52   Zn    0.21771   0.16666   0.25000   0.00000  Uiso   1.00
Br53   Br    0.07345   0.09971   0.17227   0.00000  Uiso   1.00
Br54   Br    0.03191   0.23598   0.32421   0.00000  Uiso   1.00
Br55   Br    0.32170   0.13003   0.46441   0.00000  Uiso   1.00
Br56   Br    0.00774   0.23049   0.02479   0.00000  Uiso   1.00
C57    C     0.50002   0.24666   0.25000   0.00000  Uiso   1.00
C58    C     0.48349   0.19467   0.48848   0.00000  Uiso   1.00
C59    C     0.49719   0.19283   0.43284   0.00000  Uiso   1.00
C60    C     0.51816   0.18476   0.01349   0.00000  Uiso   1.00
C61    C     0.56514   0.17430   0.48223   0.00000  Uiso   1.00
C62    C     0.57933   0.18364   0.42873   0.00000  Uiso   1.00
C63    C     0.54575   0.19587   0.40559   0.00000  Uiso   1.00
C64    C     0.50702   0.18252   0.06814   0.00000  Uiso   1.00
C65    C     0.58432   0.15360   0.06051   0.00000  Uiso   1.00
C66    C     0.46214   0.18814   0.40665   0.00000  Uiso   1.00
C67    C     0.54019   0.31205   0.25327   0.00000  Uiso   1.00
C68    C     0.47486   0.17278   0.35091   0.00000  Uiso   1.00
C69    C     0.54019   0.02130   0.25330   0.00000  Uiso   1.00
C70    C     0.49993   0.04249   0.25050   0.00000  Uiso   1.00
C71    C     0.45966   0.02125   0.24784   0.00000  Uiso   1.00
C72    C     0.45984   0.31204   0.24725   0.00000  Uiso   1.00
C73    C     0.50003   0.29084   0.25014   0.00000  Uiso   1.00
C74    C     0.65033   0.13771   0.22112   0.00000  Uiso   1.00
C75    C     0.36505   0.13830   0.21980   0.00000  Uiso   1.00
C76    C     0.34898   0.19574   0.27890   0.00000  Uiso   1.00
C77    C     0.63540   0.19673   0.27664   0.00000  Uiso   1.00
C78    C     0.49996   0.08668   0.25018   0.00000  Uiso   1.00
C79    C     0.52560   0.16627   0.14863   0.00000  Uiso   1.00
C80    C     0.59693   0.15616   0.00562   0.00000  Uiso   1.00
C81    C     0.53993   0.16787   0.09151   0.00000  Uiso   1.00
C82    C     0.41518   0.19844   0.43466   0.00000  Uiso   1.00
C83    C     0.40293   0.20959   0.48836   0.00000  Uiso   1.00
C84    C     0.43595   0.20542   0.01586   0.00000  Uiso   1.00
H85    H     0.60876   0.13999   0.07882   0.00000  Uiso   1.00
H86    H     0.57153   0.03745   0.25560   0.00000  Uiso   1.00
H87    H     0.42814   0.03729   0.24605   0.00000  Uiso   1.00
H88    H     0.42865   0.29597   0.24444   0.00000  Uiso   1.00
H89    H     0.63836   0.11475   0.19778   0.00000  Uiso   1.00
H90    H     0.61242   0.22210   0.29566   0.00000  Uiso   1.00
H91    H     0.61609   0.18227   0.40487   0.00000  Uiso   1.00
H92    H     0.47265   0.19188   0.09348   0.00000  Uiso   1.00
H93    H     0.38831   0.19866   0.41481   0.00000  Uiso   1.00
H94    H     0.42360   0.21197   0.05791   0.00000  Uiso   1.00
H95    H     0.55802   0.20808   0.36657   0.00000  Uiso   1.00
H96    H     0.57151   0.29592   0.25567   0.00000  Uiso   1.00
N97    N     0.38093   0.16668   0.25001   0.00000  Uiso   1.00
N98    N     0.61906   0.16665   0.25000   0.00000  Uiso   1.00
O99    O     0.46179   0.22775   0.25000   0.00000  Uiso   1.00
O100   O     0.53823   0.22774   0.25000   0.00000  Uiso   1.00
O101   O     0.44280   0.16666   0.32681   0.00000  Uiso   1.00
O102   O     0.51924   0.16665   0.32681   0.00000  Uiso   1.00
O103   O     0.46177   0.10559   0.24999   0.00000  Uiso   1.00
O104   O     0.53821   0.10558   0.24999   0.00000  Uiso   1.00
O105   O     0.48076   0.16668   0.17319   0.00000  Uiso   1.00
O106   O     0.55720   0.16667   0.17319   0.00000  Uiso   1.00
Zn107  Zn    0.44896   0.16667   0.25000   0.00000  Uiso   1.00
Zn108  Zn    0.55104   0.16666   0.25000   0.00000  Uiso   1.00
Br109  Br    0.40678   0.09971   0.17227   0.00000  Uiso   1.00
Br110  Br    0.36525   0.23598   0.32421   0.00000  Uiso   1.00
Br111  Br    0.65503   0.13003   0.46441   0.00000  Uiso   1.00
Br112  Br    0.34107   0.23049   0.02479   0.00000  Uiso   1.00
C113   C     0.83335   0.24666   0.25000   0.00000  Uiso   1.00
C114   C     0.81682   0.19467   0.48848   0.00000  Uiso   1.00
C115   C     0.83052   0.19283   0.43284   0.00000  Uiso   1.00
C116   C     0.85149   0.18476   0.01349   0.00000  Uiso   1.00
C117   C     0.89848   0.17430   0.48223   0.00000  Uiso   1.00
C118   C     0.91266   0.18364   0.42873   0.00000  Uiso   1.00
C119   C     0.87909   0.19587   0.40559   0.00000  Uiso   1.00
C120   C     0.84035   0.18252   0.06814   0.00000  Uiso   1.00
C121   C     0.91765   0.15360   0.06051   0.00000  Uiso   1.00
C122   C     0.79548   0.18814   0.40665   0.00000  Uiso   1.00
C123   C     0.87352   0.31205   0.25327   0.00000  Uiso   1.00
C124   C     0.80819   0.17278   0.35091   0.00000  Uiso   1.00
C125   C     0.87352   0.02130   0.25330   0.00000  Uiso   1.00
C126   C     0.83326   0.04249   0.25050   0.00000  Uiso   1.00
C127   C     0.79300   0.02125   0.24784   0.00000  Uiso   1.00
C128   C     0.79318   0.31204   0.24725   0.00000  Uiso   1.00
C129   C     0.83336   0.29084   0.25014   0.00000  Uiso   1.00
C130   C     0.98366   0.13771   0.22112   0.00000  Uiso   1.00
C131   C     0.69838   0.13830   0.21980   0.00000  Uiso   1.00
C132   C     0.68231   0.19574   0.27890   0.00000  Uiso   1.00
C133   C     0.96873   0.19673   0.27664   0.00000  Uiso   1.00
C134   C     0.83330   0.08668   0.25018   0.00000  Uiso   1.00
C135   C     0.85893   0.16627   0.14863   0.00000  Uiso   1.00
C136   C     0.93026   0.15616   0.00562   0.00000  Uiso   1.00
C137   C     0.87327   0.16787   0.09151   0.00000  Uiso   1.00
C138   C     0.74852   0.19844   0.43466   0.00000  Uiso   1.00
C139   C     0.73627   0.20959   0.48836   0.00000  Uiso   1.00
C140   C     0.76928   0.20542   0.01586   0.00000  Uiso   1.00
H141   H     0.94209   0.13999   0.07882   0.00000  Uiso   1.00
H142   H     0.90487   0.03745   0.25560   0.00000  Uiso   1.00
H143   H     0.76147   0.03729   0.24605   0.00000  Uiso   1.00
H144   H     0.76198   0.29597   0.24444   0.00000  Uiso   1.00
H145   H     0.97169   0.11475   0.19778   0.00000  Uiso   1.00
H146   H     0.94576   0.22210   0.29566   0.00000  Uiso   1.00
H147   H     0.94943   0.18227   0.40487   0.00000  Uiso   1.00
H148   H     0.80598   0.19188   0.09348   0.00000  Uiso   1.00
H149   H     0.72165   0.19866   0.41481   0.00000  Uiso   1.00
H150   H     0.75693   0.21197   0.05791   0.00000  Uiso   1.00
H151   H     0.89135   0.20808   0.36657   0.00000  Uiso   1.00
H152   H     0.90484   0.29592   0.25567   0.00000  Uiso   1.00
N153   N     0.71426   0.16668   0.25001   0.00000  Uiso   1.00
N154   N     0.95239   0.16665   0.25000   0.00000  Uiso   1.00
O155   O     0.79512   0.22775   0.25000   0.00000  Uiso   1.00
O156   O     0.87157   0.22774   0.25000   0.00000  Uiso   1.00
O157   O     0.77613   0.16666   0.32681   0.00000  Uiso   1.00
O158   O     0.85258   0.16665   0.32681   0.00000  Uiso   1.00
O159   O     0.79510   0.10559   0.24999   0.00000  Uiso   1.00
O160   O     0.87154   0.10558   0.24999   0.00000  Uiso   1.00
O161   O     0.81409   0.16668   0.17319   0.00000  Uiso   1.00
O162   O     0.89053   0.16667   0.17319   0.00000  Uiso   1.00
Zn163  Zn    0.78229   0.16667   0.25000   0.00000  Uiso   1.00
Zn164  Zn    0.88438   0.16666   0.25000   0.00000  Uiso   1.00
Br165  Br    0.74012   0.09971   0.17227   0.00000  Uiso   1.00
Br166  Br    0.69858   0.23598   0.32421   0.00000  Uiso   1.00
Br167  Br    0.98836   0.13003   0.46441   0.00000  Uiso   1.00
Br168  Br    0.67441   0.23049   0.02479   0.00000  Uiso   1.00
C169   C     0.16668   0.57999   0.25000   0.00000  Uiso   1.00
C170   C     0.15016   0.52800   0.48848   0.00000  Uiso   1.00
C171   C     0.16385   0.52616   0.43284   0.00000  Uiso   1.00
C172   C     0.18483   0.51810   0.01349   0.00000  Uiso   1.00
C173   C     0.23181   0.50763   0.48223   0.00000  Uiso   1.00
C174   C     0.24599   0.51697   0.42873   0.00000  Uiso   1.00
C175   C     0.21242   0.52920   0.40559   0.00000  Uiso   1.00
C176   C     0.17369   0.51585   0.06814   0.00000  Uiso   1.00
C177   C     0.25099   0.48693   0.06051   0.00000  Uiso   1.00
C178   C     0.12881   0.52147   0.40665   0.00000  Uiso   1.00
C179   C     0.20686   0.64538   0.25327   0.00000  Uiso   1.00
C180   C     0.14153   0.50612   0.35091   0.00000  Uiso   1.00
C181   C     0.20685   0.35463   0.25330   0.00000  Uiso   1.00
C182   C     0.16659   0.37582   0.25050   0.00000  Uiso   1.00
C183   C     0.12633   0.35458   0.24784   0.00000  Uiso   1.00
C184   C     0.12651   0.64538   0.24725   0.00000  Uiso   1.00
C185   C     0.16670   0.62417   0.25014   0.00000  Uiso   1.00
C186   C     0.31699   0.47104   0.22112   0.00000  Uiso   1.00
C187   C     0.03171   0.47164   0.21980   0.00000  Uiso   1.00
C188   C     0.01565   0.52908   0.27890   0.00000  Uiso   1.00
C189   C     0.30206   0.53007   0.27664   0.00000  Uiso   1.00
C190   C     0.16663   0.42001   0.25018   0.00000  Uiso   1.00
C191   C     0.19226   0.49960   0.14863   0.00000  Uiso   1.00
C192   C     0.26359   0.48950   0.00562   0.00000  Uiso   1.00
C193   C     0.20660   0.50120   0.09151   0.00000  Uiso   1.00
C194   C     0.08185   0.53177   0.43466   0.00000  Uiso   1.00
C195   C     0.06960   0.54292   0.48836   0.00000  Uiso   1.00
C196   C     0.10261   0.53876   0.01586   0.00000  Uiso   1.00
H197   H     0.27542   0.47332   0.07882   0.00000  Uiso   1.00
H198   H     0.23820   0.37078   0.25560   0.00000  Uiso   1.00
H199   H     0.09481   0.37062   0.24605   0.00000  Uiso   1.00
H200   H     0.09532   0.62930   0.24444   0.00000  Uiso   1.00
H201   H     0.30502   0.44808   0.19778   0.00000  Uiso   1.00
H202   H     0.27909   0.55544   0.29566   0.00000  Uiso   1.00
H203   H     0.28276   0.51561   0.40487   0.00000  Uiso   1.00
H204   H     0.13931   0.52521   0.09348   0.00000  Uiso   1.00
H205   H     0.05498   0.53200   0.41481   0.00000  Uiso   1.00
H206   H     0.09026   0.54530   0.05791   0.00000  Uiso   1.00
H207   H     0.22468   0.54141   0.36657   0.00000  Uiso   1.00
H208   H     0.23818   0.62925   0.25567   0.00000  Uiso   1.00
N209   N     0.04760   0.50001   0.25001   0.00000  Uiso   1.00
N210   N     0.28573   0.49998   0.25000   0.00000  Uiso   1.00
O211   O     0.12846   0.56108   0.25000   0.00000  Uiso   1.00
O212   O     0.20490   0.56107   0.25000   0.00000  Uiso   1.00
O213   O     0.10947   0.50000   0.32681   0.00000  Uiso   1.00
O214   O     0.18591   0.49999   0.32681   0.00000  Uiso   1.00
O215   O     0.12843   0.43893   0.24999   0.00000  Uiso   1.00
O216   O     0.20488   0.43892   0.24999   0.00000  Uiso   1.00
O217   O     0.14742   0.50001   0.17319   0.00000  Uiso   1.00
O218   O     0.22387   0.50000   0.17319   0.00000  Uiso   1.00
Zn219  Zn    0.11562   0.50001   0.25000   0.00000  Uiso   1.00
Zn220  Zn    0.21771   0.49999   0.25000   0.00000  Uiso   1.00
Br221  Br    0.07345   0.43304   0.17227   0.00000  Uiso   1.00
Br222  Br    0.03191   0.56931   0.32421   0.00000  Uiso   1.00
Br223  Br    0.32170   0.46336   0.46441   0.00000  Uiso   1.00
Br224  Br    0.00774   0.56382   0.02479   0.00000  Uiso   1.00
C225   C     0.50002   0.57999   0.25000   0.00000  Uiso   1.00
C226   C     0.48349   0.52800   0.48848   0.00000  Uiso   1.00
C227   C     0.49719   0.52616   0.43284   0.00000  Uiso   1.00
C228   C     0.51816   0.51810   0.01349   0.00000  Uiso   1.00
C229   C     0.56514   0.50763   0.48223   0.00000  Uiso   1.00
C230   C     0.57933   0.51697   0.42873   0.00000  Uiso   1.00
C231   C     0.54575   0.52920   0.40559   0.00000  Uiso   1.00
C232   C     0.50702   0.51585   0.06814   0.00000  Uiso   1.00
C233   C     0.58432   0.48693   0.06051   0.00000  Uiso   1.00
C234   C     0.46214   0.52147   0.40665   0.00000  Uiso   1.00
C235   C     0.54019   0.64538   0.25327   0.00000  Uiso   1.00
C236   C     0.47486   0.50612   0.35091   0.00000  Uiso   1.00
C237   C     0.54019   0.35463   0.25330   0.00000  Uiso   1.00
C238   C     0.49993   0.37582   0.25050   0.00000  Uiso   1.00
C239   C     0.45966   0.35458   0.24784   0.00000  Uiso   1.00
C240   C     0.45984   0.64538   0.24725   0.00000  Uiso   1.00
C241   C     0.50003   0.62417   0.25014   0.00000  Uiso   1.00
C242   C     0.65033   0.47104   0.22112   0.00000  Uiso   1.00
C243   C     0.36505   0.47164   0.21980   0.00000  Uiso   1.00
C244   C     0.34898   0.52908   0.27890   0.00000  Uiso   1.00
C245   C     0.63540   0.53007   0.27664   0.00000  Uiso   1.00
C246   C     0.49996   0.42001   0.25018   0.00000  Uiso   1.00
C247   C     0.52560   0.49960   0.14863   0.00000  Uiso   1.00
C248   C     0.59693   0.48950   0.00562   0.00000  Uiso   1.00
C249   C     0.53993   0.50120   0.09151   0.00000  Uiso   1.00
C250   C     0.41518   0.53177   0.43466   0.00000  Uiso   1.00
C251   C     0.40293   0.54292   0.48836   0.00000  Uiso   1.00
C252   C     0.43595   0.53876   0.01586   0.00000  Uiso   1.00
H253   H     0.60876   0.47332   0.07882   0.00000  Uiso   1.00
H254   H     0.57153   0.37078   0.25560   0.00000  Uiso   1.00
H255   H     0.42814   0.37062   0.24605   0.00000  Uiso   1.00
H256   H     0.42865   0.62930   0.24444   0.00000  Uiso   1.00
H257   H     0.63836   0.44808   0.19778   0.00000  Uiso   1.00
H258   H     0.61242   0.55544   0.29566   0.00000  Uiso   1.00
H259   H     0.61609   0.51561   0.40487   0.00000  Uiso   1.00
H260   H     0.47265   0.52521   0.09348   0.00000  Uiso   1.00
H261   H     0.38831   0.53200   0.41481   0.00000  Uiso   1.00
H262   H     0.42360   0.54530   0.05791   0.00000  Uiso   1.00
H263   H     0.55802   0.54141   0.36657   0.00000  Uiso   1.00
H264   H     0.57151   0.62925   0.25567   0.00000  Uiso   1.00
N265   N     0.38093   0.50001   0.25001   0.00000  Uiso   1.00
N266   N     0.61906   0.49998   0.25000   0.00000  Uiso   1.00
O267   O     0.46179   0.56108   0.25000   0.00000  Uiso   1.00
O268   O     0.53823   0.56107   0.25000   0.00000  Uiso   1.00
O269   O     0.44280   0.50000   0.32681   0.00000  Uiso   1.00
O270   O     0.51924   0.49999   0.32681   0.00000  Uiso   1.00
O271   O     0.46177   0.43893   0.24999   0.00000  Uiso   1.00
O272   O     0.53821   0.43892   0.24999   0.00000  Uiso   1.00
O273   O     0.48076   0.50001   0.17319   0.00000  Uiso   1.00
O274   O     0.55720   0.50000   0.17319   0.00000  Uiso   1.00
Zn275  Zn    0.44896   0.50001   0.25000   0.00000  Uiso   1.00
Zn276  Zn    0.55104   0.49999   0.25000   0.00000  Uiso   1.00
Br277  Br    0.40678   0.43304   0.17227   0.00000  Uiso   1.00
Br278  Br    0.36525   0.56931   0.32421   0.00000  Uiso   1.00
Br279  Br    0.65503   0.46336   0.46441   0.00000  Uiso   1.00
Br280  Br    0.34107   0.56382   0.02479   0.00000  Uiso   1.00
C281   C     0.83335   0.57999   0.25000   0.00000  Uiso   1.00
C282   C     0.81682   0.52800   0.48848   0.00000  Uiso   1.00
C283   C     0.83052   0.52616   0.43284   0.00000  Uiso   1.00
C284   C     0.85149   0.51810   0.01349   0.00000  Uiso   1.00
C285   C     0.89848   0.50763   0.48223   0.00000  Uiso   1.00
C286   C     0.91266   0.51697   0.42873   0.00000  Uiso   1.00
C287   C     0.87909   0.52920   0.40559   0.00000  Uiso   1.00
C288   C     0.84035   0.51585   0.06814   0.00000  Uiso   1.00
C289   C     0.91765   0.48693   0.06051   0.00000  Uiso   1.00
C290   C     0.79548   0.52147   0.40665   0.00000  Uiso   1.00
C291   C     0.87352   0.64538   0.25327   0.00000  Uiso   1.00
C292   C     0.80819   0.50612   0.35091   0.00000  Uiso   1.00
C293   C     0.87352   0.35463   0.25330   0.00000  Uiso   1.00
C294   C     0.83326   0.37582   0.25050   0.00000  Uiso   1.00
C295   C     0.79300   0.35458   0.24784   0.00000  Uiso   1.00
C296   C     0.79318   0.64538   0.24725   0.00000  Uiso   1.00
C297   C     0.83336   0.62417   0.25014   0.00000  Uiso   1.00
C298   C     0.98366   0.47104   0.22112   0.00000  Uiso   1.00
C299   C     0.69838   0.47164   0.21980   0.00000  Uiso   1.00
C300   C     0.68231   0.52908   0.27890   0.00000  Uiso   1.00
C301   C     0.96873   0.53007   0.27664   0.00000  Uiso   1.00
C302   C     0.83330   0.42001   0.25018   0.00000  Uiso   1.00
C303   C     0.85893   0.49960   0.14863   0.00000  Uiso   1.00
C304   C     0.93026   0.48950   0.00562   0.00000  Uiso   1.00
C305   C     0.87327   0.50120   0.09151   0.00000  Uiso   1.00
C306   C     0.74852   0.53177   0.43466   0.00000  Uiso   1.00
C307   C     0.73627   0.54292   0.48836   0.00000  Uiso   1.00
C308   C     0.76928   0.53876   0.01586   0.00000  Uiso   1.00
H309   H     0.94209   0.47332   0.07882   0.00000  Uiso   1.00
H310   H     0.90487   0.37078   0.25560   0.00000  Uiso   1.00
H311   H     0.76147   0.37062   0.24605   0.00000  Uiso   1.00
H312   H     0.76198   0.62930   0.24444   0.00000  Uiso   1.00
H313   H     0.97169   0.44808   0.19778   0.00000  Uiso   1.00
H314   H     0.94576   0.55544   0.29566   0.00000  Uiso   1.00
H315   H     0.94943   0.51561   0.40487   0.00000  Uiso   1.00
H316   H     0.80598   0.52521   0.09348   0.00000  Uiso   1.00
H317   H     0.72165   0.53200   0.41481   0.00000  Uiso   1.00
H318   H     0.75693   0.54530   0.05791   0.00000  Uiso   1.00
H319   H     0.89135   0.54141   0.36657   0.00000  Uiso   1.00
H320   H     0.90484   0.62925   0.25567   0.00000  Uiso   1.00
N321   N     0.71426   0.50001   0.25001   0.00000  Uiso   1.00
N322   N     0.95239   0.49998   0.25000   0.00000  Uiso   1.00
O323   O     0.79512   0.56108   0.25000   0.00000  Uiso   1.00
O324   O     0.87157   0.56107   0.25000   0.00000  Uiso   1.00
O325   O     0.77613   0.50000   0.32681   0.00000  Uiso   1.00
O326   O     0.85258   0.49999   0.32681   0.00000  Uiso   1.00
O327   O     0.79510   0.43893   0.24999   0.00000  Uiso   1.00
O328   O     0.87154   0.43892   0.24999   0.00000  Uiso   1.00
O329   O     0.81409   0.50001   0.17319   0.00000  Uiso   1.00
O330   O     0.89053   0.50000   0.17319   0.00000  Uiso   1.00
Zn331  Zn    0.78229   0.50001   0.25000   0.00000  Uiso   1.00
Zn332  Zn    0.88438   0.49999   0.25000   0.00000  Uiso   1.00
Br333  Br    0.74012   0.43304   0.17227   0.00000  Uiso   1.00
Br334  Br    0.69858   0.56931   0.32421   0.00000  Uiso   1.00
Br335  Br    0.98836   0.46336   0.46441   0.00000  Uiso   1.00
Br336  Br    0.67441   0.56382   0.02479   0.00000  Uiso   1.00
C337   C     0.16668   0.91332   0.25000   0.00000  Uiso   1.00
C338   C     0.15016   0.86133   0.48848   0.00000  Uiso   1.00
C339   C     0.16385   0.85950   0.43284   0.00000  Uiso   1.00
C340   C     0.18483   0.85143   0.01349   0.00000  Uiso   1.00
C341   C     0.23181   0.84096   0.48223   0.00000  Uiso   1.00
C342   C     0.24599   0.85030   0.42873   0.00000  Uiso   1.00
C343   C     0.21242   0.86254   0.40559   0.00000  Uiso   1.00
C344   C     0.17369   0.84919   0.06814   0.00000  Uiso   1.00
C345   C     0.25099   0.82026   0.06051   0.00000  Uiso   1.00
C346   C     0.12881   0.85480   0.40665   0.00000  Uiso   1.00
C347   C     0.20686   0.97871   0.25327   0.00000  Uiso   1.00
C348   C     0.14153   0.83945   0.35091   0.00000  Uiso   1.00
C349   C     0.20685   0.68796   0.25330   0.00000  Uiso   1.00
C350   C     0.16659   0.70916   0.25050   0.00000  Uiso   1.00
C351   C     0.12633   0.68792   0.24784   0.00000  Uiso   1.00
C352   C     0.12651   0.97871   0.24725   0.00000  Uiso   1.00
C353   C     0.16670   0.95750   0.25014   0.00000  Uiso   1.00
C354   C     0.31699   0.80438   0.22112   0.00000  Uiso   1.00
C355   C     0.03171   0.80497   0.21980   0.00000  Uiso   1.00
C356   C     0.01565   0.86241   0.27890   0.00000  Uiso   1.00
C357   C     0.30206   0.86340   0.27664   0.00000  Uiso   1.00
C358   C     0.16663   0.75334   0.25018   0.00000  Uiso   1.00
C359   C     0.19226   0.83293   0.14863   0.00000  Uiso   1.00
C360   C     0.26359   0.82283   0.00562   0.00000  Uiso   1.00
C361   C     0.20660   0.83454   0.09151   0.00000  Uiso   1.00
C362   C     0.08185   0.86511   0.43466   0.00000  Uiso   1.00
C363   C     0.06960   0.87626   0.48836   0.00000  Uiso   1.00
C364   C     0.10261   0.87209   0.01586   0.00000  Uiso   1.00
H365   H     0.27542   0.80665   0.07882   0.00000  Uiso   1.00
H366   H     0.23820   0.70411   0.25560   0.00000  Uiso   1.00
H367   H     0.09481   0.70395   0.24605   0.00000  Uiso   1.00
H368   H     0.09532   0.96263   0.24444   0.00000  Uiso   1.00
H369   H     0.30502   0.78142   0.19778   0.00000  Uiso   1.00
H370   H     0.27909   0.88877   0.29566   0.00000  Uiso   1.00
H371   H     0.28276   0.84894   0.40487   0.00000  Uiso   1.00
H372   H     0.13931   0.85855   0.09348   0.00000  Uiso   1.00
H373   H     0.05498   0.86533   0.41481   0.00000  Uiso   1.00
H374   H     0.09026   0.87864   0.05791   0.00000  Uiso   1.00
H375   H     0.22468   0.87474   0.36657   0.00000  Uiso   1.00
H376   H     0.23818   0.96258   0.25567   0.00000  Uiso   1.00
N377   N     0.04760   0.83334   0.25001   0.00000  Uiso   1.00
N378   N     0.28573   0.83331   0.25000   0.00000  Uiso   1.00
O379   O     0.12846   0.89442   0.25000   0.00000  Uiso   1.00
O380   O     0.20490   0.89441   0.25000   0.00000  Uiso   1.00
O381   O     0.10947   0.83333   0.32681   0.00000  Uiso   1.00
O382   O     0.18591   0.83332   0.32681   0.00000  Uiso   1.00
O383   O     0.12843   0.77226   0.24999   0.00000  Uiso   1.00
O384   O     0.20488   0.77225   0.24999   0.00000  Uiso   1.00
O385   O     0.14742   0.83335   0.17319   0.00000  Uiso   1.00
O386   O     0.22387   0.83334   0.17319   0.00000  Uiso   1.00
Zn387  Zn    0.11562   0.83334   0.25000   0.00000  Uiso   1.00
Zn388  Zn    0.21771   0.83333   0.25000   0.00000  Uiso   1.00
Br389  Br    0.07345   0.76638   0.17227   0.00000  Uiso   1.00
Br390  Br    0.03191   0.90265   0.32421   0.00000  Uiso   1.00
Br391  Br    0.32170   0.79670   0.46441   0.00000  Uiso   1.00
Br392  Br    0.00774   0.89716   0.02479   0.00000  Uiso   1.00
C393   C     0.50002   0.91332   0.25000   0.00000  Uiso   1.00
C394   C     0.48349   0.86133   0.48848   0.00000  Uiso   1.00
C395   C     0.49719   0.85950   0.43284   0.00000  Uiso   1.00
C396   C     0.51816   0.85143   0.01349   0.00000  Uiso   1.00
C397   C     0.56514   0.84096   0.48223   0.00000  Uiso   1.00
C398   C     0.57933   0.85030   0.42873   0.00000  Uiso   1.00
C399   C     0.54575   0.86254   0.40559   0.00000  Uiso   1.00
C400   C     0.50702   0.84919   0.06814   0.00000  Uiso   1.00
C401   C     0.58432   0.82026   0.06051   0.00000  Uiso   1.00
C402   C     0.46214   0.85480   0.40665   0.00000  Uiso   1.00
C403   C     0.54019   0.97871   0.25327   0.00000  Uiso   1.00
C404   C     0.47486   0.83945   0.35091   0.00000  Uiso   1.00
C405   C     0.54019   0.68796   0.25330   0.00000  Uiso   1.00
C406   C     0.49993   0.70916   0.25050   0.00000  Uiso   1.00
C407   C     0.45966   0.68792   0.24784   0.00000  Uiso   1.00
C408   C     0.45984   0.97871   0.24725   0.00000  Uiso   1.00
C409   C     0.50003   0.95750   0.25014   0.00000  Uiso   1.00
C410   C     0.65033   0.80438   0.22112   0.00000  Uiso   1.00
C411   C     0.36505   0.80497   0.21980   0.00000  Uiso   1.00
C412   C     0.34898   0.86241   0.27890   0.00000  Uiso   1.00
C413   C     0.63540   0.86340   0.27664   0.00000  Uiso   1.00
C414   C     0.49996   0.75334   0.25018   0.00000  Uiso   1.00
C415   C     0.52560   0.83293   0.14863   0.00000  Uiso   1.00
C416   C     0.59693   0.82283   0.00562   0.00000  Uiso   1.00
C417   C     0.53993   0.83454   0.09151   0.00000  Uiso   1.00
C418   C     0.41518   0.86511   0.43466   0.00000  Uiso   1.00
C419   C     0.40293   0.87626   0.48836   0.00000  Uiso   1.00
C420   C     0.43595   0.87209   0.01586   0.00000  Uiso   1.00
H421   H     0.60876   0.80665   0.07882   0.00000  Uiso   1.00
H422   H     0.57153   0.70411   0.25560   0.00000  Uiso   1.00
H423   H     0.42814   0.70395   0.24605   0.00000  Uiso   1.00
H424   H     0.42865   0.96263   0.24444   0.00000  Uiso   1.00
H425   H     0.63836   0.78142   0.19778   0.00000  Uiso   1.00
H426   H     0.61242   0.88877   0.29566   0.00000  Uiso   1.00
H427   H     0.61609   0.84894   0.40487   0.00000  Uiso   1.00
H428   H     0.47265   0.85855   0.09348   0.00000  Uiso   1.00
H429   H     0.38831   0.86533   0.41481   0.00000  Uiso   1.00
H430   H     0.42360   0.87864   0.05791   0.00000  Uiso   1.00
H431   H     0.55802   0.87474   0.36657   0.00000  Uiso   1.00
H432   H     0.57151   0.96258   0.25567   0.00000  Uiso   1.00
N433   N     0.38093   0.83334   0.25001   0.00000  Uiso   1.00
N434   N     0.61906   0.83331   0.25000   0.00000  Uiso   1.00
O435   O     0.46179   0.89442   0.25000   0.00000  Uiso   1.00
O436   O     0.53823   0.89441   0.25000   0.00000  Uiso   1.00
O437   O     0.44280   0.83333   0.32681   0.00000  Uiso   1.00
O438   O     0.51924   0.83332   0.32681   0.00000  Uiso   1.00
O439   O     0.46177   0.77226   0.24999   0.00000  Uiso   1.00
O440   O     0.53821   0.77225   0.24999   0.00000  Uiso   1.00
O441   O     0.48076   0.83335   0.17319   0.00000  Uiso   1.00
O442   O     0.55720   0.83334   0.17319   0.00000  Uiso   1.00
Zn443  Zn    0.44896   0.83334   0.25000   0.00000  Uiso   1.00
Zn444  Zn    0.55104   0.83333   0.25000   0.00000  Uiso   1.00
Br445  Br    0.40678   0.76638   0.17227   0.00000  Uiso   1.00
Br446  Br    0.36525   0.90265   0.32421   0.00000  Uiso   1.00
Br447  Br    0.65503   0.79670   0.46441   0.00000  Uiso   1.00
Br448  Br    0.34107   0.89716   0.02479   0.00000  Uiso   1.00
C449   C     0.83335   0.91332   0.25000   0.00000  Uiso   1.00
C450   C     0.81682   0.86133   0.48848   0.00000  Uiso   1.00
C451   C     0.83052   0.85950   0.43284   0.00000  Uiso   1.00
C452   C     0.85149   0.85143   0.01349   0.00000  Uiso   1.00
C453   C     0.89848   0.84096   0.48223   0.00000  Uiso   1.00
C454   C     0.91266   0.85030   0.42873   0.00000  Uiso   1.00
C455   C     0.87909   0.86254   0.40559   0.00000  Uiso   1.00
C456   C     0.84035   0.84919   0.06814   0.00000  Uiso   1.00
C457   C     0.91765   0.82026   0.06051   0.00000  Uiso   1.00
C458   C     0.79548   0.85480   0.40665   0.00000  Uiso   1.00
C459   C     0.87352   0.97871   0.25327   0.00000  Uiso   1.00
C460   C     0.80819   0.83945   0.35091   0.00000  Uiso   1.00
C461   C     0.87352   0.68796   0.25330   0.00000  Uiso   1.00
C462   C     0.83326   0.70916   0.25050   0.00000  Uiso   1.00
C463   C     0.79300   0.68792   0.24784   0.00000  Uiso   1.00
C464   C     0.79318   0.97871   0.24725   0.00000  Uiso   1.00
C465   C     0.83336   0.95750   0.25014   0.00000  Uiso   1.00
C466   C     0.98366   0.80438   0.22112   0.00000  Uiso   1.00
C467   C     0.69838   0.80497   0.21980   0.00000  Uiso   1.00
C468   C     0.68231   0.86241   0.27890   0.00000  Uiso   1.00
C469   C     0.96873   0.86340   0.27664   0.00000  Uiso   1.00
C470   C     0.83330   0.75334   0.25018   0.00000  Uiso   1.00
C471   C     0.85893   0.83293   0.14863   0.00000  Uiso   1.00
C472   C     0.93026   0.82283   0.00562   0.00000  Uiso   1.00
C473   C     0.87327   0.83454   0.09151   0.00000  Uiso   1.00
C474   C     0.74852   0.86511   0.43466   0.00000  Uiso   1.00
C475   C     0.73627   0.87626   0.48836   0.00000  Uiso   1.00
C476   C     0.76928   0.87209   0.01586   0.00000  Uiso   1.00
H477   H     0.94209   0.80665   0.07882   0.00000  Uiso   1.00
H478   H     0.90487   0.70411   0.25560   0.00000  Uiso   1.00
H479   H     0.76147   0.70395   0.24605   0.00000  Uiso   1.00
H480   H     0.76198   0.96263   0.24444   0.00000  Uiso   1.00
H481   H     0.97169   0.78142   0.19778   0.00000  Uiso   1.00
H482   H     0.94576   0.88877   0.29566   0.00000  Uiso   1.00
H483   H     0.94943   0.84894   0.40487   0.00000  Uiso   1.00
H484   H     0.80598   0.85855   0.09348   0.00000  Uiso   1.00
H485   H     0.72165   0.86533   0.41481   0.00000  Uiso   1.00
H486   H     0.75693   0.87864   0.05791   0.00000  Uiso   1.00
H487   H     0.89135   0.87474   0.36657   0.00000  Uiso   1.00
H488   H     0.90484   0.96258   0.25567   0.00000  Uiso   1.00
N489   N     0.71426   0.83334   0.25001   0.00000  Uiso   1.00
N490   N     0.95239   0.83331   0.25000   0.00000  Uiso   1.00
O491   O     0.79512   0.89442   0.25000   0.00000  Uiso   1.00
O492   O     0.87157   0.89441   0.25000   0.00000  Uiso   1.00
O493   O     0.77613   0.83333   0.32681   0.00000  Uiso   1.00
O494   O     0.85258   0.83332   0.32681   0.00000  Uiso   1.00
O495   O     0.79510   0.77226   0.24999   0.00000  Uiso   1.00
O496   O     0.87154   0.77225   0.24999   0.00000  Uiso   1.00
O497   O     0.81409   0.83335   0.17319   0.00000  Uiso   1.00
O498   O     0.89053   0.83334   0.17319   0.00000  Uiso   1.00
Zn499  Zn    0.78229   0.83334   0.25000   0.00000  Uiso   1.00
Zn500  Zn    0.88438   0.83333   0.25000   0.00000  Uiso   1.00
Br501  Br    0.74012   0.76638   0.17227   0.00000  Uiso   1.00
Br502  Br    0.69858   0.90265   0.32421   0.00000  Uiso   1.00
Br503  Br    0.98836   0.79670   0.46441   0.00000  Uiso   1.00
Br504  Br    0.67441   0.89716   0.02479   0.00000  Uiso   1.00
C505   C     0.16668   0.24666   0.75000   0.00000  Uiso   1.00
C506   C     0.15016   0.19467   0.98848   0.00000  Uiso   1.00
C507   C     0.16385   0.19283   0.93284   0.00000  Uiso   1.00
C508   C     0.18483   0.18476   0.51349   0.00000  Uiso   1.00
C509   C     0.23181   0.17430   0.98223   0.00000  Uiso   1.00
C510   C     0.24599   0.18364   0.92873   0.00000  Uiso   1.00
C511   C     0.21242   0.19587   0.90559   0.00000  Uiso   1.00
C512   C     0.17369   0.18252   0.56814   0.00000  Uiso   1.00
C513   C     0.25099   0.15360   0.56051   0.00000  Uiso   1.00
C514   C     0.12881   0.18814   0.90665   0.00000  Uiso   1.00
C515   C     0.20686   0.31205   0.75327   0.00000  Uiso   1.00
C516   C     0.14153   0.17278   0.85091   0.00000  Uiso   1.00
C517   C     0.20685   0.02130   0.75330   0.00000  Uiso   1.00
C518   C     0.16659   0.04249   0.75050   0.00000  Uiso   1.00
C519   C     0.12633   0.02125   0.74784   0.00000  Uiso   1.00
C520   C     0.12651   0.31204   0.74725   0.00000  Uiso   1.00
C521   C     0.16670   0.29084   0.75014   0.00000  Uiso   1.00
C522   C     0.31699   0.13771   0.72112   0.00000  Uiso   1.00
C523   C     0.03171   0.13830   0.71980   0.00000  Uiso   1.00
C524   C     0.01565   0.19574   0.77890   0.00000  Uiso   1.00
C525   C     0.30206   0.19673   0.77664   0.00000  Uiso   1.00
C526   C     0.16663   0.08668   0.75018   0.00000  Uiso   1.00
C527   C     0.19226   0.16627   0.64863   0.00000  Uiso   1.00
C528   C     0.26359   0.15616   0.50562   0.00000  Uiso   1.00
C529   C     0.20660   0.16787   0.59151   0.00000  Uiso   1.00
C530   C     0.08185   0.19844   0.93466   0.00000  Uiso   1.00
C531   C     0.06960   0.20959   0.98836   0.00000  Uiso   1.00
C532   C     0.10261   0.20542   0.51586   0.00000  Uiso   1.00
H533   H     0.27542   0.13999   0.57882   0.00000  Uiso   1.00
H534   H     0.23820   0.03745   0.75560   0.00000  Uiso   1.00
H535   H     0.09481   0.03729   0.74605   0.00000  Uiso   1.00
H536   H     0.09532   0.29597   0.74444   0.00000  Uiso   1.00
H537   H     0.30502   0.11475   0.69778   0.00000  Uiso   1.00
H538   H     0.27909   0.22210   0.79566   0.00000  Uiso   1.00
H539   H     0.28276   0.18227   0.90487   0.00000  Uiso   1.00
H540   H     0.13931   0.19188   0.59348   0.00000  Uiso   1.00
H541   H     0.05498   0.19866   0.91481   0.00000  Uiso   1.00
H542   H     0.09026   0.21197   0.55791   0.00000  Uiso   1.00
H543   H     0.22468   0.20808   0.86657   0.00000  Uiso   1.00
H544   H     0.23818   0.29592   0.75567   0.00000  Uiso   1.00
N545   N     0.04760   0.16668   0.75001   0.00000  Uiso   1.00
N546   N     0.28573   0.16665   0.75000   0.00000  Uiso   1.00
O547   O     0.12846   0.22775   0.75000   0.00000  Uiso   1.00
O548   O     0.20490   0.22774   0.75000   0.00000  Uiso   1.00
O549   O     0.10947   0.16666   0.82681   0.00000  Uiso   1.00
O550   O     0.18591   0.16665   0.82681   0.00000  Uiso   1.00
O551   O     0.12843   0.10559   0.74999   0.00000  Uiso   1.00
O552   O     0.20488   0.10558   0.74999   0.00000  Uiso   1.00
O553   O     0.14742   0.16668   0.67319   0.00000  Uiso   1.00
O554   O     0.22387   0.16667   0.67319   0.00000  Uiso   1.00
Zn555  Zn    0.11562   0.16667   0.75000   0.00000  Uiso   1.00
Zn556  Zn    0.21771   0.16666   0.75000   0.00000  Uiso   1.00
Br557  Br    0.07345   0.09971   0.67227   0.00000  Uiso   1.00
Br558  Br    0.03191   0.23598   0.82421   0.00000  Uiso   1.00
Br559  Br    0.32170   0.13003   0.96441   0.00000  Uiso   1.00
Br560  Br    0.00774   0.23049   0.52479   0.00000  Uiso   1.00
C561   C     0.50002   0.24666   0.75000   0.00000  Uiso   1.00
C562   C     0.48349   0.19467   0.98848   0.00000  Uiso   1.00
C563   C     0.49719   0.19283   0.93284   0.00000  Uiso   1.00
C564   C     0.51816   0.18476   0.51349   0.00000  Uiso   1.00
C565   C     0.56514   0.17430   0.98223   0.00000  Uiso   1.00
C566   C     0.57933   0.18364   0.92873   0.00000  Uiso   1.00
C567   C     0.54575   0.19587   0.90559   0.00000  Uiso   1.00
C568   C     0.50702   0.18252   0.56814   0.00000  Uiso   1.00
C569   C     0.58432   0.15360   0.56051   0.00000  Uiso   1.00
C570   C     0.46214   0.18814   0.90665   0.00000  Uiso   1.00
C571   C     0.54019   0.31205   0.75327   0.00000  Uiso   1.00
C572   C     0.47486   0.17278   0.85091   0.00000  Uiso   1.00
C573   C     0.54019   0.02130   0.75330   0.00000  Uiso   1.00
C574   C     0.49993   0.04249   0.75050   0.00000  Uiso   1.00
C575   C     0.45966   0.02125   0.74784   0.00000  Uiso   1.00
C576   C     0.45984   0.31204   0.74725   0.00000  Uiso   1.00
C577   C     0.50003   0.29084   0.75014   0.00000  Uiso   1.00
C578   C     0.65033   0.13771   0.72112   0.00000  Uiso   1.00
C579   C     0.36505   0.13830   0.71980   0.00000  Uiso   1.00
C580   C     0.34898   0.19574   0.77890   0.00000  Uiso   1.00
C581   C     0.63540   0.19673   0.77664   0.00000  Uiso   1.00
C582   C     0.49996   0.08668   0.75018   0.00000  Uiso   1.00
C583   C     0.52560   0.16627   0.64863   0.00000  Uiso   1.00
C584   C     0.59693   0.15616   0.50562   0.00000  Uiso   1.00
C585   C     0.53993   0.16787   0.59151   0.00000  Uiso   1.00
C586   C     0.41518   0.19844   0.93466   0.00000  Uiso   1.00
C587   C     0.40293   0.20959   0.98836   0.00000  Uiso   1.00
C588   C     0.43595   0.20542   0.51586   0.00000  Uiso   1.00
H589   H     0.60876   0.13999   0.57882   0.00000  Uiso   1.00
H590   H     0.57153   0.03745   0.75560   0.00000  Uiso   1.00
H591   H     0.42814   0.03729   0.74605   0.00000  Uiso   1.00
H592   H     0.42865   0.29597   0.74444   0.00000  Uiso   1.00
H593   H     0.63836   0.11475   0.69778   0.00000  Uiso   1.00
H594   H     0.61242   0.22210   0.79566   0.00000  Uiso   1.00
H595   H     0.61609   0.18227   0.90487   0.00000  Uiso   1.00
H596   H     0.47265   0.19188   0.59348   0.00000  Uiso   1.00
H597   H     0.38831   0.19866   0.91481   0.00000  Uiso   1.00
H598   H     0.42360   0.21197   0.55791   0.00000  Uiso   1.00
H599   H     0.55802   0.20808   0.86657   0.00000  Uiso   1.00
H600   H     0.57151   0.29592   0.75567   0.00000  Uiso   1.00
N601   N     0.38093   0.16668   0.75001   0.00000  Uiso   1.00
N602   N     0.61906   0.16665   0.75000   0.00000  Uiso   1.00
O603   O     0.46179   0.22775   0.75000   0.00000  Uiso   1.00
O604   O     0.53823   0.22774   0.75000   0.00000  Uiso   1.00
O605   O     0.44280   0.16666   0.82681   0.00000  Uiso   1.00
O606   O     0.51924   0.16665   0.82681   0.00000  Uiso   1.00
O607   O     0.46177   0.10559   0.74999   0.00000  Uiso   1.00
O608   O     0.53821   0.10558   0.74999   0.00000  Uiso   1.00
O609   O     0.48076   0.16668   0.67319   0.00000  Uiso   1.00
O610   O     0.55720   0.16667   0.67319   0.00000  Uiso   1.00
Zn611  Zn    0.44896   0.16667   0.75000   0.00000  Uiso   1.00
Zn612  Zn    0.55104   0.16666   0.75000   0.00000  Uiso   1.00
Br613  Br    0.40678   0.09971   0.67227   0.00000  Uiso   1.00
Br614  Br    0.36525   0.23598   0.82421   0.00000  Uiso   1.00
Br615  Br    0.65503   0.13003   0.96441   0.00000  Uiso   1.00
Br616  Br    0.34107   0.23049   0.52479   0.00000  Uiso   1.00
C617   C     0.83335   0.24666   0.75000   0.00000  Uiso   1.00
C618   C     0.81682   0.19467   0.98848   0.00000  Uiso   1.00
C619   C     0.83052   0.19283   0.93284   0.00000  Uiso   1.00
C620   C     0.85149   0.18476   0.51349   0.00000  Uiso   1.00
C621   C     0.89848   0.17430   0.98223   0.00000  Uiso   1.00
C622   C     0.91266   0.18364   0.92873   0.00000  Uiso   1.00
C623   C     0.87909   0.19587   0.90559   0.00000  Uiso   1.00
C624   C     0.84035   0.18252   0.56814   0.00000  Uiso   1.00
C625   C     0.91765   0.15360   0.56051   0.00000  Uiso   1.00
C626   C     0.79548   0.18814   0.90665   0.00000  Uiso   1.00
C627   C     0.87352   0.31205   0.75327   0.00000  Uiso   1.00
C628   C     0.80819   0.17278   0.85091   0.00000  Uiso   1.00
C629   C     0.87352   0.02130   0.75330   0.00000  Uiso   1.00
C630   C     0.83326   0.04249   0.75050   0.00000  Uiso   1.00
C631   C     0.79300   0.02125   0.74784   0.00000  Uiso   1.00
C632   C     0.79318   0.31204   0.74725   0.00000  Uiso   1.00
C633   C     0.83336   0.29084   0.75014   0.00000  Uiso   1.00
C634   C     0.98366   0.13771   0.72112   0.00000  Uiso   1.00
C635   C     0.69838   0.13830   0.71980   0.00000  Uiso   1.00
C636   C     0.68231   0.19574   0.77890   0.00000  Uiso   1.00
C637   C     0.96873   0.19673   0.77664   0.00000  Uiso   1.00
C638   C     0.83330   0.08668   0.75018   0.00000  Uiso   1.00
C639   C     0.85893   0.16627   0.64863   0.00000  Uiso   1.00
C640   C     0.93026   0.15616   0.50562   0.00000  Uiso   1.00
C641   C     0.87327   0.16787   0.59151   0.00000  Uiso   1.00
C642   C     0.74852   0.19844   0.93466   0.00000  Uiso   1.00
C643   C     0.73627   0.20959   0.98836   0.00000  Uiso   1.00
C644   C     0.76928   0.20542   0.51586   0.00000  Uiso   1.00
H645   H     0.94209   0.13999   0.57882   0.00000  Uiso   1.00
H646   H     0.90487   0.03745   0.75560   0.00000  Uiso   1.00
H647   H     0.76147   0.03729   0.74605   0.00000  Uiso   1.00
H648   H     0.76198   0.29597   0.74444   0.00000  Uiso   1.00
H649   H     0.97169   0.11475   0.69778   0.00000  Uiso   1.00
H650   H     0.94576   0.22210   0.79566   0.00000  Uiso   1.00
H651   H     0.94943   0.18227   0.90487   0.00000  Uiso   1.00
H652   H     0.80598   0.19188   0.59348   0.00000  Uiso   1.00
H653   H     0.72165   0.19866   0.91481   0.00000  Uiso   1.00
H654   H     0.75693   0.21197   0.55791   0.00000  Uiso   1.00
H655   H     0.89135   0.20808   0.86657   0.00000  Uiso   1.00
H656   H     0.90484   0.29592   0.75567   0.00000  Uiso   1.00
N657   N     0.71426   0.16668   0.75001   0.00000  Uiso   1.00
N658   N     0.95239   0.16665   0.75000   0.00000  Uiso   1.00
O659   O     0.79512   0.22775   0.75000   0.00000  Uiso   1.00
O660   O     0.87157   0.22774   0.75000   0.00000  Uiso   1.00
O661   O     0.77613   0.16666   0.82681   0.00000  Uiso   1.00
O662   O     0.85258   0.16665   0.82681   0.00000  Uiso   1.00
O663   O     0.79510   0.10559   0.74999   0.00000  Uiso   1.00
O664   O     0.87154   0.10558   0.74999   0.00000  Uiso   1.00
O665   O     0.81409   0.16668   0.67319   0.00000  Uiso   1.00
O666   O     0.89053   0.16667   0.67319   0.00000  Uiso   1.00
Zn667  Zn    0.78229   0.16667   0.75000   0.00000  Uiso   1.00
Zn668  Zn    0.88438   0.16666   0.75000   0.00000  Uiso   1.00
Br669  Br    0.74012   0.09971   0.67227   0.00000  Uiso   1.00
Br670  Br    0.69858   0.23598   0.82421   0.00000  Uiso   1.00
Br671  Br    0.98836   0.13003   0.96441   0.00000  Uiso   1.00
Br672  Br    0.67441   0.23049   0.52479   0.00000  Uiso   1.00
C673   C     0.16668   0.57999   0.75000   0.00000  Uiso   1.00
C674   C     0.15016   0.52800   0.98848   0.00000  Uiso   1.00
C675   C     0.16385   0.52616   0.93284   0.00000  Uiso   1.00
C676   C     0.18483   0.51810   0.51349   0.00000  Uiso   1.00
C677   C     0.23181   0.50763   0.98223   0.00000  Uiso   1.00
C678   C     0.24599   0.51697   0.92873   0.00000  Uiso   1.00
C679   C     0.21242   0.52920   0.90559   0.00000  Uiso   1.00
C680   C     0.17369   0.51585   0.56814   0.00000  Uiso   1.00
C681   C     0.25099   0.48693   0.56051   0.00000  Uiso   1.00
C682   C     0.12881   0.52147   0.90665   0.00000  Uiso   1.00
C683   C     0.20686   0.64538   0.75327   0.00000  Uiso   1.00
C684   C     0.14153   0.50612   0.85091   0.00000  Uiso   1.00
C685   C     0.20685   0.35463   0.75330   0.00000  Uiso   1.00
C686   C     0.16659   0.37582   0.75050   0.00000  Uiso   1.00
C687   C     0.12633   0.35458   0.74784   0.00000  Uiso   1.00
C688   C     0.12651   0.64538   0.74725   0.00000  Uiso   1.00
C689   C     0.16670   0.62417   0.75014   0.00000  Uiso   1.00
C690   C     0.31699   0.47104   0.72112   0.00000  Uiso   1.00
C691   C     0.03171   0.47164   0.71980   0.00000  Uiso   1.00
C692   C     0.01565   0.52908   0.77890   0.00000  Uiso   1.00
C693   C     0.30206   0.53007   0.77664   0.00000  Uiso   1.00
C694   C     0.16663   0.42001   0.75018   0.00000  Uiso   1.00
C695   C     0.19226   0.49960   0.64863   0.00000  Uiso   1.00
C696   C     0.26359   0.48950   0.50562   0.00000  Uiso   1.00
C697   C     0.20660   0.50120   0.59151   0.00000  Uiso   1.00
C698   C     0.08185   0.53177   0.93466   0.00000  Uiso   1.00
C699   C     0.06960   0.54292   0.98836   0.00000  Uiso   1.00
C700   C     0.10261   0.53876   0.51586   0.00000  Uiso   1.00
H701   H     0.27542   0.47332   0.57882   0.00000  Uiso   1.00
H702   H     0.23820   0.37078   0.75560   0.00000  Uiso   1.00
H703   H     0.09481   0.37062   0.74605   0.00000  Uiso   1.00
H704   H     0.09532   0.62930   0.74444   0.00000  Uiso   1.00
H705   H     0.30502   0.44808   0.69778   0.00000  Uiso   1.00
H706   H     0.27909   0.55544   0.79566   0.00000  Uiso   1.00
H707   H     0.28276   0.51561   0.90487   0.00000  Uiso   1.00
H708   H     0.13931   0.52521   0.59348   0.00000  Uiso   1.00
H709   H     0.05498   0.53200   0.91481   0.00000  Uiso   1.00
H710   H     0.09026   0.54530   0.55791   0.00000  Uiso   1.00
H711   H     0.22468   0.54141   0.86657   0.00000  Uiso   1.00
H712   H     0.23818   0.62925   0.75567   0.00000  Uiso   1.00
N713   N     0.04760   0.50001   0.75001   0.00000  Uiso   1.00
N714   N     0.28573   0.49998   0.75000   0.00000  Uiso   1.00
O715   O     0.12846   0.56108   0.75000   0.00000  Uiso   1.00
O716   O     0.20490   0.56107   0.75000   0.00000  Uiso   1.00
O717   O     0.10947   0.50000   0.82681   0.00000  Uiso   1.00
O718   O     0.18591   0.49999   0.82681   0.00000  Uiso   1.00
O719   O     0.12843   0.43893   0.74999   0.00000  Uiso   1.00
O720   O     0.20488   0.43892   0.74999   0.00000  Uiso   1.00
O721   O     0.14742   0.50001   0.67319   0.00000  Uiso   1.00
O722   O     0.22387   0.50000   0.67319   0.00000  Uiso   1.00
Zn723  Zn    0.11562   0.50001   0.75000   0.00000  Uiso   1.00
Zn724  Zn    0.21771   0.49999   0.75000   0.00000  Uiso   1.00
Br725  Br    0.07345   0.43304   0.67227   0.00000  Uiso   1.00
Br726  Br    0.03191   0.56931   0.82421   0.00000  Uiso   1.00
Br727  Br    0.32170   0.46336   0.96441   0.00000  Uiso   1.00
Br728  Br    0.00774   0.56382   0.52479   0.00000  Uiso   1.00
C729   C     0.50002   0.57999   0.75000   0.00000  Uiso   1.00
C730   C     0.48349   0.52800   0.98848   0.00000  Uiso   1.00
C731   C     0.49719   0.52616   0.93284   0.00000  Uiso   1.00
C732   C     0.51816   0.51810   0.51349   0.00000  Uiso   1.00
C733   C     0.56514   0.50763   0.98223   0.00000  Uiso   1.00
C734   C     0.57933   0.51697   0.92873   0.00000  Uiso   1.00
C735   C     0.54575   0.52920   0.90559   0.00000  Uiso   1.00
C736   C     0.50702   0.51585   0.56814   0.00000  Uiso   1.00
C737   C     0.58432   0.48693   0.56051   0.00000  Uiso   1.00
C738   C     0.46214   0.52147   0.90665   0.00000  Uiso   1.00
C739   C     0.54019   0.64538   0.75327   0.00000  Uiso   1.00
C740   C     0.47486   0.50612   0.85091   0.00000  Uiso   1.00
C741   C     0.54019   0.35463   0.75330   0.00000  Uiso   1.00
C742   C     0.49993   0.37582   0.75050   0.00000  Uiso   1.00
C743   C     0.45966   0.35458   0.74784   0.00000  Uiso   1.00
C744   C     0.45984   0.64538   0.74725   0.00000  Uiso   1.00
C745   C     0.50003   0.62417   0.75014   0.00000  Uiso   1.00
C746   C     0.65033   0.47104   0.72112   0.00000  Uiso   1.00
C747   C     0.36505   0.47164   0.71980   0.00000  Uiso   1.00
C748   C     0.34898   0.52908   0.77890   0.00000  Uiso   1.00
C749   C     0.63540   0.53007   0.77664   0.00000  Uiso   1.00
C750   C     0.49996   0.42001   0.75018   0.00000  Uiso   1.00
C751   C     0.52560   0.49960   0.64863   0.00000  Uiso   1.00
C752   C     0.59693   0.48950   0.50562   0.00000  Uiso   1.00
C753   C     0.53993   0.50120   0.59151   0.00000  Uiso   1.00
C754   C     0.41518   0.53177   0.93466   0.00000  Uiso   1.00
C755   C     0.40293   0.54292   0.98836   0.00000  Uiso   1.00
C756   C     0.43595   0.53876   0.51586   0.00000  Uiso   1.00
H757   H     0.60876   0.47332   0.57882   0.00000  Uiso   1.00
H758   H     0.57153   0.37078   0.75560   0.00000  Uiso   1.00
H759   H     0.42814   0.37062   0.74605   0.00000  Uiso   1.00
H760   H     0.42865   0.62930   0.74444   0.00000  Uiso   1.00
H761   H     0.63836   0.44808   0.69778   0.00000  Uiso   1.00
H762   H     0.61242   0.55544   0.79566   0.00000  Uiso   1.00
H763   H     0.61609   0.51561   0.90487   0.00000  Uiso   1.00
H764   H     0.47265   0.52521   0.59348   0.00000  Uiso   1.00
H765   H     0.38831   0.53200   0.91481   0.00000  Uiso   1.00
H766   H     0.42360   0.54530   0.55791   0.00000  Uiso   1.00
H767   H     0.55802   0.54141   0.86657   0.00000  Uiso   1.00
H768   H     0.57151   0.62925   0.75567   0.00000  Uiso   1.00
N769   N     0.38093   0.50001   0.75001   0.00000  Uiso   1.00
N770   N     0.61906   0.49998   0.75000   0.00000  Uiso   1.00
O771   O     0.46179   0.56108   0.75000   0.00000  Uiso   1.00
O772   O     0.53823   0.56107   0.75000   0.00000  Uiso   1.00
O773   O     0.44280   0.50000   0.82681   0.00000  Uiso   1.00
O774   O     0.51924   0.49999   0.82681   0.00000  Uiso   1.00
O775   O     0.46177   0.43893   0.74999   0.00000  Uiso   1.00
O776   O     0.53821   0.43892   0.74999   0.00000  Uiso   1.00
O777   O     0.48076   0.50001   0.67319   0.00000  Uiso   1.00
O778   O     0.55720   0.50000   0.67319   0.00000  Uiso   1.00
Zn779  Zn    0.44896   0.50001   0.75000   0.00000  Uiso   1.00
Zn780  Zn    0.55104   0.49999   0.75000   0.00000  Uiso   1.00
Br781  Br    0.40678   0.43304   0.67227   0.00000  Uiso   1.00
Br782  Br    0.36525   0.56931   0.82421   0.00000  Uiso   1.00
Br783  Br    0.65503   0.46336   0.96441   0.00000  Uiso   1.00
Br784  Br    0.34107   0.56382   0.52479   0.00000  Uiso   1.00
C785   C     0.83335   0.57999   0.75000   0.00000  Uiso   1.00
C786   C     0.81682   0.52800   0.98848   0.00000  Uiso   1.00
C787   C     0.83052   0.52616   0.93284   0.00000  Uiso   1.00
C788   C     0.85149   0.51810   0.51349   0.00000  Uiso   1.00
C789   C     0.89848   0.50763   0.98223   0.00000  Uiso   1.00
C790   C     0.91266   0.51697   0.92873   0.00000  Uiso   1.00
C791   C     0.87909   0.52920   0.90559   0.00000  Uiso   1.00
C792   C     0.84035   0.51585   0.56814   0.00000  Uiso   1.00
C793   C     0.91765   0.48693   0.56051   0.00000  Uiso   1.00
C794   C     0.79548   0.52147   0.90665   0.00000  Uiso   1.00
C795   C     0.87352   0.64538   0.75327   0.00000  Uiso   1.00
C796   C     0.80819   0.50612   0.85091   0.00000  Uiso   1.00
C797   C     0.87352   0.35463   0.75330   0.00000  Uiso   1.00
C798   C     0.83326   0.37582   0.75050   0.00000  Uiso   1.00
C799   C     0.79300   0.35458   0.74784   0.00000  Uiso   1.00
C800   C     0.79318   0.64538   0.74725   0.00000  Uiso   1.00
C801   C     0.83336   0.62417   0.75014   0.00000  Uiso   1.00
C802   C     0.98366   0.47104   0.72112   0.00000  Uiso   1.00
C803   C     0.69838   0.47164   0.71980   0.00000  Uiso   1.00
C804   C     0.68231   0.52908   0.77890   0.00000  Uiso   1.00
C805   C     0.96873   0.53007   0.77664   0.00000  Uiso   1.00
C806   C     0.83330   0.42001   0.75018   0.00000  Uiso   1.00
C807   C     0.85893   0.49960   0.64863   0.00000  Uiso   1.00
C808   C     0.93026   0.48950   0.50562   0.00000  Uiso   1.00
C809   C     0.87327   0.50120   0.59151   0.00000  Uiso   1.00
C810   C     0.74852   0.53177   0.93466   0.00000  Uiso   1.00
C811   C     0.73627   0.54292   0.98836   0.00000  Uiso   1.00
C812   C     0.76928   0.53876   0.51586   0.00000  Uiso   1.00
H813   H     0.94209   0.47332   0.57882   0.00000  Uiso   1.00
H814   H     0.90487   0.37078   0.75560   0.00000  Uiso   1.00
H815   H     0.76147   0.37062   0.74605   0.00000  Uiso   1.00
H816   H     0.76198   0.62930   0.74444   0.00000  Uiso   1.00
H817   H     0.97169   0.44808   0.69778   0.00000  Uiso   1.00
H818   H     0.94576   0.55544   0.79566   0.00000  Uiso   1.00
H819   H     0.94943   0.51561   0.90487   0.00000  Uiso   1.00
H820   H     0.80598   0.52521   0.59348   0.00000  Uiso   1.00
H821   H     0.72165   0.53200   0.91481   0.00000  Uiso   1.00
H822   H     0.75693   0.54530   0.55791   0.00000  Uiso   1.00
H823   H     0.89135   0.54141   0.86657   0.00000  Uiso   1.00
H824   H     0.90484   0.62925   0.75567   0.00000  Uiso   1.00
N825   N     0.71426   0.50001   0.75001   0.00000  Uiso   1.00
N826   N     0.95239   0.49998   0.75000   0.00000  Uiso   1.00
O827   O     0.79512   0.56108   0.75000   0.00000  Uiso   1.00
O828   O     0.87157   0.56107   0.75000   0.00000  Uiso   1.00
O829   O     0.77613   0.50000   0.82681   0.00000  Uiso   1.00
O830   O     0.85258   0.49999   0.82681   0.00000  Uiso   1.00
O831   O     0.79510   0.43893   0.74999   0.00000  Uiso   1.00
O832   O     0.87154   0.43892   0.74999   0.00000  Uiso   1.00
O833   O     0.81409   0.50001   0.67319   0.00000  Uiso   1.00
O834   O     0.89053   0.50000   0.67319   0.00000  Uiso   1.00
Zn835  Zn    0.78229   0.50001   0.75000   0.00000  Uiso   1.00
Zn836  Zn    0.88438   0.49999   0.75000   0.00000  Uiso   1.00
Br837  Br    0.74012   0.43304   0.67227   0.00000  Uiso   1.00
Br838  Br    0.69858   0.56931   0.82421   0.00000  Uiso   1.00
Br839  Br    0.98836   0.46336   0.96441   0.00000  Uiso   1.00
Br840  Br    0.67441   0.56382   0.52479   0.00000  Uiso   1.00
C841   C     0.16668   0.91332   0.75000   0.00000  Uiso   1.00
C842   C     0.15016   0.86133   0.98848   0.00000  Uiso   1.00
C843   C     0.16385   0.85950   0.93284   0.00000  Uiso   1.00
C844   C     0.18483   0.85143   0.51349   0.00000  Uiso   1.00
C845   C     0.23181   0.84096   0.98223   0.00000  Uiso   1.00
C846   C     0.24599   0.85030   0.92873   0.00000  Uiso   1.00
C847   C     0.21242   0.86254   0.90559   0.00000  Uiso   1.00
C848   C     0.17369   0.84919   0.56814   0.00000  Uiso   1.00
C849   C     0.25099   0.82026   0.56051   0.00000  Uiso   1.00
C850   C     0.12881   0.85480   0.90665   0.00000  Uiso   1.00
C851   C     0.20686   0.97871   0.75327   0.00000  Uiso   1.00
C852   C     0.14153   0.83945   0.85091   0.00000  Uiso   1.00
C853   C     0.20685   0.68796   0.75330   0.00000  Uiso   1.00
C854   C     0.16659   0.70916   0.75050   0.00000  Uiso   1.00
C855   C     0.12633   0.68792   0.74784   0.00000  Uiso   1.00
C856   C     0.12651   0.97871   0.74725   0.00000  Uiso   1.00
C857   C     0.16670   0.95750   0.75014   0.00000  Uiso   1.00
C858   C     0.31699   0.80438   0.72112   0.00000  Uiso   1.00
C859   C     0.03171   0.80497   0.71980   0.00000  Uiso   1.00
C860   C     0.01565   0.86241   0.77890   0.00000  Uiso   1.00
C861   C     0.30206   0.86340   0.77664   0.00000  Uiso   1.00
C862   C     0.16663   0.75334   0.75018   0.00000  Uiso   1.00
C863   C     0.19226   0.83293   0.64863   0.00000  Uiso   1.00
C864   C     0.26359   0.82283   0.50562   0.00000  Uiso   1.00
C865   C     0.20660   0.83454   0.59151   0.00000  Uiso   1.00
C866   C     0.08185   0.86511   0.93466   0.00000  Uiso   1.00
C867   C     0.06960   0.87626   0.98836   0.00000  Uiso   1.00
C868   C     0.10261   0.87209   0.51586   0.00000  Uiso   1.00
H869   H     0.27542   0.80665   0.57882   0.00000  Uiso   1.00
H870   H     0.23820   0.70411   0.75560   0.00000  Uiso   1.00
H871   H     0.09481   0.70395   0.74605   0.00000  Uiso   1.00
H872   H     0.09532   0.96263   0.74444   0.00000  Uiso   1.00
H873   H     0.30502   0.78142   0.69778   0.00000  Uiso   1.00
H874   H     0.27909   0.88877   0.79566   0.00000  Uiso   1.00
H875   H     0.28276   0.84894   0.90487   0.00000  Uiso   1.00
H876   H     0.13931   0.85855   0.59348   0.00000  Uiso   1.00
H877   H     0.05498   0.86533   0.91481   0.00000  Uiso   1.00
H878   H     0.09026   0.87864   0.55791   0.00000  Uiso   1.00
H879   H     0.22468   0.87474   0.86657   0.00000  Uiso   1.00
H880   H     0.23818   0.96258   0.75567   0.00000  Uiso   1.00
N881   N     0.04760   0.83334   0.75001   0.00000  Uiso   1.00
N882   N     0.28573   0.83331   0.75000   0.00000  Uiso   1.00
O883   O     0.12846   0.89442   0.75000   0.00000  Uiso   1.00
O884   O     0.20490   0.89441   0.75000   0.00000  Uiso   1.00
O885   O     0.10947   0.83333   0.82681   0.00000  Uiso   1.00
O886   O     0.18591   0.83332   0.82681   0.00000  Uiso   1.00
O887   O     0.12843   0.77226   0.74999   0.00000  Uiso   1.00
O888   O     0.20488   0.77225   0.74999   0.00000  Uiso   1.00
O889   O     0.14742   0.83335   0.67319   0.00000  Uiso   1.00
O890   O     0.22387   0.83334   0.67319   0.00000  Uiso   1.00
Zn891  Zn    0.11562   0.83334   0.75000   0.00000  Uiso   1.00
Zn892  Zn    0.21771   0.83333   0.75000   0.00000  Uiso   1.00
Br893  Br    0.07345   0.76638   0.67227   0.00000  Uiso   1.00
Br894  Br    0.03191   0.90265   0.82421   0.00000  Uiso   1.00
Br895  Br    0.32170   0.79670   0.96441   0.00000  Uiso   1.00
Br896  Br    0.00774   0.89716   0.52479   0.00000  Uiso   1.00
C897   C     0.50002   0.91332   0.75000   0.00000  Uiso   1.00
C898   C     0.48349   0.86133   0.98848   0.00000  Uiso   1.00
C899   C     0.49719   0.85950   0.93284   0.00000  Uiso   1.00
C900   C     0.51816   0.85143   0.51349   0.00000  Uiso   1.00
C901   C     0.56514   0.84096   0.98223   0.00000  Uiso   1.00
C902   C     0.57933   0.85030   0.92873   0.00000  Uiso   1.00
C903   C     0.54575   0.86254   0.90559   0.00000  Uiso   1.00
C904   C     0.50702   0.84919   0.56814   0.00000  Uiso   1.00
C905   C     0.58432   0.82026   0.56051   0.00000  Uiso   1.00
C906   C     0.46214   0.85480   0.90665   0.00000  Uiso   1.00
C907   C     0.54019   0.97871   0.75327   0.00000  Uiso   1.00
C908   C     0.47486   0.83945   0.85091   0.00000  Uiso   1.00
C909   C     0.54019   0.68796   0.75330   0.00000  Uiso   1.00
C910   C     0.49993   0.70916   0.75050   0.00000  Uiso   1.00
C911   C     0.45966   0.68792   0.74784   0.00000  Uiso   1.00
C912   C     0.45984   0.97871   0.74725   0.00000  Uiso   1.00
C913   C     0.50003   0.95750   0.75014   0.00000  Uiso   1.00
C914   C     0.65033   0.80438   0.72112   0.00000  Uiso   1.00
C915   C     0.36505   0.80497   0.71980   0.00000  Uiso   1.00
C916   C     0.34898   0.86241   0.77890   0.00000  Uiso   1.00
C917   C     0.63540   0.86340   0.77664   0.00000  Uiso   1.00
C918   C     0.49996   0.75334   0.75018   0.00000  Uiso   1.00
C919   C     0.52560   0.83293   0.64863   0.00000  Uiso   1.00
C920   C     0.59693   0.82283   0.50562   0.00000  Uiso   1.00
C921   C     0.53993   0.83454   0.59151   0.00000  Uiso   1.00
C922   C     0.41518   0.86511   0.93466   0.00000  Uiso   1.00
C923   C     0.40293   0.87626   0.98836   0.00000  Uiso   1.00
C924   C     0.43595   0.87209   0.51586   0.00000  Uiso   1.00
H925   H     0.60876   0.80665   0.57882   0.00000  Uiso   1.00
H926   H     0.57153   0.70411   0.75560   0.00000  Uiso   1.00
H927   H     0.42814   0.70395   0.74605   0.00000  Uiso   1.00
H928   H     0.42865   0.96263   0.74444   0.00000  Uiso   1.00
H929   H     0.63836   0.78142   0.69778   0.00000  Uiso   1.00
H930   H     0.61242   0.88877   0.79566   0.00000  Uiso   1.00
H931   H     0.61609   0.84894   0.90487   0.00000  Uiso   1.00
H932   H     0.47265   0.85855   0.59348   0.00000  Uiso   1.00
H933   H     0.38831   0.86533   0.91481   0.00000  Uiso   1.00
H934   H     0.42360   0.87864   0.55791   0.00000  Uiso   1.00
H935   H     0.55802   0.87474   0.86657   0.00000  Uiso   1.00
H936   H     0.57151   0.96258   0.75567   0.00000  Uiso   1.00
N937   N     0.38093   0.83334   0.75001   0.00000  Uiso   1.00
N938   N     0.61906   0.83331   0.75000   0.00000  Uiso   1.00
O939   O     0.46179   0.89442   0.75000   0.00000  Uiso   1.00
O940   O     0.53823   0.89441   0.75000   0.00000  Uiso   1.00
O941   O     0.44280   0.83333   0.82681   0.00000  Uiso   1.00
O942   O     0.51924   0.83332   0.82681   0.00000  Uiso   1.00
O943   O     0.46177   0.77226   0.74999   0.00000  Uiso   1.00
O944   O     0.53821   0.77225   0.74999   0.00000  Uiso   1.00
O945   O     0.48076   0.83335   0.67319   0.00000  Uiso   1.00
O946   O     0.55720   0.83334   0.67319   0.00000  Uiso   1.00
Zn947  Zn    0.44896   0.83334   0.75000   0.00000  Uiso   1.00
Zn948  Zn    0.55104   0.83333   0.75000   0.00000  Uiso   1.00
Br949  Br    0.40678   0.76638   0.67227   0.00000  Uiso   1.00
Br950  Br    0.36525   0.90265   0.82421   0.00000  Uiso   1.00
Br951  Br    0.65503   0.79670   0.96441   0.00000  Uiso   1.00
Br952  Br    0.34107   0.89716   0.52479   0.00000  Uiso   1.00
C953   C     0.83335   0.91332   0.75000   0.00000  Uiso   1.00
C954   C     0.81682   0.86133   0.98848   0.00000  Uiso   1.00
C955   C     0.83052   0.85950   0.93284   0.00000  Uiso   1.00
C956   C     0.85149   0.85143   0.51349   0.00000  Uiso   1.00
C957   C     0.89848   0.84096   0.98223   0.00000  Uiso   1.00
C958   C     0.91266   0.85030   0.92873   0.00000  Uiso   1.00
C959   C     0.87909   0.86254   0.90559   0.00000  Uiso   1.00
C960   C     0.84035   0.84919   0.56814   0.00000  Uiso   1.00
C961   C     0.91765   0.82026   0.56051   0.00000  Uiso   1.00
C962   C     0.79548   0.85480   0.90665   0.00000  Uiso   1.00
C963   C     0.87352   0.97871   0.75327   0.00000  Uiso   1.00
C964   C     0.80819   0.83945   0.85091   0.00000  Uiso   1.00
C965   C     0.87352   0.68796   0.75330   0.00000  Uiso   1.00
C966   C     0.83326   0.70916   0.75050   0.00000  Uiso   1.00
C967   C     0.79300   0.68792   0.74784   0.00000  Uiso   1.00
C968   C     0.79318   0.97871   0.74725   0.00000  Uiso   1.00
C969   C     0.83336   0.95750   0.75014   0.00000  Uiso   1.00
C970   C     0.98366   0.80438   0.72112   0.00000  Uiso   1.00
C971   C     0.69838   0.80497   0.71980   0.00000  Uiso   1.00
C972   C     0.68231   0.86241   0.77890   0.00000  Uiso   1.00
C973   C     0.96873   0.86340   0.77664   0.00000  Uiso   1.00
C974   C     0.83330   0.75334   0.75018   0.00000  Uiso   1.00
C975   C     0.85893   0.83293   0.64863   0.00000  Uiso   1.00
C976   C     0.93026   0.82283   0.50562   0.00000  Uiso   1.00
C977   C     0.87327   0.83454   0.59151   0.00000  Uiso   1.00
C978   C     0.74852   0.86511   0.93466   0.00000  Uiso   1.00
C979   C     0.73627   0.87626   0.98836   0.00000  Uiso   1.00
C980   C     0.76928   0.87209   0.51586   0.00000  Uiso   1.00
H981   H     0.94209   0.80665   0.57882   0.00000  Uiso   1.00
H982   H     0.90487   0.70411   0.75560   0.00000  Uiso   1.00
H983   H     0.76147   0.70395   0.74605   0.00000  Uiso   1.00
H984   H     0.76198   0.96263   0.74444   0.00000  Uiso   1.00
H985   H     0.97169   0.78142   0.69778   0.00000  Uiso   1.00
H986   H     0.94576   0.88877   0.79566   0.00000  Uiso   1.00
H987   H     0.94943   0.84894   0.90487   0.00000  Uiso   1.00
H988   H     0.80598   0.85855   0.59348   0.00000  Uiso   1.00
H989   H     0.72165   0.86533   0.91481   0.00000  Uiso   1.00
H990   H     0.75693   0.87864   0.55791   0.00000  Uiso   1.00
H991   H     0.89135   0.87474   0.86657   0.00000  Uiso   1.00
H992   H     0.90484   0.96258   0.75567   0.00000  Uiso   1.00
N993   N     0.71426   0.83334   0.75001   0.00000  Uiso   1.00
N994   N     0.95239   0.83331   0.75000   0.00000  Uiso   1.00
O995   O     0.79512   0.89442   0.75000   0.00000  Uiso   1.00
O996   O     0.87157   0.89441   0.75000   0.00000  Uiso   1.00
O997   O     0.77613   0.83333   0.82681   0.00000  Uiso   1.00
O998   O     0.85258   0.83332   0.82681   0.00000  Uiso   1.00
O999   O     0.79510   0.77226   0.74999   0.00000  Uiso   1.00
O1000  O     0.87154   0.77225   0.74999   0.00000  Uiso   1.00
O1001  O     0.81409   0.83335   0.67319   0.00000  Uiso   1.00
O1002  O     0.89053   0.83334   0.67319   0.00000  Uiso   1.00
Zn1003 Zn    0.78229   0.83334   0.75000   0.00000  Uiso   1.00
Zn1004 Zn    0.88438   0.83333   0.75000   0.00000  Uiso   1.00
Br1005 Br    0.74012   0.76638   0.67227   0.00000  Uiso   1.00
Br1006 Br    0.69858   0.90265   0.82421   0.00000  Uiso   1.00
Br1007 Br    0.98836   0.79670   0.96441   0.00000  Uiso   1.00
Br1008 Br    0.67441   0.89716   0.52479   0.00000  Uiso   1.00
loop_
_geom_bond_atom_site_label_1
_geom_bond_atom_site_label_2
_geom_bond_distance
_geom_bond_site_symmetry_2
_ccdc_geom_bond_type
C1     O44     1.287   .     A
C1     C17     1.421   .     S
C1     O43     1.288   .     A
C2     C3      1.403   .     A
C2     C508    1.422   .     S
C2     C532    1.416   .     S
C3     C10     1.422   .     A
C3     C7      1.407   .     A
C4     C8      1.385   .     A
C4     C506    1.422   1_554 S
C4     C509    1.425   1_554 S
C5     C6      1.388   .     A
C5     C508    1.425   .     S
C5     C528    1.408   .     S
C6     C7      1.380   .     A
C6     H35     1.082   .     S
C7     H39     1.067   .     S
C8     C25     1.392   .     A
C8     H36     1.076   .     S
C9     H29     1.083   .     S
C9     C25     1.395   .     A
C9     C24     1.390   .     A
C10    C12     1.482   .     S
C10    C26     1.401   .     A
C11    H40     1.084   .     S
C11    C17     1.398   .     A
C11    C181    1.370   .     S
C12    O46     1.290   .     A
C12    O45     1.310   .     A
C13    C14     1.398   .     A
C13    H30     1.084   .     S
C13    C347    1.370   1_545 S
C14    C22     1.422   .     S
C14    C15     1.397   .     A
C15    H31     1.082   .     S
C15    C352    1.369   1_545 S
C16    H32     1.083   .     S
C16    C17     1.397   .     A
C16    C183    1.369   .     S
C18    N42     1.361   .     A
C18    H33     1.082   .     S
C18    C75     1.417   .     S
C19    Br53    1.911   .     S
C19    N41     1.378   .     A
C19    C130    1.417   1_455 S
C20    Br54    1.909   .     S
C20    N41     1.375   .     A
C20    C133    1.412   1_455 S
C21    H34     1.077   .     S
C21    N42     1.361   .     A
C21    C76     1.412   .     S
C22    O48     1.287   .     A
C22    O47     1.288   .     A
C23    C25     1.442   .     S
C23    O49     1.291   .     A
C23    O50     1.294   .     A
C24    C509    1.408   1_554 S
C24    Br559   1.921   1_554 S
C26    H37     1.081   .     S
C26    C27     1.395   .     A
C27    C532    1.395   .     S
C27    Br560   1.911   .     S
C28    H38     1.077   .     S
C28    C506    1.416   1_554 S
C28    C531    1.395   1_554 S
N41    Zn51    2.019   .     S
N42    Zn52    2.019   .     S
O43    Zn51    2.002   .     S
O44    Zn52    2.001   .     S
O45    Zn51    1.985   .     S
O46    Zn52    1.963   .     S
O47    Zn51    2.001   .     S
O48    Zn52    2.002   .     S
O49    Zn51    1.963   .     S
O50    Zn52    1.985   .     S
Br55   C528    1.921   .     S
Br56   C531    1.911   1_554 S
C57    O100    1.287   .     A
C57    C73     1.421   .     S
C57    O99     1.288   .     A
C58    C59     1.403   .     A
C58    C564    1.422   .     S
C58    C588    1.416   .     S
C59    C66     1.422   .     A
C59    C63     1.407   .     A
C60    C64     1.385   .     A
C60    C562    1.422   1_554 S
C60    C565    1.425   1_554 S
C61    C62     1.388   .     A
C61    C564    1.425   .     S
C61    C584    1.408   .     S
C62    C63     1.380   .     A
C62    H91     1.082   .     S
C63    H95     1.067   .     S
C64    C81     1.392   .     A
C64    H92     1.076   .     S
C65    H85     1.083   .     S
C65    C81     1.395   .     A
C65    C80     1.390   .     A
C66    C68     1.482   .     S
C66    C82     1.401   .     A
C67    H96     1.084   .     S
C67    C73     1.398   .     A
C67    C237    1.370   .     S
C68    O102    1.290   .     A
C68    O101    1.310   .     A
C69    C70     1.398   .     A
C69    H86     1.084   .     S
C69    C403    1.370   1_545 S
C70    C78     1.422   .     S
C70    C71     1.397   .     A
C71    H87     1.082   .     S
C71    C408    1.369   1_545 S
C72    H88     1.083   .     S
C72    C73     1.397   .     A
C72    C239    1.369   .     S
C74    N98     1.361   .     A
C74    H89     1.082   .     S
C74    C131    1.417   .     S
C75    Br109   1.911   .     S
C75    N97     1.378   .     A
C76    Br110   1.909   .     S
C76    N97     1.375   .     A
C77    H90     1.077   .     S
C77    N98     1.361   .     A
C77    C132    1.412   .     S
C78    O104    1.287   .     A
C78    O103    1.288   .     A
C79    C81     1.442   .     S
C79    O105    1.291   .     A
C79    O106    1.294   .     A
C80    C565    1.408   1_554 S
C80    Br615   1.921   1_554 S
C82    H93     1.081   .     S
C82    C83     1.395   .     A
C83    C588    1.395   .     S
C83    Br616   1.911   .     S
C84    H94     1.077   .     S
C84    C562    1.416   1_554 S
C84    C587    1.395   1_554 S
N97    Zn107   2.019   .     S
N98    Zn108   2.019   .     S
O99    Zn107   2.002   .     S
O100   Zn108   2.001   .     S
O101   Zn107   1.985   .     S
O102   Zn108   1.963   .     S
O103   Zn107   2.001   .     S
O104   Zn108   2.002   .     S
O105   Zn107   1.963   .     S
O106   Zn108   1.985   .     S
Br111  C584    1.921   .     S
Br112  C587    1.911   1_554 S
C113   O156    1.287   .     A
C113   C129    1.421   .     S
C113   O155    1.288   .     A
C114   C115    1.403   .     A
C114   C620    1.422   .     S
C114   C644    1.416   .     S
C115   C122    1.422   .     A
C115   C119    1.407   .     A
C116   C120    1.385   .     A
C116   C618    1.422   1_554 S
C116   C621    1.425   1_554 S
C117   C118    1.388   .     A
C117   C620    1.425   .     S
C117   C640    1.408   .     S
C118   C119    1.380   .     A
C118   H147    1.082   .     S
C119   H151    1.067   .     S
C120   C137    1.392   .     A
C120   H148    1.076   .     S
C121   H141    1.083   .     S
C121   C137    1.395   .     A
C121   C136    1.390   .     A
C122   C124    1.482   .     S
C122   C138    1.401   .     A
C123   H152    1.084   .     S
C123   C129    1.398   .     A
C123   C293    1.370   .     S
C124   O158    1.290   .     A
C124   O157    1.310   .     A
C125   C126    1.398   .     A
C125   H142    1.084   .     S
C125   C459    1.370   1_545 S
C126   C134    1.422   .     S
C126   C127    1.397   .     A
C127   H143    1.082   .     S
C127   C464    1.369   1_545 S
C128   H144    1.083   .     S
C128   C129    1.397   .     A
C128   C295    1.369   .     S
C130   N154    1.361   .     A
C130   H145    1.082   .     S
C130   C19     1.417   1_655 S
C131   Br165   1.911   .     S
C131   N153    1.378   .     A
C132   Br166   1.909   .     S
C132   N153    1.375   .     A
C133   H146    1.077   .     S
C133   N154    1.361   .     A
C133   C20     1.412   1_655 S
C134   O160    1.287   .     A
C134   O159    1.288   .     A
C135   C137    1.442   .     S
C135   O161    1.291   .     A
C135   O162    1.294   .     A
C136   C621    1.408   1_554 S
C136   Br671   1.921   1_554 S
C138   H149    1.081   .     S
C138   C139    1.395   .     A
C139   C644    1.395   .     S
C139   Br672   1.911   .     S
C140   H150    1.077   .     S
C140   C618    1.416   1_554 S
C140   C643    1.395   1_554 S
N153   Zn163   2.019   .     S
N154   Zn164   2.019   .     S
O155   Zn163   2.002   .     S
O156   Zn164   2.001   .     S
O157   Zn163   1.985   .     S
O158   Zn164   1.963   .     S
O159   Zn163   2.001   .     S
O160   Zn164   2.002   .     S
O161   Zn163   1.963   .     S
O162   Zn164   1.985   .     S
Br167  C640    1.921   .     S
Br168  C643    1.911   1_554 S
C169   O212    1.287   .     A
C169   C185    1.421   .     S
C169   O211    1.288   .     A
C170   C171    1.403   .     A
C170   C676    1.422   .     S
C170   C700    1.416   .     S
C171   C178    1.422   .     A
C171   C175    1.407   .     A
C172   C176    1.385   .     A
C172   C674    1.422   1_554 S
C172   C677    1.425   1_554 S
C173   C174    1.388   .     A
C173   C676    1.425   .     S
C173   C696    1.408   .     S
C174   C175    1.380   .     A
C174   H203    1.082   .     S
C175   H207    1.067   .     S
C176   C193    1.392   .     A
C176   H204    1.076   .     S
C177   H197    1.083   .     S
C177   C193    1.395   .     A
C177   C192    1.390   .     A
C178   C180    1.482   .     S
C178   C194    1.401   .     A
C179   H208    1.084   .     S
C179   C185    1.398   .     A
C179   C349    1.370   .     S
C180   O214    1.290   .     A
C180   O213    1.310   .     A
C181   C182    1.398   .     A
C181   H198    1.084   .     S
C182   C190    1.422   .     S
C182   C183    1.397   .     A
C183   H199    1.082   .     S
C184   H200    1.083   .     S
C184   C185    1.397   .     A
C184   C351    1.369   .     S
C186   N210    1.361   .     A
C186   H201    1.082   .     S
C186   C243    1.417   .     S
C187   Br221   1.911   .     S
C187   N209    1.378   .     A
C187   C298    1.417   1_455 S
C188   Br222   1.909   .     S
C188   N209    1.375   .     A
C188   C301    1.412   1_455 S
C189   H202    1.077   .     S
C189   N210    1.361   .     A
C189   C244    1.412   .     S
C190   O216    1.287   .     A
C190   O215    1.288   .     A
C191   C193    1.442   .     S
C191   O217    1.291   .     A
C191   O218    1.294   .     A
C192   C677    1.408   1_554 S
C192   Br727   1.921   1_554 S
C194   H205    1.081   .     S
C194   C195    1.395   .     A
C195   C700    1.395   .     S
C195   Br728   1.911   .     S
C196   H206    1.077   .     S
C196   C674    1.416   1_554 S
C196   C699    1.395   1_554 S
N209   Zn219   2.019   .     S
N210   Zn220   2.019   .     S
O211   Zn219   2.002   .     S
O212   Zn220   2.001   .     S
O213   Zn219   1.985   .     S
O214   Zn220   1.963   .     S
O215   Zn219   2.001   .     S
O216   Zn220   2.002   .     S
O217   Zn219   1.963   .     S
O218   Zn220   1.985   .     S
Br223  C696    1.921   .     S
Br224  C699    1.911   1_554 S
C225   O268    1.287   .     A
C225   C241    1.421   .     S
C225   O267    1.288   .     A
C226   C227    1.403   .     A
C226   C732    1.422   .     S
C226   C756    1.416   .     S
C227   C234    1.422   .     A
C227   C231    1.407   .     A
C228   C232    1.385   .     A
C228   C730    1.422   1_554 S
C228   C733    1.425   1_554 S
C229   C230    1.388   .     A
C229   C732    1.425   .     S
C229   C752    1.408   .     S
C230   C231    1.380   .     A
C230   H259    1.082   .     S
C231   H263    1.067   .     S
C232   C249    1.392   .     A
C232   H260    1.076   .     S
C233   H253    1.083   .     S
C233   C249    1.395   .     A
C233   C248    1.390   .     A
C234   C236    1.482   .     S
C234   C250    1.401   .     A
C235   H264    1.084   .     S
C235   C241    1.398   .     A
C235   C405    1.370   .     S
C236   O270    1.290   .     A
C236   O269    1.310   .     A
C237   C238    1.398   .     A
C237   H254    1.084   .     S
C238   C246    1.422   .     S
C238   C239    1.397   .     A
C239   H255    1.082   .     S
C240   H256    1.083   .     S
C240   C241    1.397   .     A
C240   C407    1.369   .     S
C242   N266    1.361   .     A
C242   H257    1.082   .     S
C242   C299    1.417   .     S
C243   Br277   1.911   .     S
C243   N265    1.378   .     A
C244   Br278   1.909   .     S
C244   N265    1.375   .     A
C245   H258    1.077   .     S
C245   N266    1.361   .     A
C245   C300    1.412   .     S
C246   O272    1.287   .     A
C246   O271    1.288   .     A
C247   C249    1.442   .     S
C247   O273    1.291   .     A
C247   O274    1.294   .     A
C248   C733    1.408   1_554 S
C248   Br783   1.921   1_554 S
C250   H261    1.081   .     S
C250   C251    1.395   .     A
C251   C756    1.395   .     S
C251   Br784   1.911   .     S
C252   H262    1.077   .     S
C252   C730    1.416   1_554 S
C252   C755    1.395   1_554 S
N265   Zn275   2.019   .     S
N266   Zn276   2.019   .     S
O267   Zn275   2.002   .     S
O268   Zn276   2.001   .     S
O269   Zn275   1.985   .     S
O270   Zn276   1.963   .     S
O271   Zn275   2.001   .     S
O272   Zn276   2.002   .     S
O273   Zn275   1.963   .     S
O274   Zn276   1.985   .     S
Br279  C752    1.921   .     S
Br280  C755    1.911   1_554 S
C281   O324    1.287   .     A
C281   C297    1.421   .     S
C281   O323    1.288   .     A
C282   C283    1.403   .     A
C282   C788    1.422   .     S
C282   C812    1.416   .     S
C283   C290    1.422   .     A
C283   C287    1.407   .     A
C284   C288    1.385   .     A
C284   C786    1.422   1_554 S
C284   C789    1.425   1_554 S
C285   C286    1.388   .     A
C285   C788    1.425   .     S
C285   C808    1.408   .     S
C286   C287    1.380   .     A
C286   H315    1.082   .     S
C287   H319    1.067   .     S
C288   C305    1.392   .     A
C288   H316    1.076   .     S
C289   H309    1.083   .     S
C289   C305    1.395   .     A
C289   C304    1.390   .     A
C290   C292    1.482   .     S
C290   C306    1.401   .     A
C291   H320    1.084   .     S
C291   C297    1.398   .     A
C291   C461    1.370   .     S
C292   O326    1.290   .     A
C292   O325    1.310   .     A
C293   C294    1.398   .     A
C293   H310    1.084   .     S
C294   C302    1.422   .     S
C294   C295    1.397   .     A
C295   H311    1.082   .     S
C296   H312    1.083   .     S
C296   C297    1.397   .     A
C296   C463    1.369   .     S
C298   N322    1.361   .     A
C298   H313    1.082   .     S
C298   C187    1.417   1_655 S
C299   Br333   1.911   .     S
C299   N321    1.378   .     A
C300   Br334   1.909   .     S
C300   N321    1.375   .     A
C301   H314    1.077   .     S
C301   N322    1.361   .     A
C301   C188    1.412   1_655 S
C302   O328    1.287   .     A
C302   O327    1.288   .     A
C303   C305    1.442   .     S
C303   O329    1.291   .     A
C303   O330    1.294   .     A
C304   C789    1.408   1_554 S
C304   Br839   1.921   1_554 S
C306   H317    1.081   .     S
C306   C307    1.395   .     A
C307   C812    1.395   .     S
C307   Br840   1.911   .     S
C308   H318    1.077   .     S
C308   C786    1.416   1_554 S
C308   C811    1.395   1_554 S
N321   Zn331   2.019   .     S
N322   Zn332   2.019   .     S
O323   Zn331   2.002   .     S
O324   Zn332   2.001   .     S
O325   Zn331   1.985   .     S
O326   Zn332   1.963   .     S
O327   Zn331   2.001   .     S
O328   Zn332   2.002   .     S
O329   Zn331   1.963   .     S
O330   Zn332   1.985   .     S
Br335  C808    1.921   .     S
Br336  C811    1.911   1_554 S
C337   O380    1.287   .     A
C337   C353    1.421   .     S
C337   O379    1.288   .     A
C338   C339    1.403   .     A
C338   C844    1.422   .     S
C338   C868    1.416   .     S
C339   C346    1.422   .     A
C339   C343    1.407   .     A
C340   C344    1.385   .     A
C340   C842    1.422   1_554 S
C340   C845    1.425   1_554 S
C341   C342    1.388   .     A
C341   C844    1.425   .     S
C341   C864    1.408   .     S
C342   C343    1.380   .     A
C342   H371    1.082   .     S
C343   H375    1.067   .     S
C344   C361    1.392   .     A
C344   H372    1.076   .     S
C345   H365    1.083   .     S
C345   C361    1.395   .     A
C345   C360    1.390   .     A
C346   C348    1.482   .     S
C346   C362    1.401   .     A
C347   H376    1.084   .     S
C347   C353    1.398   .     A
C347   C13     1.370   1_565 S
C348   O382    1.290   .     A
C348   O381    1.310   .     A
C349   C350    1.398   .     A
C349   H366    1.084   .     S
C350   C358    1.422   .     S
C350   C351    1.397   .     A
C351   H367    1.082   .     S
C352   H368    1.083   .     S
C352   C353    1.397   .     A
C352   C15     1.369   1_565 S
C354   N378    1.361   .     A
C354   H369    1.082   .     S
C354   C411    1.417   .     S
C355   Br389   1.911   .     S
C355   N377    1.378   .     A
C355   C466    1.417   1_455 S
C356   Br390   1.909   .     S
C356   N377    1.375   .     A
C356   C469    1.412   1_455 S
C357   H370    1.077   .     S
C357   N378    1.361   .     A
C357   C412    1.412   .     S
C358   O384    1.287   .     A
C358   O383    1.288   .     A
C359   C361    1.442   .     S
C359   O385    1.291   .     A
C359   O386    1.294   .     A
C360   C845    1.408   1_554 S
C360   Br895   1.921   1_554 S
C362   H373    1.081   .     S
C362   C363    1.395   .     A
C363   C868    1.395   .     S
C363   Br896   1.911   .     S
C364   H374    1.077   .     S
C364   C842    1.416   1_554 S
C364   C867    1.395   1_554 S
N377   Zn387   2.019   .     S
N378   Zn388   2.019   .     S
O379   Zn387   2.002   .     S
O380   Zn388   2.001   .     S
O381   Zn387   1.985   .     S
O382   Zn388   1.963   .     S
O383   Zn387   2.001   .     S
O384   Zn388   2.002   .     S
O385   Zn387   1.963   .     S
O386   Zn388   1.985   .     S
Br391  C864    1.921   .     S
Br392  C867    1.911   1_554 S
C393   O436    1.287   .     A
C393   C409    1.421   .     S
C393   O435    1.288   .     A
C394   C395    1.403   .     A
C394   C900    1.422   .     S
C394   C924    1.416   .     S
C395   C402    1.422   .     A
C395   C399    1.407   .     A
C396   C400    1.385   .     A
C396   C898    1.422   1_554 S
C396   C901    1.425   1_554 S
C397   C398    1.388   .     A
C397   C900    1.425   .     S
C397   C920    1.408   .     S
C398   C399    1.380   .     A
C398   H427    1.082   .     S
C399   H431    1.067   .     S
C400   C417    1.392   .     A
C400   H428    1.076   .     S
C401   H421    1.083   .     S
C401   C417    1.395   .     A
C401   C416    1.390   .     A
C402   C404    1.482   .     S
C402   C418    1.401   .     A
C403   H432    1.084   .     S
C403   C409    1.398   .     A
C403   C69     1.370   1_565 S
C404   O438    1.290   .     A
C404   O437    1.310   .     A
C405   C406    1.398   .     A
C405   H422    1.084   .     S
C406   C414    1.422   .     S
C406   C407    1.397   .     A
C407   H423    1.082   .     S
C408   H424    1.083   .     S
C408   C409    1.397   .     A
C408   C71     1.369   1_565 S
C410   N434    1.361   .     A
C410   H425    1.082   .     S
C410   C467    1.417   .     S
C411   Br445   1.911   .     S
C411   N433    1.378   .     A
C412   Br446   1.909   .     S
C412   N433    1.375   .     A
C413   H426    1.077   .     S
C413   N434    1.361   .     A
C413   C468    1.412   .     S
C414   O440    1.287   .     A
C414   O439    1.288   .     A
C415   C417    1.442   .     S
C415   O441    1.291   .     A
C415   O442    1.294   .     A
C416   C901    1.408   1_554 S
C416   Br951   1.921   1_554 S
C418   H429    1.081   .     S
C418   C419    1.395   .     A
C419   C924    1.395   .     S
C419   Br952   1.911   .     S
C420   H430    1.077   .     S
C420   C898    1.416   1_554 S
C420   C923    1.395   1_554 S
N433   Zn443   2.019   .     S
N434   Zn444   2.019   .     S
O435   Zn443   2.002   .     S
O436   Zn444   2.001   .     S
O437   Zn443   1.985   .     S
O438   Zn444   1.963   .     S
O439   Zn443   2.001   .     S
O440   Zn444   2.002   .     S
O441   Zn443   1.963   .     S
O442   Zn444   1.985   .     S
Br447  C920    1.921   .     S
Br448  C923    1.911   1_554 S
C449   O492    1.287   .     A
C449   C465    1.421   .     S
C449   O491    1.288   .     A
C450   C451    1.403   .     A
C450   C956    1.422   .     S
C450   C980    1.416   .     S
C451   C458    1.422   .     A
C451   C455    1.407   .     A
C452   C456    1.385   .     A
C452   C954    1.422   1_554 S
C452   C957    1.425   1_554 S
C453   C454    1.388   .     A
C453   C956    1.425   .     S
C453   C976    1.408   .     S
C454   C455    1.380   .     A
C454   H483    1.082   .     S
C455   H487    1.067   .     S
C456   C473    1.392   .     A
C456   H484    1.076   .     S
C457   H477    1.083   .     S
C457   C473    1.395   .     A
C457   C472    1.390   .     A
C458   C460    1.482   .     S
C458   C474    1.401   .     A
C459   H488    1.084   .     S
C459   C465    1.398   .     A
C459   C125    1.370   1_565 S
C460   O494    1.290   .     A
C460   O493    1.310   .     A
C461   C462    1.398   .     A
C461   H478    1.084   .     S
C462   C470    1.422   .     S
C462   C463    1.397   .     A
C463   H479    1.082   .     S
C464   H480    1.083   .     S
C464   C465    1.397   .     A
C464   C127    1.369   1_565 S
C466   N490    1.361   .     A
C466   H481    1.082   .     S
C466   C355    1.417   1_655 S
C467   Br501   1.911   .     S
C467   N489    1.378   .     A
C468   Br502   1.909   .     S
C468   N489    1.375   .     A
C469   H482    1.077   .     S
C469   N490    1.361   .     A
C469   C356    1.412   1_655 S
C470   O496    1.287   .     A
C470   O495    1.288   .     A
C471   C473    1.442   .     S
C471   O497    1.291   .     A
C471   O498    1.294   .     A
C472   C957    1.408   1_554 S
C472   Br1007  1.921   1_554 S
C474   H485    1.081   .     S
C474   C475    1.395   .     A
C475   C980    1.395   .     S
C475   Br1008  1.911   .     S
C476   H486    1.077   .     S
C476   C954    1.416   1_554 S
C476   C979    1.395   1_554 S
N489   Zn499   2.019   .     S
N490   Zn500   2.019   .     S
O491   Zn499   2.002   .     S
O492   Zn500   2.001   .     S
O493   Zn499   1.985   .     S
O494   Zn500   1.963   .     S
O495   Zn499   2.001   .     S
O496   Zn500   2.002   .     S
O497   Zn499   1.963   .     S
O498   Zn500   1.985   .     S
Br503  C976    1.921   .     S
Br504  C979    1.911   1_554 S
C505   O548    1.287   .     A
C505   C521    1.421   .     S
C505   O547    1.288   .     A
C506   C507    1.403   .     A
C506   C4      1.422   1_556 S
C506   C28     1.416   1_556 S
C507   C514    1.422   .     A
C507   C511    1.407   .     A
C508   C512    1.385   .     A
C509   C510    1.388   .     A
C509   C4      1.425   1_556 S
C509   C24     1.408   1_556 S
C510   C511    1.380   .     A
C510   H539    1.082   .     S
C511   H543    1.067   .     S
C512   C529    1.392   .     A
C512   H540    1.076   .     S
C513   H533    1.083   .     S
C513   C529    1.395   .     A
C513   C528    1.390   .     A
C514   C516    1.482   .     S
C514   C530    1.401   .     A
C515   H544    1.084   .     S
C515   C521    1.398   .     A
C515   C685    1.370   .     S
C516   O550    1.290   .     A
C516   O549    1.310   .     A
C517   C518    1.398   .     A
C517   H534    1.084   .     S
C517   C851    1.370   1_545 S
C518   C526    1.422   .     S
C518   C519    1.397   .     A
C519   H535    1.082   .     S
C519   C856    1.369   1_545 S
C520   H536    1.083   .     S
C520   C521    1.397   .     A
C520   C687    1.369   .     S
C522   N546    1.361   .     A
C522   H537    1.082   .     S
C522   C579    1.417   .     S
C523   Br557   1.911   .     S
C523   N545    1.378   .     A
C523   C634    1.417   1_455 S
C524   Br558   1.909   .     S
C524   N545    1.375   .     A
C524   C637    1.412   1_455 S
C525   H538    1.077   .     S
C525   N546    1.361   .     A
C525   C580    1.412   .     S
C526   O552    1.287   .     A
C526   O551    1.288   .     A
C527   C529    1.442   .     S
C527   O553    1.291   .     A
C527   O554    1.294   .     A
C530   H541    1.081   .     S
C530   C531    1.395   .     A
C531   C28     1.395   1_556 S
C531   Br56    1.911   1_556 S
C532   H542    1.077   .     S
N545   Zn555   2.019   .     S
N546   Zn556   2.019   .     S
O547   Zn555   2.002   .     S
O548   Zn556   2.001   .     S
O549   Zn555   1.985   .     S
O550   Zn556   1.963   .     S
O551   Zn555   2.001   .     S
O552   Zn556   2.002   .     S
O553   Zn555   1.963   .     S
O554   Zn556   1.985   .     S
Br559  C24     1.921   1_556 S
C561   O604    1.287   .     A
C561   C577    1.421   .     S
C561   O603    1.288   .     A
C562   C563    1.403   .     A
C562   C60     1.422   1_556 S
C562   C84     1.416   1_556 S
C563   C570    1.422   .     A
C563   C567    1.407   .     A
C564   C568    1.385   .     A
C565   C566    1.388   .     A
C565   C60     1.425   1_556 S
C565   C80     1.408   1_556 S
C566   C567    1.380   .     A
C566   H595    1.082   .     S
C567   H599    1.067   .     S
C568   C585    1.392   .     A
C568   H596    1.076   .     S
C569   H589    1.083   .     S
C569   C585    1.395   .     A
C569   C584    1.390   .     A
C570   C572    1.482   .     S
C570   C586    1.401   .     A
C571   H600    1.084   .     S
C571   C577    1.398   .     A
C571   C741    1.370   .     S
C572   O606    1.290   .     A
C572   O605    1.310   .     A
C573   C574    1.398   .     A
C573   H590    1.084   .     S
C573   C907    1.370   1_545 S
C574   C582    1.422   .     S
C574   C575    1.397   .     A
C575   H591    1.082   .     S
C575   C912    1.369   1_545 S
C576   H592    1.083   .     S
C576   C577    1.397   .     A
C576   C743    1.369   .     S
C578   N602    1.361   .     A
C578   H593    1.082   .     S
C578   C635    1.417   .     S
C579   Br613   1.911   .     S
C579   N601    1.378   .     A
C580   Br614   1.909   .     S
C580   N601    1.375   .     A
C581   H594    1.077   .     S
C581   N602    1.361   .     A
C581   C636    1.412   .     S
C582   O608    1.287   .     A
C582   O607    1.288   .     A
C583   C585    1.442   .     S
C583   O609    1.291   .     A
C583   O610    1.294   .     A
C586   H597    1.081   .     S
C586   C587    1.395   .     A
C587   C84     1.395   1_556 S
C587   Br112   1.911   1_556 S
C588   H598    1.077   .     S
N601   Zn611   2.019   .     S
N602   Zn612   2.019   .     S
O603   Zn611   2.002   .     S
O604   Zn612   2.001   .     S
O605   Zn611   1.985   .     S
O606   Zn612   1.963   .     S
O607   Zn611   2.001   .     S
O608   Zn612   2.002   .     S
O609   Zn611   1.963   .     S
O610   Zn612   1.985   .     S
Br615  C80     1.921   1_556 S
C617   O660    1.287   .     A
C617   C633    1.421   .     S
C617   O659    1.288   .     A
C618   C619    1.403   .     A
C618   C116    1.422   1_556 S
C618   C140    1.416   1_556 S
C619   C626    1.422   .     A
C619   C623    1.407   .     A
C620   C624    1.385   .     A
C621   C622    1.388   .     A
C621   C116    1.425   1_556 S
C621   C136    1.408   1_556 S
C622   C623    1.380   .     A
C622   H651    1.082   .     S
C623   H655    1.067   .     S
C624   C641    1.392   .     A
C624   H652    1.076   .     S
C625   H645    1.083   .     S
C625   C641    1.395   .     A
C625   C640    1.390   .     A
C626   C628    1.482   .     S
C626   C642    1.401   .     A
C627   H656    1.084   .     S
C627   C633    1.398   .     A
C627   C797    1.370   .     S
C628   O662    1.290   .     A
C628   O661    1.310   .     A
C629   C630    1.398   .     A
C629   H646    1.084   .     S
C629   C963    1.370   1_545 S
C630   C638    1.422   .     S
C630   C631    1.397   .     A
C631   H647    1.082   .     S
C631   C968    1.369   1_545 S
C632   H648    1.083   .     S
C632   C633    1.397   .     A
C632   C799    1.369   .     S
C634   N658    1.361   .     A
C634   H649    1.082   .     S
C634   C523    1.417   1_655 S
C635   Br669   1.911   .     S
C635   N657    1.378   .     A
C636   Br670   1.909   .     S
C636   N657    1.375   .     A
C637   H650    1.077   .     S
C637   N658    1.361   .     A
C637   C524    1.412   1_655 S
C638   O664    1.287   .     A
C638   O663    1.288   .     A
C639   C641    1.442   .     S
C639   O665    1.291   .     A
C639   O666    1.294   .     A
C642   H653    1.081   .     S
C642   C643    1.395   .     A
C643   C140    1.395   1_556 S
C643   Br168   1.911   1_556 S
C644   H654    1.077   .     S
N657   Zn667   2.019   .     S
N658   Zn668   2.019   .     S
O659   Zn667   2.002   .     S
O660   Zn668   2.001   .     S
O661   Zn667   1.985   .     S
O662   Zn668   1.963   .     S
O663   Zn667   2.001   .     S
O664   Zn668   2.002   .     S
O665   Zn667   1.963   .     S
O666   Zn668   1.985   .     S
Br671  C136    1.921   1_556 S
C673   O716    1.287   .     A
C673   C689    1.421   .     S
C673   O715    1.288   .     A
C674   C675    1.403   .     A
C674   C172    1.422   1_556 S
C674   C196    1.416   1_556 S
C675   C682    1.422   .     A
C675   C679    1.407   .     A
C676   C680    1.385   .     A
C677   C678    1.388   .     A
C677   C172    1.425   1_556 S
C677   C192    1.408   1_556 S
C678   C679    1.380   .     A
C678   H707    1.082   .     S
C679   H711    1.067   .     S
C680   C697    1.392   .     A
C680   H708    1.076   .     S
C681   H701    1.083   .     S
C681   C697    1.395   .     A
C681   C696    1.390   .     A
C682   C684    1.482   .     S
C682   C698    1.401   .     A
C683   H712    1.084   .     S
C683   C689    1.398   .     A
C683   C853    1.370   .     S
C684   O718    1.290   .     A
C684   O717    1.310   .     A
C685   C686    1.398   .     A
C685   H702    1.084   .     S
C686   C694    1.422   .     S
C686   C687    1.397   .     A
C687   H703    1.082   .     S
C688   H704    1.083   .     S
C688   C689    1.397   .     A
C688   C855    1.369   .     S
C690   N714    1.361   .     A
C690   H705    1.082   .     S
C690   C747    1.417   .     S
C691   Br725   1.911   .     S
C691   N713    1.378   .     A
C691   C802    1.417   1_455 S
C692   Br726   1.909   .     S
C692   N713    1.375   .     A
C692   C805    1.412   1_455 S
C693   H706    1.077   .     S
C693   N714    1.361   .     A
C693   C748    1.412   .     S
C694   O720    1.287   .     A
C694   O719    1.288   .     A
C695   C697    1.442   .     S
C695   O721    1.291   .     A
C695   O722    1.294   .     A
C698   H709    1.081   .     S
C698   C699    1.395   .     A
C699   C196    1.395   1_556 S
C699   Br224   1.911   1_556 S
C700   H710    1.077   .     S
N713   Zn723   2.019   .     S
N714   Zn724   2.019   .     S
O715   Zn723   2.002   .     S
O716   Zn724   2.001   .     S
O717   Zn723   1.985   .     S
O718   Zn724   1.963   .     S
O719   Zn723   2.001   .     S
O720   Zn724   2.002   .     S
O721   Zn723   1.963   .     S
O722   Zn724   1.985   .     S
Br727  C192    1.921   1_556 S
C729   O772    1.287   .     A
C729   C745    1.421   .     S
C729   O771    1.288   .     A
C730   C731    1.403   .     A
C730   C228    1.422   1_556 S
C730   C252    1.416   1_556 S
C731   C738    1.422   .     A
C731   C735    1.407   .     A
C732   C736    1.385   .     A
C733   C734    1.388   .     A
C733   C228    1.425   1_556 S
C733   C248    1.408   1_556 S
C734   C735    1.380   .     A
C734   H763    1.082   .     S
C735   H767    1.067   .     S
C736   C753    1.392   .     A
C736   H764    1.076   .     S
C737   H757    1.083   .     S
C737   C753    1.395   .     A
C737   C752    1.390   .     A
C738   C740    1.482   .     S
C738   C754    1.401   .     A
C739   H768    1.084   .     S
C739   C745    1.398   .     A
C739   C909    1.370   .     S
C740   O774    1.290   .     A
C740   O773    1.310   .     A
C741   C742    1.398   .     A
C741   H758    1.084   .     S
C742   C750    1.422   .     S
C742   C743    1.397   .     A
C743   H759    1.082   .     S
C744   H760    1.083   .     S
C744   C745    1.397   .     A
C744   C911    1.369   .     S
C746   N770    1.361   .     A
C746   H761    1.082   .     S
C746   C803    1.417   .     S
C747   Br781   1.911   .     S
C747   N769    1.378   .     A
C748   Br782   1.909   .     S
C748   N769    1.375   .     A
C749   H762    1.077   .     S
C749   N770    1.361   .     A
C749   C804    1.412   .     S
C750   O776    1.287   .     A
C750   O775    1.288   .     A
C751   C753    1.442   .     S
C751   O777    1.291   .     A
C751   O778    1.294   .     A
C754   H765    1.081   .     S
C754   C755    1.395   .     A
C755   C252    1.395   1_556 S
C755   Br280   1.911   1_556 S
C756   H766    1.077   .     S
N769   Zn779   2.019   .     S
N770   Zn780   2.019   .     S
O771   Zn779   2.002   .     S
O772   Zn780   2.001   .     S
O773   Zn779   1.985   .     S
O774   Zn780   1.963   .     S
O775   Zn779   2.001   .     S
O776   Zn780   2.002   .     S
O777   Zn779   1.963   .     S
O778   Zn780   1.985   .     S
Br783  C248    1.921   1_556 S
C785   O828    1.287   .     A
C785   C801    1.421   .     S
C785   O827    1.288   .     A
C786   C787    1.403   .     A
C786   C284    1.422   1_556 S
C786   C308    1.416   1_556 S
C787   C794    1.422   .     A
C787   C791    1.407   .     A
C788   C792    1.385   .     A
C789   C790    1.388   .     A
C789   C284    1.425   1_556 S
C789   C304    1.408   1_556 S
C790   C791    1.380   .     A
C790   H819    1.082   .     S
C791   H823    1.067   .     S
C792   C809    1.392   .     A
C792   H820    1.076   .     S
C793   H813    1.083   .     S
C793   C809    1.395   .     A
C793   C808    1.390   .     A
C794   C796    1.482   .     S
C794   C810    1.401   .     A
C795   H824    1.084   .     S
C795   C801    1.398   .     A
C795   C965    1.370   .     S
C796   O830    1.290   .     A
C796   O829    1.310   .     A
C797   C798    1.398   .     A
C797   H814    1.084   .     S
C798   C806    1.422   .     S
C798   C799    1.397   .     A
C799   H815    1.082   .     S
C800   H816    1.083   .     S
C800   C801    1.397   .     A
C800   C967    1.369   .     S
C802   N826    1.361   .     A
C802   H817    1.082   .     S
C802   C691    1.417   1_655 S
C803   Br837   1.911   .     S
C803   N825    1.378   .     A
C804   Br838   1.909   .     S
C804   N825    1.375   .     A
C805   H818    1.077   .     S
C805   N826    1.361   .     A
C805   C692    1.412   1_655 S
C806   O832    1.287   .     A
C806   O831    1.288   .     A
C807   C809    1.442   .     S
C807   O833    1.291   .     A
C807   O834    1.294   .     A
C810   H821    1.081   .     S
C810   C811    1.395   .     A
C811   C308    1.395   1_556 S
C811   Br336   1.911   1_556 S
C812   H822    1.077   .     S
N825   Zn835   2.019   .     S
N826   Zn836   2.019   .     S
O827   Zn835   2.002   .     S
O828   Zn836   2.001   .     S
O829   Zn835   1.985   .     S
O830   Zn836   1.963   .     S
O831   Zn835   2.001   .     S
O832   Zn836   2.002   .     S
O833   Zn835   1.963   .     S
O834   Zn836   1.985   .     S
Br839  C304    1.921   1_556 S
C841   O884    1.287   .     A
C841   C857    1.421   .     S
C841   O883    1.288   .     A
C842   C843    1.403   .     A
C842   C340    1.422   1_556 S
C842   C364    1.416   1_556 S
C843   C850    1.422   .     A
C843   C847    1.407   .     A
C844   C848    1.385   .     A
C845   C846    1.388   .     A
C845   C340    1.425   1_556 S
C845   C360    1.408   1_556 S
C846   C847    1.380   .     A
C846   H875    1.082   .     S
C847   H879    1.067   .     S
C848   C865    1.392   .     A
C848   H876    1.076   .     S
C849   H869    1.083   .     S
C849   C865    1.395   .     A
C849   C864    1.390   .     A
C850   C852    1.482   .     S
C850   C866    1.401   .     A
C851   H880    1.084   .     S
C851   C857    1.398   .     A
C851   C517    1.370   1_565 S
C852   O886    1.290   .     A
C852   O885    1.310   .     A
C853   C854    1.398   .     A
C853   H870    1.084   .     S
C854   C862    1.422   .     S
C854   C855    1.397   .     A
C855   H871    1.082   .     S
C856   H872    1.083   .     S
C856   C857    1.397   .     A
C856   C519    1.369   1_565 S
C858   N882    1.361   .     A
C858   H873    1.082   .     S
C858   C915    1.417   .     S
C859   Br893   1.911   .     S
C859   N881    1.378   .     A
C859   C970    1.417   1_455 S
C860   Br894   1.909   .     S
C860   N881    1.375   .     A
C860   C973    1.412   1_455 S
C861   H874    1.077   .     S
C861   N882    1.361   .     A
C861   C916    1.412   .     S
C862   O888    1.287   .     A
C862   O887    1.288   .     A
C863   C865    1.442   .     S
C863   O889    1.291   .     A
C863   O890    1.294   .     A
C866   H877    1.081   .     S
C866   C867    1.395   .     A
C867   C364    1.395   1_556 S
C867   Br392   1.911   1_556 S
C868   H878    1.077   .     S
N881   Zn891   2.019   .     S
N882   Zn892   2.019   .     S
O883   Zn891   2.002   .     S
O884   Zn892   2.001   .     S
O885   Zn891   1.985   .     S
O886   Zn892   1.963   .     S
O887   Zn891   2.001   .     S
O888   Zn892   2.002   .     S
O889   Zn891   1.963   .     S
O890   Zn892   1.985   .     S
Br895  C360    1.921   1_556 S
C897   O940    1.287   .     A
C897   C913    1.421   .     S
C897   O939    1.288   .     A
C898   C899    1.403   .     A
C898   C396    1.422   1_556 S
C898   C420    1.416   1_556 S
C899   C906    1.422   .     A
C899   C903    1.407   .     A
C900   C904    1.385   .     A
C901   C902    1.388   .     A
C901   C396    1.425   1_556 S
C901   C416    1.408   1_556 S
C902   C903    1.380   .     A
C902   H931    1.082   .     S
C903   H935    1.067   .     S
C904   C921    1.392   .     A
C904   H932    1.076   .     S
C905   H925    1.083   .     S
C905   C921    1.395   .     A
C905   C920    1.390   .     A
C906   C908    1.482   .     S
C906   C922    1.401   .     A
C907   H936    1.084   .     S
C907   C913    1.398   .     A
C907   C573    1.370   1_565 S
C908   O942    1.290   .     A
C908   O941    1.310   .     A
C909   C910    1.398   .     A
C909   H926    1.084   .     S
C910   C918    1.422   .     S
C910   C911    1.397   .     A
C911   H927    1.082   .     S
C912   H928    1.083   .     S
C912   C913    1.397   .     A
C912   C575    1.369   1_565 S
C914   N938    1.361   .     A
C914   H929    1.082   .     S
C914   C971    1.417   .     S
C915   Br949   1.911   .     S
C915   N937    1.378   .     A
C916   Br950   1.909   .     S
C916   N937    1.375   .     A
C917   H930    1.077   .     S
C917   N938    1.361   .     A
C917   C972    1.412   .     S
C918   O944    1.287   .     A
C918   O943    1.288   .     A
C919   C921    1.442   .     S
C919   O945    1.291   .     A
C919   O946    1.294   .     A
C922   H933    1.081   .     S
C922   C923    1.395   .     A
C923   C420    1.395   1_556 S
C923   Br448   1.911   1_556 S
C924   H934    1.077   .     S
N937   Zn947   2.019   .     S
N938   Zn948   2.019   .     S
O939   Zn947   2.002   .     S
O940   Zn948   2.001   .     S
O941   Zn947   1.985   .     S
O942   Zn948   1.963   .     S
O943   Zn947   2.001   .     S
O944   Zn948   2.002   .     S
O945   Zn947   1.963   .     S
O946   Zn948   1.985   .     S
Br951  C416    1.921   1_556 S
C953   O996    1.287   .     A
C953   C969    1.421   .     S
C953   O995    1.288   .     A
C954   C955    1.403   .     A
C954   C452    1.422   1_556 S
C954   C476    1.416   1_556 S
C955   C962    1.422   .     A
C955   C959    1.407   .     A
C956   C960    1.385   .     A
C957   C958    1.388   .     A
C957   C452    1.425   1_556 S
C957   C472    1.408   1_556 S
C958   C959    1.380   .     A
C958   H987    1.082   .     S
C959   H991    1.067   .     S
C960   C977    1.392   .     A
C960   H988    1.076   .     S
C961   H981    1.083   .     S
C961   C977    1.395   .     A
C961   C976    1.390   .     A
C962   C964    1.482   .     S
C962   C978    1.401   .     A
C963   H992    1.084   .     S
C963   C969    1.398   .     A
C963   C629    1.370   1_565 S
C964   O998    1.290   .     A
C964   O997    1.310   .     A
C965   C966    1.398   .     A
C965   H982    1.084   .     S
C966   C974    1.422   .     S
C966   C967    1.397   .     A
C967   H983    1.082   .     S
C968   H984    1.083   .     S
C968   C969    1.397   .     A
C968   C631    1.369   1_565 S
C970   N994    1.361   .     A
C970   H985    1.082   .     S
C970   C859    1.417   1_655 S
C971   Br1005  1.911   .     S
C971   N993    1.378   .     A
C972   Br1006  1.909   .     S
C972   N993    1.375   .     A
C973   H986    1.077   .     S
C973   N994    1.361   .     A
C973   C860    1.412   1_655 S
C974   O1000   1.287   .     A
C974   O999    1.288   .     A
C975   C977    1.442   .     S
C975   O1001   1.291   .     A
C975   O1002   1.294   .     A
C978   H989    1.081   .     S
C978   C979    1.395   .     A
C979   C476    1.395   1_556 S
C979   Br504   1.911   1_556 S
C980   H990    1.077   .     S
N993   Zn1003  2.019   .     S
N994   Zn1004  2.019   .     S
O995   Zn1003  2.002   .     S
O996   Zn1004  2.001   .     S
O997   Zn1003  1.985   .     S
O998   Zn1004  1.963   .     S
O999   Zn1003  2.001   .     S
O1000  Zn1004  2.002   .     S
O1001  Zn1003  1.963   .     S
O1002  Zn1004  1.985   .     S
Br1007 C472    1.921   1_556 S
