data_str_m3_o1_o10_pcu_sym.73
_audit_creation_date              2020-01-03
_audit_creation_method            'Materials Studio'
_symmetry_space_group_name_H-M    'P1'
_symmetry_Int_Tables_number       1
_symmetry_cell_setting            triclinic
loop_
_symmetry_equiv_pos_as_xyz
  x,y,z
_cell_length_a                    25.7543
_cell_length_b                    31.9131
_cell_length_c                    29.6123
_cell_angle_alpha                 89.9070
_cell_angle_beta                  98.6066
_cell_angle_gamma                 90.2255
loop_
_atom_site_label
_atom_site_type_symbol
_atom_site_fract_x
_atom_site_fract_y
_atom_site_fract_z
_atom_site_U_iso_or_equiv
_atom_site_adp_type
_atom_site_occupancy
C1     C     0.16663   0.08687   0.16668   0.00000  Uiso   1.00
C2     C     0.12135   0.02139   0.17591   0.00000  Uiso   1.00
C3     C     0.16666   0.29053   0.16656   0.00000  Uiso   1.00
C4     C     0.16668   0.04280   0.16677   0.00000  Uiso   1.00
C5     C     0.19952   0.19287   0.02840   0.00000  Uiso   1.00
C6     C     0.13382   0.14046   0.30493   0.00000  Uiso   1.00
C7     C     0.19931   0.19270   0.31349   0.00000  Uiso   1.00
C8     C     0.13403   0.14063   0.01984   0.00000  Uiso   1.00
C9     C     0.16670   0.24646   0.16665   0.00000  Uiso   1.00
C10    C     0.06706   0.16665   0.15471   0.00000  Uiso   1.00
C11    C     0.26627   0.16669   0.17862   0.00000  Uiso   1.00
C12    C     0.01201   0.16669   0.14829   0.00000  Uiso   1.00
C13    C     0.32133   0.16664   0.18504   0.00000  Uiso   1.00
C14    C     0.21200   0.02174   0.15757   0.00000  Uiso   1.00
C15    C     0.12133   0.31159   0.17576   0.00000  Uiso   1.00
C16    C     0.21198   0.31194   0.15743   0.00000  Uiso   1.00
H17    H     0.32473   0.16679   0.11342   0.00000  Uiso   1.00
H18    H     0.07981   0.09745   0.29561   0.00000  Uiso   1.00
H19    H     0.00861   0.16654   0.21991   0.00000  Uiso   1.00
H20    H     0.22524   0.21338   0.29825   0.00000  Uiso   1.00
H21    H     0.10810   0.11995   0.03508   0.00000  Uiso   1.00
H22    H     0.25691   0.07180   0.15772   0.00000  Uiso   1.00
H23    H     0.07642   0.26153   0.17561   0.00000  Uiso   1.00
H24    H     0.25666   0.26208   0.15672   0.00000  Uiso   1.00
H25    H     0.07667   0.07125   0.17661   0.00000  Uiso   1.00
H26    H     0.25353   0.23589   0.03772   0.00000  Uiso   1.00
N27    N     0.16665   0.16666   0.28573   0.00000  Uiso   1.00
N28    N     0.16668   0.16668   0.04760   0.00000  Uiso   1.00
O29    O     0.16666   0.10558   0.20487   0.00000  Uiso   1.00
O30    O     0.07578   0.29150   0.18383   0.00000  Uiso   1.00
O31    O     0.25752   0.29222   0.14920   0.00000  Uiso   1.00
O32    O     0.07582   0.04111   0.18414   0.00000  Uiso   1.00
O33    O     0.23237   0.21912   0.05659   0.00000  Uiso   1.00
O34    O     0.10097   0.11421   0.27675   0.00000  Uiso   1.00
O35    O     0.16667   0.22775   0.12846   0.00000  Uiso   1.00
O36    O     0.16666   0.10559   0.12843   0.00000  Uiso   1.00
O37    O     0.16667   0.22774   0.20490   0.00000  Uiso   1.00
O38    O     0.09058   0.16666   0.19595   0.00000  Uiso   1.00
O39    O     0.24275   0.16667   0.13739   0.00000  Uiso   1.00
O40    O     0.09058   0.16667   0.11950   0.00000  Uiso   1.00
O41    O     0.24275   0.16666   0.21383   0.00000  Uiso   1.00
O42    O     0.25756   0.04183   0.14950   0.00000  Uiso   1.00
Zn43   Zn    0.16667   0.16666   0.21771   0.00000  Uiso   1.00
Zn44   Zn    0.16667   0.16667   0.11563   0.00000  Uiso   1.00
C45    C     0.49996   0.08687   0.16668   0.00000  Uiso   1.00
C46    C     0.45469   0.02139   0.17591   0.00000  Uiso   1.00
C47    C     0.49999   0.29053   0.16656   0.00000  Uiso   1.00
C48    C     0.50001   0.04280   0.16677   0.00000  Uiso   1.00
C49    C     0.53285   0.19287   0.02840   0.00000  Uiso   1.00
C50    C     0.46715   0.14046   0.30493   0.00000  Uiso   1.00
C51    C     0.53264   0.19270   0.31349   0.00000  Uiso   1.00
C52    C     0.46736   0.14063   0.01984   0.00000  Uiso   1.00
C53    C     0.50004   0.24646   0.16665   0.00000  Uiso   1.00
C54    C     0.40040   0.16665   0.15471   0.00000  Uiso   1.00
C55    C     0.59960   0.16669   0.17862   0.00000  Uiso   1.00
C56    C     0.34534   0.16669   0.14829   0.00000  Uiso   1.00
C57    C     0.65466   0.16664   0.18504   0.00000  Uiso   1.00
C58    C     0.54533   0.02174   0.15757   0.00000  Uiso   1.00
C59    C     0.45467   0.31159   0.17576   0.00000  Uiso   1.00
C60    C     0.54531   0.31194   0.15743   0.00000  Uiso   1.00
H61    H     0.65806   0.16679   0.11342   0.00000  Uiso   1.00
H62    H     0.41314   0.09745   0.29561   0.00000  Uiso   1.00
H63    H     0.34194   0.16654   0.21991   0.00000  Uiso   1.00
H64    H     0.55857   0.21338   0.29825   0.00000  Uiso   1.00
H65    H     0.44143   0.11995   0.03508   0.00000  Uiso   1.00
H66    H     0.59025   0.07180   0.15772   0.00000  Uiso   1.00
H67    H     0.40975   0.26153   0.17561   0.00000  Uiso   1.00
H68    H     0.58999   0.26208   0.15672   0.00000  Uiso   1.00
H69    H     0.41000   0.07125   0.17661   0.00000  Uiso   1.00
H70    H     0.58686   0.23589   0.03772   0.00000  Uiso   1.00
N71    N     0.49999   0.16666   0.28573   0.00000  Uiso   1.00
N72    N     0.50001   0.16668   0.04760   0.00000  Uiso   1.00
O73    O     0.50000   0.10558   0.20487   0.00000  Uiso   1.00
O74    O     0.40911   0.29150   0.18383   0.00000  Uiso   1.00
O75    O     0.59085   0.29222   0.14920   0.00000  Uiso   1.00
O76    O     0.40915   0.04111   0.18414   0.00000  Uiso   1.00
O77    O     0.56570   0.21912   0.05659   0.00000  Uiso   1.00
O78    O     0.43430   0.11421   0.27675   0.00000  Uiso   1.00
O79    O     0.50000   0.22775   0.12846   0.00000  Uiso   1.00
O80    O     0.50000   0.10559   0.12843   0.00000  Uiso   1.00
O81    O     0.50000   0.22774   0.20490   0.00000  Uiso   1.00
O82    O     0.42392   0.16666   0.19595   0.00000  Uiso   1.00
O83    O     0.57608   0.16667   0.13739   0.00000  Uiso   1.00
O84    O     0.42392   0.16667   0.11950   0.00000  Uiso   1.00
O85    O     0.57608   0.16666   0.21383   0.00000  Uiso   1.00
O86    O     0.59089   0.04183   0.14950   0.00000  Uiso   1.00
Zn87   Zn    0.50000   0.16666   0.21771   0.00000  Uiso   1.00
Zn88   Zn    0.50000   0.16667   0.11563   0.00000  Uiso   1.00
C89    C     0.83330   0.08687   0.16668   0.00000  Uiso   1.00
C90    C     0.78802   0.02139   0.17591   0.00000  Uiso   1.00
C91    C     0.83333   0.29053   0.16656   0.00000  Uiso   1.00
C92    C     0.83334   0.04280   0.16677   0.00000  Uiso   1.00
C93    C     0.86618   0.19287   0.02840   0.00000  Uiso   1.00
C94    C     0.80048   0.14046   0.30493   0.00000  Uiso   1.00
C95    C     0.86598   0.19270   0.31349   0.00000  Uiso   1.00
C96    C     0.80069   0.14063   0.01984   0.00000  Uiso   1.00
C97    C     0.83337   0.24646   0.16665   0.00000  Uiso   1.00
C98    C     0.73373   0.16665   0.15471   0.00000  Uiso   1.00
C99    C     0.93294   0.16669   0.17862   0.00000  Uiso   1.00
C100   C     0.67868   0.16669   0.14829   0.00000  Uiso   1.00
C101   C     0.98799   0.16664   0.18504   0.00000  Uiso   1.00
C102   C     0.87867   0.02174   0.15757   0.00000  Uiso   1.00
C103   C     0.78800   0.31159   0.17576   0.00000  Uiso   1.00
C104   C     0.87865   0.31194   0.15743   0.00000  Uiso   1.00
H105   H     0.99140   0.16679   0.11342   0.00000  Uiso   1.00
H106   H     0.74647   0.09745   0.29561   0.00000  Uiso   1.00
H107   H     0.67527   0.16654   0.21991   0.00000  Uiso   1.00
H108   H     0.89191   0.21338   0.29825   0.00000  Uiso   1.00
H109   H     0.77476   0.11995   0.03508   0.00000  Uiso   1.00
H110   H     0.92358   0.07180   0.15772   0.00000  Uiso   1.00
H111   H     0.74308   0.26153   0.17561   0.00000  Uiso   1.00
H112   H     0.92333   0.26208   0.15672   0.00000  Uiso   1.00
H113   H     0.74334   0.07125   0.17661   0.00000  Uiso   1.00
H114   H     0.92019   0.23589   0.03772   0.00000  Uiso   1.00
N115   N     0.83332   0.16666   0.28573   0.00000  Uiso   1.00
N116   N     0.83335   0.16668   0.04760   0.00000  Uiso   1.00
O117   O     0.83333   0.10558   0.20487   0.00000  Uiso   1.00
O118   O     0.74245   0.29150   0.18383   0.00000  Uiso   1.00
O119   O     0.92419   0.29222   0.14920   0.00000  Uiso   1.00
O120   O     0.74248   0.04111   0.18414   0.00000  Uiso   1.00
O121   O     0.89903   0.21912   0.05659   0.00000  Uiso   1.00
O122   O     0.76763   0.11421   0.27675   0.00000  Uiso   1.00
O123   O     0.83334   0.22775   0.12846   0.00000  Uiso   1.00
O124   O     0.83333   0.10559   0.12843   0.00000  Uiso   1.00
O125   O     0.83334   0.22774   0.20490   0.00000  Uiso   1.00
O126   O     0.75725   0.16666   0.19595   0.00000  Uiso   1.00
O127   O     0.90942   0.16667   0.13739   0.00000  Uiso   1.00
O128   O     0.75725   0.16667   0.11950   0.00000  Uiso   1.00
O129   O     0.90942   0.16666   0.21383   0.00000  Uiso   1.00
O130   O     0.92422   0.04183   0.14950   0.00000  Uiso   1.00
Zn131  Zn    0.83333   0.16666   0.21771   0.00000  Uiso   1.00
Zn132  Zn    0.83333   0.16667   0.11563   0.00000  Uiso   1.00
C133   C     0.16663   0.42020   0.16668   0.00000  Uiso   1.00
C134   C     0.12135   0.35472   0.17591   0.00000  Uiso   1.00
C135   C     0.16666   0.62387   0.16656   0.00000  Uiso   1.00
C136   C     0.16668   0.37613   0.16677   0.00000  Uiso   1.00
C137   C     0.19952   0.52621   0.02840   0.00000  Uiso   1.00
C138   C     0.13382   0.47379   0.30493   0.00000  Uiso   1.00
C139   C     0.19931   0.52603   0.31349   0.00000  Uiso   1.00
C140   C     0.13403   0.47397   0.01984   0.00000  Uiso   1.00
C141   C     0.16670   0.57980   0.16665   0.00000  Uiso   1.00
C142   C     0.06706   0.49998   0.15471   0.00000  Uiso   1.00
C143   C     0.26627   0.50002   0.17862   0.00000  Uiso   1.00
C144   C     0.01201   0.50003   0.14829   0.00000  Uiso   1.00
C145   C     0.32133   0.49997   0.18504   0.00000  Uiso   1.00
C146   C     0.21200   0.35508   0.15757   0.00000  Uiso   1.00
C147   C     0.12133   0.64492   0.17576   0.00000  Uiso   1.00
C148   C     0.21198   0.64527   0.15743   0.00000  Uiso   1.00
H149   H     0.32473   0.50013   0.11342   0.00000  Uiso   1.00
H150   H     0.07981   0.43078   0.29561   0.00000  Uiso   1.00
H151   H     0.00861   0.49987   0.21991   0.00000  Uiso   1.00
H152   H     0.22524   0.54672   0.29825   0.00000  Uiso   1.00
H153   H     0.10810   0.45328   0.03508   0.00000  Uiso   1.00
H154   H     0.25691   0.40513   0.15772   0.00000  Uiso   1.00
H155   H     0.07642   0.59487   0.17561   0.00000  Uiso   1.00
H156   H     0.25666   0.59542   0.15672   0.00000  Uiso   1.00
H157   H     0.07667   0.40458   0.17661   0.00000  Uiso   1.00
H158   H     0.25353   0.56922   0.03772   0.00000  Uiso   1.00
N159   N     0.16665   0.49999   0.28573   0.00000  Uiso   1.00
N160   N     0.16668   0.50001   0.04760   0.00000  Uiso   1.00
O161   O     0.16666   0.43892   0.20487   0.00000  Uiso   1.00
O162   O     0.07578   0.62483   0.18383   0.00000  Uiso   1.00
O163   O     0.25752   0.62556   0.14920   0.00000  Uiso   1.00
O164   O     0.07582   0.37444   0.18414   0.00000  Uiso   1.00
O165   O     0.23237   0.55245   0.05659   0.00000  Uiso   1.00
O166   O     0.10097   0.44755   0.27675   0.00000  Uiso   1.00
O167   O     0.16667   0.56108   0.12846   0.00000  Uiso   1.00
O168   O     0.16666   0.43893   0.12843   0.00000  Uiso   1.00
O169   O     0.16667   0.56107   0.20490   0.00000  Uiso   1.00
O170   O     0.09058   0.50000   0.19595   0.00000  Uiso   1.00
O171   O     0.24275   0.50000   0.13739   0.00000  Uiso   1.00
O172   O     0.09058   0.50000   0.11950   0.00000  Uiso   1.00
O173   O     0.24275   0.50000   0.21383   0.00000  Uiso   1.00
O174   O     0.25756   0.37517   0.14950   0.00000  Uiso   1.00
Zn175  Zn    0.16667   0.49999   0.21771   0.00000  Uiso   1.00
Zn176  Zn    0.16667   0.50001   0.11563   0.00000  Uiso   1.00
C177   C     0.49996   0.42020   0.16668   0.00000  Uiso   1.00
C178   C     0.45469   0.35472   0.17591   0.00000  Uiso   1.00
C179   C     0.49999   0.62387   0.16656   0.00000  Uiso   1.00
C180   C     0.50001   0.37613   0.16677   0.00000  Uiso   1.00
C181   C     0.53285   0.52621   0.02840   0.00000  Uiso   1.00
C182   C     0.46715   0.47379   0.30493   0.00000  Uiso   1.00
C183   C     0.53264   0.52603   0.31349   0.00000  Uiso   1.00
C184   C     0.46736   0.47397   0.01984   0.00000  Uiso   1.00
C185   C     0.50004   0.57980   0.16665   0.00000  Uiso   1.00
C186   C     0.40040   0.49998   0.15471   0.00000  Uiso   1.00
C187   C     0.59960   0.50002   0.17862   0.00000  Uiso   1.00
C188   C     0.34534   0.50003   0.14829   0.00000  Uiso   1.00
C189   C     0.65466   0.49997   0.18504   0.00000  Uiso   1.00
C190   C     0.54533   0.35508   0.15757   0.00000  Uiso   1.00
C191   C     0.45467   0.64492   0.17576   0.00000  Uiso   1.00
C192   C     0.54531   0.64527   0.15743   0.00000  Uiso   1.00
H193   H     0.65806   0.50013   0.11342   0.00000  Uiso   1.00
H194   H     0.41314   0.43078   0.29561   0.00000  Uiso   1.00
H195   H     0.34194   0.49987   0.21991   0.00000  Uiso   1.00
H196   H     0.55857   0.54672   0.29825   0.00000  Uiso   1.00
H197   H     0.44143   0.45328   0.03508   0.00000  Uiso   1.00
H198   H     0.59025   0.40513   0.15772   0.00000  Uiso   1.00
H199   H     0.40975   0.59487   0.17561   0.00000  Uiso   1.00
H200   H     0.58999   0.59542   0.15672   0.00000  Uiso   1.00
H201   H     0.41000   0.40458   0.17661   0.00000  Uiso   1.00
H202   H     0.58686   0.56922   0.03772   0.00000  Uiso   1.00
N203   N     0.49999   0.49999   0.28573   0.00000  Uiso   1.00
N204   N     0.50001   0.50001   0.04760   0.00000  Uiso   1.00
O205   O     0.50000   0.43892   0.20487   0.00000  Uiso   1.00
O206   O     0.40911   0.62483   0.18383   0.00000  Uiso   1.00
O207   O     0.59085   0.62556   0.14920   0.00000  Uiso   1.00
O208   O     0.40915   0.37444   0.18414   0.00000  Uiso   1.00
O209   O     0.56570   0.55245   0.05659   0.00000  Uiso   1.00
O210   O     0.43430   0.44755   0.27675   0.00000  Uiso   1.00
O211   O     0.50000   0.56108   0.12846   0.00000  Uiso   1.00
O212   O     0.50000   0.43893   0.12843   0.00000  Uiso   1.00
O213   O     0.50000   0.56107   0.20490   0.00000  Uiso   1.00
O214   O     0.42392   0.50000   0.19595   0.00000  Uiso   1.00
O215   O     0.57608   0.50000   0.13739   0.00000  Uiso   1.00
O216   O     0.42392   0.50000   0.11950   0.00000  Uiso   1.00
O217   O     0.57608   0.50000   0.21383   0.00000  Uiso   1.00
O218   O     0.59089   0.37517   0.14950   0.00000  Uiso   1.00
Zn219  Zn    0.50000   0.49999   0.21771   0.00000  Uiso   1.00
Zn220  Zn    0.50000   0.50001   0.11563   0.00000  Uiso   1.00
C221   C     0.83330   0.42020   0.16668   0.00000  Uiso   1.00
C222   C     0.78802   0.35472   0.17591   0.00000  Uiso   1.00
C223   C     0.83333   0.62387   0.16656   0.00000  Uiso   1.00
C224   C     0.83334   0.37613   0.16677   0.00000  Uiso   1.00
C225   C     0.86618   0.52621   0.02840   0.00000  Uiso   1.00
C226   C     0.80048   0.47379   0.30493   0.00000  Uiso   1.00
C227   C     0.86598   0.52603   0.31349   0.00000  Uiso   1.00
C228   C     0.80069   0.47397   0.01984   0.00000  Uiso   1.00
C229   C     0.83337   0.57980   0.16665   0.00000  Uiso   1.00
C230   C     0.73373   0.49998   0.15471   0.00000  Uiso   1.00
C231   C     0.93294   0.50002   0.17862   0.00000  Uiso   1.00
C232   C     0.67868   0.50003   0.14829   0.00000  Uiso   1.00
C233   C     0.98799   0.49997   0.18504   0.00000  Uiso   1.00
C234   C     0.87867   0.35508   0.15757   0.00000  Uiso   1.00
C235   C     0.78800   0.64492   0.17576   0.00000  Uiso   1.00
C236   C     0.87865   0.64527   0.15743   0.00000  Uiso   1.00
H237   H     0.99140   0.50013   0.11342   0.00000  Uiso   1.00
H238   H     0.74647   0.43078   0.29561   0.00000  Uiso   1.00
H239   H     0.67527   0.49987   0.21991   0.00000  Uiso   1.00
H240   H     0.89191   0.54672   0.29825   0.00000  Uiso   1.00
H241   H     0.77476   0.45328   0.03508   0.00000  Uiso   1.00
H242   H     0.92358   0.40513   0.15772   0.00000  Uiso   1.00
H243   H     0.74308   0.59487   0.17561   0.00000  Uiso   1.00
H244   H     0.92333   0.59542   0.15672   0.00000  Uiso   1.00
H245   H     0.74334   0.40458   0.17661   0.00000  Uiso   1.00
H246   H     0.92019   0.56922   0.03772   0.00000  Uiso   1.00
N247   N     0.83332   0.49999   0.28573   0.00000  Uiso   1.00
N248   N     0.83335   0.50001   0.04760   0.00000  Uiso   1.00
O249   O     0.83333   0.43892   0.20487   0.00000  Uiso   1.00
O250   O     0.74245   0.62483   0.18383   0.00000  Uiso   1.00
O251   O     0.92419   0.62556   0.14920   0.00000  Uiso   1.00
O252   O     0.74248   0.37444   0.18414   0.00000  Uiso   1.00
O253   O     0.89903   0.55245   0.05659   0.00000  Uiso   1.00
O254   O     0.76763   0.44755   0.27675   0.00000  Uiso   1.00
O255   O     0.83334   0.56108   0.12846   0.00000  Uiso   1.00
O256   O     0.83333   0.43893   0.12843   0.00000  Uiso   1.00
O257   O     0.83334   0.56107   0.20490   0.00000  Uiso   1.00
O258   O     0.75725   0.50000   0.19595   0.00000  Uiso   1.00
O259   O     0.90942   0.50000   0.13739   0.00000  Uiso   1.00
O260   O     0.75725   0.50000   0.11950   0.00000  Uiso   1.00
O261   O     0.90942   0.50000   0.21383   0.00000  Uiso   1.00
O262   O     0.92422   0.37517   0.14950   0.00000  Uiso   1.00
Zn263  Zn    0.83333   0.49999   0.21771   0.00000  Uiso   1.00
Zn264  Zn    0.83333   0.50001   0.11563   0.00000  Uiso   1.00
C265   C     0.16663   0.75354   0.16668   0.00000  Uiso   1.00
C266   C     0.12135   0.68806   0.17591   0.00000  Uiso   1.00
C267   C     0.16666   0.95720   0.16656   0.00000  Uiso   1.00
C268   C     0.16668   0.70947   0.16677   0.00000  Uiso   1.00
C269   C     0.19952   0.85954   0.02840   0.00000  Uiso   1.00
C270   C     0.13382   0.80713   0.30493   0.00000  Uiso   1.00
C271   C     0.19931   0.85937   0.31349   0.00000  Uiso   1.00
C272   C     0.13403   0.80730   0.01984   0.00000  Uiso   1.00
C273   C     0.16670   0.91313   0.16665   0.00000  Uiso   1.00
C274   C     0.06706   0.83331   0.15471   0.00000  Uiso   1.00
C275   C     0.26627   0.83335   0.17862   0.00000  Uiso   1.00
C276   C     0.01201   0.83336   0.14829   0.00000  Uiso   1.00
C277   C     0.32133   0.83331   0.18504   0.00000  Uiso   1.00
C278   C     0.21200   0.68841   0.15757   0.00000  Uiso   1.00
C279   C     0.12133   0.97826   0.17576   0.00000  Uiso   1.00
C280   C     0.21198   0.97861   0.15743   0.00000  Uiso   1.00
H281   H     0.32473   0.83346   0.11342   0.00000  Uiso   1.00
H282   H     0.07981   0.76411   0.29561   0.00000  Uiso   1.00
H283   H     0.00861   0.83321   0.21991   0.00000  Uiso   1.00
H284   H     0.22524   0.88005   0.29825   0.00000  Uiso   1.00
H285   H     0.10810   0.78662   0.03508   0.00000  Uiso   1.00
H286   H     0.25691   0.73847   0.15772   0.00000  Uiso   1.00
H287   H     0.07642   0.92820   0.17561   0.00000  Uiso   1.00
H288   H     0.25666   0.92875   0.15672   0.00000  Uiso   1.00
H289   H     0.07667   0.73792   0.17661   0.00000  Uiso   1.00
H290   H     0.25353   0.90255   0.03772   0.00000  Uiso   1.00
N291   N     0.16665   0.83332   0.28573   0.00000  Uiso   1.00
N292   N     0.16668   0.83334   0.04760   0.00000  Uiso   1.00
O293   O     0.16666   0.77225   0.20487   0.00000  Uiso   1.00
O294   O     0.07578   0.95817   0.18383   0.00000  Uiso   1.00
O295   O     0.25752   0.95889   0.14920   0.00000  Uiso   1.00
O296   O     0.07582   0.70778   0.18414   0.00000  Uiso   1.00
O297   O     0.23237   0.88579   0.05659   0.00000  Uiso   1.00
O298   O     0.10097   0.78088   0.27675   0.00000  Uiso   1.00
O299   O     0.16667   0.89442   0.12846   0.00000  Uiso   1.00
O300   O     0.16666   0.77226   0.12843   0.00000  Uiso   1.00
O301   O     0.16667   0.89441   0.20490   0.00000  Uiso   1.00
O302   O     0.09058   0.83333   0.19595   0.00000  Uiso   1.00
O303   O     0.24275   0.83334   0.13739   0.00000  Uiso   1.00
O304   O     0.09058   0.83334   0.11950   0.00000  Uiso   1.00
O305   O     0.24275   0.83333   0.21383   0.00000  Uiso   1.00
O306   O     0.25756   0.70850   0.14950   0.00000  Uiso   1.00
Zn307  Zn    0.16667   0.83333   0.21771   0.00000  Uiso   1.00
Zn308  Zn    0.16667   0.83334   0.11563   0.00000  Uiso   1.00
C309   C     0.49996   0.75354   0.16668   0.00000  Uiso   1.00
C310   C     0.45469   0.68806   0.17591   0.00000  Uiso   1.00
C311   C     0.49999   0.95720   0.16656   0.00000  Uiso   1.00
C312   C     0.50001   0.70947   0.16677   0.00000  Uiso   1.00
C313   C     0.53285   0.85954   0.02840   0.00000  Uiso   1.00
C314   C     0.46715   0.80713   0.30493   0.00000  Uiso   1.00
C315   C     0.53264   0.85937   0.31349   0.00000  Uiso   1.00
C316   C     0.46736   0.80730   0.01984   0.00000  Uiso   1.00
C317   C     0.50004   0.91313   0.16665   0.00000  Uiso   1.00
C318   C     0.40040   0.83331   0.15471   0.00000  Uiso   1.00
C319   C     0.59960   0.83335   0.17862   0.00000  Uiso   1.00
C320   C     0.34534   0.83336   0.14829   0.00000  Uiso   1.00
C321   C     0.65466   0.83331   0.18504   0.00000  Uiso   1.00
C322   C     0.54533   0.68841   0.15757   0.00000  Uiso   1.00
C323   C     0.45467   0.97826   0.17576   0.00000  Uiso   1.00
C324   C     0.54531   0.97861   0.15743   0.00000  Uiso   1.00
H325   H     0.65806   0.83346   0.11342   0.00000  Uiso   1.00
H326   H     0.41314   0.76411   0.29561   0.00000  Uiso   1.00
H327   H     0.34194   0.83321   0.21991   0.00000  Uiso   1.00
H328   H     0.55857   0.88005   0.29825   0.00000  Uiso   1.00
H329   H     0.44143   0.78662   0.03508   0.00000  Uiso   1.00
H330   H     0.59025   0.73847   0.15772   0.00000  Uiso   1.00
H331   H     0.40975   0.92820   0.17561   0.00000  Uiso   1.00
H332   H     0.58999   0.92875   0.15672   0.00000  Uiso   1.00
H333   H     0.41000   0.73792   0.17661   0.00000  Uiso   1.00
H334   H     0.58686   0.90255   0.03772   0.00000  Uiso   1.00
N335   N     0.49999   0.83332   0.28573   0.00000  Uiso   1.00
N336   N     0.50001   0.83334   0.04760   0.00000  Uiso   1.00
O337   O     0.50000   0.77225   0.20487   0.00000  Uiso   1.00
O338   O     0.40911   0.95817   0.18383   0.00000  Uiso   1.00
O339   O     0.59085   0.95889   0.14920   0.00000  Uiso   1.00
O340   O     0.40915   0.70778   0.18414   0.00000  Uiso   1.00
O341   O     0.56570   0.88579   0.05659   0.00000  Uiso   1.00
O342   O     0.43430   0.78088   0.27675   0.00000  Uiso   1.00
O343   O     0.50000   0.89442   0.12846   0.00000  Uiso   1.00
O344   O     0.50000   0.77226   0.12843   0.00000  Uiso   1.00
O345   O     0.50000   0.89441   0.20490   0.00000  Uiso   1.00
O346   O     0.42392   0.83333   0.19595   0.00000  Uiso   1.00
O347   O     0.57608   0.83334   0.13739   0.00000  Uiso   1.00
O348   O     0.42392   0.83334   0.11950   0.00000  Uiso   1.00
O349   O     0.57608   0.83333   0.21383   0.00000  Uiso   1.00
O350   O     0.59089   0.70850   0.14950   0.00000  Uiso   1.00
Zn351  Zn    0.50000   0.83333   0.21771   0.00000  Uiso   1.00
Zn352  Zn    0.50000   0.83334   0.11563   0.00000  Uiso   1.00
C353   C     0.83330   0.75354   0.16668   0.00000  Uiso   1.00
C354   C     0.78802   0.68806   0.17591   0.00000  Uiso   1.00
C355   C     0.83333   0.95720   0.16656   0.00000  Uiso   1.00
C356   C     0.83334   0.70947   0.16677   0.00000  Uiso   1.00
C357   C     0.86618   0.85954   0.02840   0.00000  Uiso   1.00
C358   C     0.80048   0.80713   0.30493   0.00000  Uiso   1.00
C359   C     0.86598   0.85937   0.31349   0.00000  Uiso   1.00
C360   C     0.80069   0.80730   0.01984   0.00000  Uiso   1.00
C361   C     0.83337   0.91313   0.16665   0.00000  Uiso   1.00
C362   C     0.73373   0.83331   0.15471   0.00000  Uiso   1.00
C363   C     0.93294   0.83335   0.17862   0.00000  Uiso   1.00
C364   C     0.67868   0.83336   0.14829   0.00000  Uiso   1.00
C365   C     0.98799   0.83331   0.18504   0.00000  Uiso   1.00
C366   C     0.87867   0.68841   0.15757   0.00000  Uiso   1.00
C367   C     0.78800   0.97826   0.17576   0.00000  Uiso   1.00
C368   C     0.87865   0.97861   0.15743   0.00000  Uiso   1.00
H369   H     0.99140   0.83346   0.11342   0.00000  Uiso   1.00
H370   H     0.74647   0.76411   0.29561   0.00000  Uiso   1.00
H371   H     0.67527   0.83321   0.21991   0.00000  Uiso   1.00
H372   H     0.89191   0.88005   0.29825   0.00000  Uiso   1.00
H373   H     0.77476   0.78662   0.03508   0.00000  Uiso   1.00
H374   H     0.92358   0.73847   0.15772   0.00000  Uiso   1.00
H375   H     0.74308   0.92820   0.17561   0.00000  Uiso   1.00
H376   H     0.92333   0.92875   0.15672   0.00000  Uiso   1.00
H377   H     0.74334   0.73792   0.17661   0.00000  Uiso   1.00
H378   H     0.92019   0.90255   0.03772   0.00000  Uiso   1.00
N379   N     0.83332   0.83332   0.28573   0.00000  Uiso   1.00
N380   N     0.83335   0.83334   0.04760   0.00000  Uiso   1.00
O381   O     0.83333   0.77225   0.20487   0.00000  Uiso   1.00
O382   O     0.74245   0.95817   0.18383   0.00000  Uiso   1.00
O383   O     0.92419   0.95889   0.14920   0.00000  Uiso   1.00
O384   O     0.74248   0.70778   0.18414   0.00000  Uiso   1.00
O385   O     0.89903   0.88579   0.05659   0.00000  Uiso   1.00
O386   O     0.76763   0.78088   0.27675   0.00000  Uiso   1.00
O387   O     0.83334   0.89442   0.12846   0.00000  Uiso   1.00
O388   O     0.83333   0.77226   0.12843   0.00000  Uiso   1.00
O389   O     0.83334   0.89441   0.20490   0.00000  Uiso   1.00
O390   O     0.75725   0.83333   0.19595   0.00000  Uiso   1.00
O391   O     0.90942   0.83334   0.13739   0.00000  Uiso   1.00
O392   O     0.75725   0.83334   0.11950   0.00000  Uiso   1.00
O393   O     0.90942   0.83333   0.21383   0.00000  Uiso   1.00
O394   O     0.92422   0.70850   0.14950   0.00000  Uiso   1.00
Zn395  Zn    0.83333   0.83333   0.21771   0.00000  Uiso   1.00
Zn396  Zn    0.83333   0.83334   0.11563   0.00000  Uiso   1.00
C397   C     0.16663   0.08687   0.50001   0.00000  Uiso   1.00
C398   C     0.12135   0.02139   0.50924   0.00000  Uiso   1.00
C399   C     0.16666   0.29053   0.49990   0.00000  Uiso   1.00
C400   C     0.16668   0.04280   0.50010   0.00000  Uiso   1.00
C401   C     0.19952   0.19287   0.36174   0.00000  Uiso   1.00
C402   C     0.13382   0.14046   0.63826   0.00000  Uiso   1.00
C403   C     0.19931   0.19270   0.64682   0.00000  Uiso   1.00
C404   C     0.13403   0.14063   0.35318   0.00000  Uiso   1.00
C405   C     0.16670   0.24646   0.49999   0.00000  Uiso   1.00
C406   C     0.06706   0.16665   0.48804   0.00000  Uiso   1.00
C407   C     0.26627   0.16669   0.51196   0.00000  Uiso   1.00
C408   C     0.01201   0.16669   0.48162   0.00000  Uiso   1.00
C409   C     0.32133   0.16664   0.51838   0.00000  Uiso   1.00
C410   C     0.21200   0.02174   0.49091   0.00000  Uiso   1.00
C411   C     0.12133   0.31159   0.50909   0.00000  Uiso   1.00
C412   C     0.21198   0.31194   0.49076   0.00000  Uiso   1.00
H413   H     0.32473   0.16679   0.44676   0.00000  Uiso   1.00
H414   H     0.07981   0.09745   0.62894   0.00000  Uiso   1.00
H415   H     0.00861   0.16654   0.55324   0.00000  Uiso   1.00
H416   H     0.22524   0.21338   0.63159   0.00000  Uiso   1.00
H417   H     0.10810   0.11995   0.36841   0.00000  Uiso   1.00
H418   H     0.25691   0.07180   0.49105   0.00000  Uiso   1.00
H419   H     0.07642   0.26153   0.50895   0.00000  Uiso   1.00
H420   H     0.25666   0.26208   0.49005   0.00000  Uiso   1.00
H421   H     0.07667   0.07125   0.50994   0.00000  Uiso   1.00
H422   H     0.25353   0.23589   0.37106   0.00000  Uiso   1.00
N423   N     0.16665   0.16666   0.61907   0.00000  Uiso   1.00
N424   N     0.16668   0.16668   0.38093   0.00000  Uiso   1.00
O425   O     0.16666   0.10558   0.53821   0.00000  Uiso   1.00
O426   O     0.07578   0.29150   0.51717   0.00000  Uiso   1.00
O427   O     0.25752   0.29222   0.48253   0.00000  Uiso   1.00
O428   O     0.07582   0.04111   0.51747   0.00000  Uiso   1.00
O429   O     0.23237   0.21912   0.38992   0.00000  Uiso   1.00
O430   O     0.10097   0.11421   0.61008   0.00000  Uiso   1.00
O431   O     0.16667   0.22775   0.46179   0.00000  Uiso   1.00
O432   O     0.16666   0.10559   0.46176   0.00000  Uiso   1.00
O433   O     0.16667   0.22774   0.53824   0.00000  Uiso   1.00
O434   O     0.09058   0.16666   0.52928   0.00000  Uiso   1.00
O435   O     0.24275   0.16667   0.47072   0.00000  Uiso   1.00
O436   O     0.09058   0.16667   0.45284   0.00000  Uiso   1.00
O437   O     0.24275   0.16666   0.54716   0.00000  Uiso   1.00
O438   O     0.25756   0.04183   0.48283   0.00000  Uiso   1.00
Zn439  Zn    0.16667   0.16666   0.55104   0.00000  Uiso   1.00
Zn440  Zn    0.16667   0.16667   0.44896   0.00000  Uiso   1.00
C441   C     0.49996   0.08687   0.50001   0.00000  Uiso   1.00
C442   C     0.45469   0.02139   0.50924   0.00000  Uiso   1.00
C443   C     0.49999   0.29053   0.49990   0.00000  Uiso   1.00
C444   C     0.50001   0.04280   0.50010   0.00000  Uiso   1.00
C445   C     0.53285   0.19287   0.36174   0.00000  Uiso   1.00
C446   C     0.46715   0.14046   0.63826   0.00000  Uiso   1.00
C447   C     0.53264   0.19270   0.64682   0.00000  Uiso   1.00
C448   C     0.46736   0.14063   0.35318   0.00000  Uiso   1.00
C449   C     0.50004   0.24646   0.49999   0.00000  Uiso   1.00
C450   C     0.40040   0.16665   0.48804   0.00000  Uiso   1.00
C451   C     0.59960   0.16669   0.51196   0.00000  Uiso   1.00
C452   C     0.34534   0.16669   0.48162   0.00000  Uiso   1.00
C453   C     0.65466   0.16664   0.51838   0.00000  Uiso   1.00
C454   C     0.54533   0.02174   0.49091   0.00000  Uiso   1.00
C455   C     0.45467   0.31159   0.50909   0.00000  Uiso   1.00
C456   C     0.54531   0.31194   0.49076   0.00000  Uiso   1.00
H457   H     0.65806   0.16679   0.44676   0.00000  Uiso   1.00
H458   H     0.41314   0.09745   0.62894   0.00000  Uiso   1.00
H459   H     0.34194   0.16654   0.55324   0.00000  Uiso   1.00
H460   H     0.55857   0.21338   0.63159   0.00000  Uiso   1.00
H461   H     0.44143   0.11995   0.36841   0.00000  Uiso   1.00
H462   H     0.59025   0.07180   0.49105   0.00000  Uiso   1.00
H463   H     0.40975   0.26153   0.50895   0.00000  Uiso   1.00
H464   H     0.58999   0.26208   0.49005   0.00000  Uiso   1.00
H465   H     0.41000   0.07125   0.50994   0.00000  Uiso   1.00
H466   H     0.58686   0.23589   0.37106   0.00000  Uiso   1.00
N467   N     0.49999   0.16666   0.61907   0.00000  Uiso   1.00
N468   N     0.50001   0.16668   0.38093   0.00000  Uiso   1.00
O469   O     0.50000   0.10558   0.53821   0.00000  Uiso   1.00
O470   O     0.40911   0.29150   0.51717   0.00000  Uiso   1.00
O471   O     0.59085   0.29222   0.48253   0.00000  Uiso   1.00
O472   O     0.40915   0.04111   0.51747   0.00000  Uiso   1.00
O473   O     0.56570   0.21912   0.38992   0.00000  Uiso   1.00
O474   O     0.43430   0.11421   0.61008   0.00000  Uiso   1.00
O475   O     0.50000   0.22775   0.46179   0.00000  Uiso   1.00
O476   O     0.50000   0.10559   0.46176   0.00000  Uiso   1.00
O477   O     0.50000   0.22774   0.53824   0.00000  Uiso   1.00
O478   O     0.42392   0.16666   0.52928   0.00000  Uiso   1.00
O479   O     0.57608   0.16667   0.47072   0.00000  Uiso   1.00
O480   O     0.42392   0.16667   0.45284   0.00000  Uiso   1.00
O481   O     0.57608   0.16666   0.54716   0.00000  Uiso   1.00
O482   O     0.59089   0.04183   0.48283   0.00000  Uiso   1.00
Zn483  Zn    0.50000   0.16666   0.55104   0.00000  Uiso   1.00
Zn484  Zn    0.50000   0.16667   0.44896   0.00000  Uiso   1.00
C485   C     0.83330   0.08687   0.50001   0.00000  Uiso   1.00
C486   C     0.78802   0.02139   0.50924   0.00000  Uiso   1.00
C487   C     0.83333   0.29053   0.49990   0.00000  Uiso   1.00
C488   C     0.83334   0.04280   0.50010   0.00000  Uiso   1.00
C489   C     0.86618   0.19287   0.36174   0.00000  Uiso   1.00
C490   C     0.80048   0.14046   0.63826   0.00000  Uiso   1.00
C491   C     0.86598   0.19270   0.64682   0.00000  Uiso   1.00
C492   C     0.80069   0.14063   0.35318   0.00000  Uiso   1.00
C493   C     0.83337   0.24646   0.49999   0.00000  Uiso   1.00
C494   C     0.73373   0.16665   0.48804   0.00000  Uiso   1.00
C495   C     0.93294   0.16669   0.51196   0.00000  Uiso   1.00
C496   C     0.67868   0.16669   0.48162   0.00000  Uiso   1.00
C497   C     0.98799   0.16664   0.51838   0.00000  Uiso   1.00
C498   C     0.87867   0.02174   0.49091   0.00000  Uiso   1.00
C499   C     0.78800   0.31159   0.50909   0.00000  Uiso   1.00
C500   C     0.87865   0.31194   0.49076   0.00000  Uiso   1.00
H501   H     0.99140   0.16679   0.44676   0.00000  Uiso   1.00
H502   H     0.74647   0.09745   0.62894   0.00000  Uiso   1.00
H503   H     0.67527   0.16654   0.55324   0.00000  Uiso   1.00
H504   H     0.89191   0.21338   0.63159   0.00000  Uiso   1.00
H505   H     0.77476   0.11995   0.36841   0.00000  Uiso   1.00
H506   H     0.92358   0.07180   0.49105   0.00000  Uiso   1.00
H507   H     0.74308   0.26153   0.50895   0.00000  Uiso   1.00
H508   H     0.92333   0.26208   0.49005   0.00000  Uiso   1.00
H509   H     0.74334   0.07125   0.50994   0.00000  Uiso   1.00
H510   H     0.92019   0.23589   0.37106   0.00000  Uiso   1.00
N511   N     0.83332   0.16666   0.61907   0.00000  Uiso   1.00
N512   N     0.83335   0.16668   0.38093   0.00000  Uiso   1.00
O513   O     0.83333   0.10558   0.53821   0.00000  Uiso   1.00
O514   O     0.74245   0.29150   0.51717   0.00000  Uiso   1.00
O515   O     0.92419   0.29222   0.48253   0.00000  Uiso   1.00
O516   O     0.74248   0.04111   0.51747   0.00000  Uiso   1.00
O517   O     0.89903   0.21912   0.38992   0.00000  Uiso   1.00
O518   O     0.76763   0.11421   0.61008   0.00000  Uiso   1.00
O519   O     0.83334   0.22775   0.46179   0.00000  Uiso   1.00
O520   O     0.83333   0.10559   0.46176   0.00000  Uiso   1.00
O521   O     0.83334   0.22774   0.53824   0.00000  Uiso   1.00
O522   O     0.75725   0.16666   0.52928   0.00000  Uiso   1.00
O523   O     0.90942   0.16667   0.47072   0.00000  Uiso   1.00
O524   O     0.75725   0.16667   0.45284   0.00000  Uiso   1.00
O525   O     0.90942   0.16666   0.54716   0.00000  Uiso   1.00
O526   O     0.92422   0.04183   0.48283   0.00000  Uiso   1.00
Zn527  Zn    0.83333   0.16666   0.55104   0.00000  Uiso   1.00
Zn528  Zn    0.83333   0.16667   0.44896   0.00000  Uiso   1.00
C529   C     0.16663   0.42020   0.50001   0.00000  Uiso   1.00
C530   C     0.12135   0.35472   0.50924   0.00000  Uiso   1.00
C531   C     0.16666   0.62387   0.49990   0.00000  Uiso   1.00
C532   C     0.16668   0.37613   0.50010   0.00000  Uiso   1.00
C533   C     0.19952   0.52621   0.36174   0.00000  Uiso   1.00
C534   C     0.13382   0.47379   0.63826   0.00000  Uiso   1.00
C535   C     0.19931   0.52603   0.64682   0.00000  Uiso   1.00
C536   C     0.13403   0.47397   0.35318   0.00000  Uiso   1.00
C537   C     0.16670   0.57980   0.49999   0.00000  Uiso   1.00
C538   C     0.06706   0.49998   0.48804   0.00000  Uiso   1.00
C539   C     0.26627   0.50002   0.51196   0.00000  Uiso   1.00
C540   C     0.01201   0.50003   0.48162   0.00000  Uiso   1.00
C541   C     0.32133   0.49997   0.51838   0.00000  Uiso   1.00
C542   C     0.21200   0.35508   0.49091   0.00000  Uiso   1.00
C543   C     0.12133   0.64492   0.50909   0.00000  Uiso   1.00
C544   C     0.21198   0.64527   0.49076   0.00000  Uiso   1.00
H545   H     0.32473   0.50013   0.44676   0.00000  Uiso   1.00
H546   H     0.07981   0.43078   0.62894   0.00000  Uiso   1.00
H547   H     0.00861   0.49987   0.55324   0.00000  Uiso   1.00
H548   H     0.22524   0.54672   0.63159   0.00000  Uiso   1.00
H549   H     0.10810   0.45328   0.36841   0.00000  Uiso   1.00
H550   H     0.25691   0.40513   0.49105   0.00000  Uiso   1.00
H551   H     0.07642   0.59487   0.50895   0.00000  Uiso   1.00
H552   H     0.25666   0.59542   0.49005   0.00000  Uiso   1.00
H553   H     0.07667   0.40458   0.50994   0.00000  Uiso   1.00
H554   H     0.25353   0.56922   0.37106   0.00000  Uiso   1.00
N555   N     0.16665   0.49999   0.61907   0.00000  Uiso   1.00
N556   N     0.16668   0.50001   0.38093   0.00000  Uiso   1.00
O557   O     0.16666   0.43892   0.53821   0.00000  Uiso   1.00
O558   O     0.07578   0.62483   0.51717   0.00000  Uiso   1.00
O559   O     0.25752   0.62556   0.48253   0.00000  Uiso   1.00
O560   O     0.07582   0.37444   0.51747   0.00000  Uiso   1.00
O561   O     0.23237   0.55245   0.38992   0.00000  Uiso   1.00
O562   O     0.10097   0.44755   0.61008   0.00000  Uiso   1.00
O563   O     0.16667   0.56108   0.46179   0.00000  Uiso   1.00
O564   O     0.16666   0.43893   0.46176   0.00000  Uiso   1.00
O565   O     0.16667   0.56107   0.53824   0.00000  Uiso   1.00
O566   O     0.09058   0.50000   0.52928   0.00000  Uiso   1.00
O567   O     0.24275   0.50000   0.47072   0.00000  Uiso   1.00
O568   O     0.09058   0.50000   0.45284   0.00000  Uiso   1.00
O569   O     0.24275   0.50000   0.54716   0.00000  Uiso   1.00
O570   O     0.25756   0.37517   0.48283   0.00000  Uiso   1.00
Zn571  Zn    0.16667   0.49999   0.55104   0.00000  Uiso   1.00
Zn572  Zn    0.16667   0.50001   0.44896   0.00000  Uiso   1.00
C573   C     0.49996   0.42020   0.50001   0.00000  Uiso   1.00
C574   C     0.45469   0.35472   0.50924   0.00000  Uiso   1.00
C575   C     0.49999   0.62387   0.49990   0.00000  Uiso   1.00
C576   C     0.50001   0.37613   0.50010   0.00000  Uiso   1.00
C577   C     0.53285   0.52621   0.36174   0.00000  Uiso   1.00
C578   C     0.46715   0.47379   0.63826   0.00000  Uiso   1.00
C579   C     0.53264   0.52603   0.64682   0.00000  Uiso   1.00
C580   C     0.46736   0.47397   0.35318   0.00000  Uiso   1.00
C581   C     0.50004   0.57980   0.49999   0.00000  Uiso   1.00
C582   C     0.40040   0.49998   0.48804   0.00000  Uiso   1.00
C583   C     0.59960   0.50002   0.51196   0.00000  Uiso   1.00
C584   C     0.34534   0.50003   0.48162   0.00000  Uiso   1.00
C585   C     0.65466   0.49997   0.51838   0.00000  Uiso   1.00
C586   C     0.54533   0.35508   0.49091   0.00000  Uiso   1.00
C587   C     0.45467   0.64492   0.50909   0.00000  Uiso   1.00
C588   C     0.54531   0.64527   0.49076   0.00000  Uiso   1.00
H589   H     0.65806   0.50013   0.44676   0.00000  Uiso   1.00
H590   H     0.41314   0.43078   0.62894   0.00000  Uiso   1.00
H591   H     0.34194   0.49987   0.55324   0.00000  Uiso   1.00
H592   H     0.55857   0.54672   0.63159   0.00000  Uiso   1.00
H593   H     0.44143   0.45328   0.36841   0.00000  Uiso   1.00
H594   H     0.59025   0.40513   0.49105   0.00000  Uiso   1.00
H595   H     0.40975   0.59487   0.50895   0.00000  Uiso   1.00
H596   H     0.58999   0.59542   0.49005   0.00000  Uiso   1.00
H597   H     0.41000   0.40458   0.50994   0.00000  Uiso   1.00
H598   H     0.58686   0.56922   0.37106   0.00000  Uiso   1.00
N599   N     0.49999   0.49999   0.61907   0.00000  Uiso   1.00
N600   N     0.50001   0.50001   0.38093   0.00000  Uiso   1.00
O601   O     0.50000   0.43892   0.53821   0.00000  Uiso   1.00
O602   O     0.40911   0.62483   0.51717   0.00000  Uiso   1.00
O603   O     0.59085   0.62556   0.48253   0.00000  Uiso   1.00
O604   O     0.40915   0.37444   0.51747   0.00000  Uiso   1.00
O605   O     0.56570   0.55245   0.38992   0.00000  Uiso   1.00
O606   O     0.43430   0.44755   0.61008   0.00000  Uiso   1.00
O607   O     0.50000   0.56108   0.46179   0.00000  Uiso   1.00
O608   O     0.50000   0.43893   0.46176   0.00000  Uiso   1.00
O609   O     0.50000   0.56107   0.53824   0.00000  Uiso   1.00
O610   O     0.42392   0.50000   0.52928   0.00000  Uiso   1.00
O611   O     0.57608   0.50000   0.47072   0.00000  Uiso   1.00
O612   O     0.42392   0.50000   0.45284   0.00000  Uiso   1.00
O613   O     0.57608   0.50000   0.54716   0.00000  Uiso   1.00
O614   O     0.59089   0.37517   0.48283   0.00000  Uiso   1.00
Zn615  Zn    0.50000   0.49999   0.55104   0.00000  Uiso   1.00
Zn616  Zn    0.50000   0.50001   0.44896   0.00000  Uiso   1.00
C617   C     0.83330   0.42020   0.50001   0.00000  Uiso   1.00
C618   C     0.78802   0.35472   0.50924   0.00000  Uiso   1.00
C619   C     0.83333   0.62387   0.49990   0.00000  Uiso   1.00
C620   C     0.83334   0.37613   0.50010   0.00000  Uiso   1.00
C621   C     0.86618   0.52621   0.36174   0.00000  Uiso   1.00
C622   C     0.80048   0.47379   0.63826   0.00000  Uiso   1.00
C623   C     0.86598   0.52603   0.64682   0.00000  Uiso   1.00
C624   C     0.80069   0.47397   0.35318   0.00000  Uiso   1.00
C625   C     0.83337   0.57980   0.49999   0.00000  Uiso   1.00
C626   C     0.73373   0.49998   0.48804   0.00000  Uiso   1.00
C627   C     0.93294   0.50002   0.51196   0.00000  Uiso   1.00
C628   C     0.67868   0.50003   0.48162   0.00000  Uiso   1.00
C629   C     0.98799   0.49997   0.51838   0.00000  Uiso   1.00
C630   C     0.87867   0.35508   0.49091   0.00000  Uiso   1.00
C631   C     0.78800   0.64492   0.50909   0.00000  Uiso   1.00
C632   C     0.87865   0.64527   0.49076   0.00000  Uiso   1.00
H633   H     0.99140   0.50013   0.44676   0.00000  Uiso   1.00
H634   H     0.74647   0.43078   0.62894   0.00000  Uiso   1.00
H635   H     0.67527   0.49987   0.55324   0.00000  Uiso   1.00
H636   H     0.89191   0.54672   0.63159   0.00000  Uiso   1.00
H637   H     0.77476   0.45328   0.36841   0.00000  Uiso   1.00
H638   H     0.92358   0.40513   0.49105   0.00000  Uiso   1.00
H639   H     0.74308   0.59487   0.50895   0.00000  Uiso   1.00
H640   H     0.92333   0.59542   0.49005   0.00000  Uiso   1.00
H641   H     0.74334   0.40458   0.50994   0.00000  Uiso   1.00
H642   H     0.92019   0.56922   0.37106   0.00000  Uiso   1.00
N643   N     0.83332   0.49999   0.61907   0.00000  Uiso   1.00
N644   N     0.83335   0.50001   0.38093   0.00000  Uiso   1.00
O645   O     0.83333   0.43892   0.53821   0.00000  Uiso   1.00
O646   O     0.74245   0.62483   0.51717   0.00000  Uiso   1.00
O647   O     0.92419   0.62556   0.48253   0.00000  Uiso   1.00
O648   O     0.74248   0.37444   0.51747   0.00000  Uiso   1.00
O649   O     0.89903   0.55245   0.38992   0.00000  Uiso   1.00
O650   O     0.76763   0.44755   0.61008   0.00000  Uiso   1.00
O651   O     0.83334   0.56108   0.46179   0.00000  Uiso   1.00
O652   O     0.83333   0.43893   0.46176   0.00000  Uiso   1.00
O653   O     0.83334   0.56107   0.53824   0.00000  Uiso   1.00
O654   O     0.75725   0.50000   0.52928   0.00000  Uiso   1.00
O655   O     0.90942   0.50000   0.47072   0.00000  Uiso   1.00
O656   O     0.75725   0.50000   0.45284   0.00000  Uiso   1.00
O657   O     0.90942   0.50000   0.54716   0.00000  Uiso   1.00
O658   O     0.92422   0.37517   0.48283   0.00000  Uiso   1.00
Zn659  Zn    0.83333   0.49999   0.55104   0.00000  Uiso   1.00
Zn660  Zn    0.83333   0.50001   0.44896   0.00000  Uiso   1.00
C661   C     0.16663   0.75354   0.50001   0.00000  Uiso   1.00
C662   C     0.12135   0.68806   0.50924   0.00000  Uiso   1.00
C663   C     0.16666   0.95720   0.49990   0.00000  Uiso   1.00
C664   C     0.16668   0.70947   0.50010   0.00000  Uiso   1.00
C665   C     0.19952   0.85954   0.36174   0.00000  Uiso   1.00
C666   C     0.13382   0.80713   0.63826   0.00000  Uiso   1.00
C667   C     0.19931   0.85937   0.64682   0.00000  Uiso   1.00
C668   C     0.13403   0.80730   0.35318   0.00000  Uiso   1.00
C669   C     0.16670   0.91313   0.49999   0.00000  Uiso   1.00
C670   C     0.06706   0.83331   0.48804   0.00000  Uiso   1.00
C671   C     0.26627   0.83335   0.51196   0.00000  Uiso   1.00
C672   C     0.01201   0.83336   0.48162   0.00000  Uiso   1.00
C673   C     0.32133   0.83331   0.51838   0.00000  Uiso   1.00
C674   C     0.21200   0.68841   0.49091   0.00000  Uiso   1.00
C675   C     0.12133   0.97826   0.50909   0.00000  Uiso   1.00
C676   C     0.21198   0.97861   0.49076   0.00000  Uiso   1.00
H677   H     0.32473   0.83346   0.44676   0.00000  Uiso   1.00
H678   H     0.07981   0.76411   0.62894   0.00000  Uiso   1.00
H679   H     0.00861   0.83321   0.55324   0.00000  Uiso   1.00
H680   H     0.22524   0.88005   0.63159   0.00000  Uiso   1.00
H681   H     0.10810   0.78662   0.36841   0.00000  Uiso   1.00
H682   H     0.25691   0.73847   0.49105   0.00000  Uiso   1.00
H683   H     0.07642   0.92820   0.50895   0.00000  Uiso   1.00
H684   H     0.25666   0.92875   0.49005   0.00000  Uiso   1.00
H685   H     0.07667   0.73792   0.50994   0.00000  Uiso   1.00
H686   H     0.25353   0.90255   0.37106   0.00000  Uiso   1.00
N687   N     0.16665   0.83332   0.61907   0.00000  Uiso   1.00
N688   N     0.16668   0.83334   0.38093   0.00000  Uiso   1.00
O689   O     0.16666   0.77225   0.53821   0.00000  Uiso   1.00
O690   O     0.07578   0.95817   0.51717   0.00000  Uiso   1.00
O691   O     0.25752   0.95889   0.48253   0.00000  Uiso   1.00
O692   O     0.07582   0.70778   0.51747   0.00000  Uiso   1.00
O693   O     0.23237   0.88579   0.38992   0.00000  Uiso   1.00
O694   O     0.10097   0.78088   0.61008   0.00000  Uiso   1.00
O695   O     0.16667   0.89442   0.46179   0.00000  Uiso   1.00
O696   O     0.16666   0.77226   0.46176   0.00000  Uiso   1.00
O697   O     0.16667   0.89441   0.53824   0.00000  Uiso   1.00
O698   O     0.09058   0.83333   0.52928   0.00000  Uiso   1.00
O699   O     0.24275   0.83334   0.47072   0.00000  Uiso   1.00
O700   O     0.09058   0.83334   0.45284   0.00000  Uiso   1.00
O701   O     0.24275   0.83333   0.54716   0.00000  Uiso   1.00
O702   O     0.25756   0.70850   0.48283   0.00000  Uiso   1.00
Zn703  Zn    0.16667   0.83333   0.55104   0.00000  Uiso   1.00
Zn704  Zn    0.16667   0.83334   0.44896   0.00000  Uiso   1.00
C705   C     0.49996   0.75354   0.50001   0.00000  Uiso   1.00
C706   C     0.45469   0.68806   0.50924   0.00000  Uiso   1.00
C707   C     0.49999   0.95720   0.49990   0.00000  Uiso   1.00
C708   C     0.50001   0.70947   0.50010   0.00000  Uiso   1.00
C709   C     0.53285   0.85954   0.36174   0.00000  Uiso   1.00
C710   C     0.46715   0.80713   0.63826   0.00000  Uiso   1.00
C711   C     0.53264   0.85937   0.64682   0.00000  Uiso   1.00
C712   C     0.46736   0.80730   0.35318   0.00000  Uiso   1.00
C713   C     0.50004   0.91313   0.49999   0.00000  Uiso   1.00
C714   C     0.40040   0.83331   0.48804   0.00000  Uiso   1.00
C715   C     0.59960   0.83335   0.51196   0.00000  Uiso   1.00
C716   C     0.34534   0.83336   0.48162   0.00000  Uiso   1.00
C717   C     0.65466   0.83331   0.51838   0.00000  Uiso   1.00
C718   C     0.54533   0.68841   0.49091   0.00000  Uiso   1.00
C719   C     0.45467   0.97826   0.50909   0.00000  Uiso   1.00
C720   C     0.54531   0.97861   0.49076   0.00000  Uiso   1.00
H721   H     0.65806   0.83346   0.44676   0.00000  Uiso   1.00
H722   H     0.41314   0.76411   0.62894   0.00000  Uiso   1.00
H723   H     0.34194   0.83321   0.55324   0.00000  Uiso   1.00
H724   H     0.55857   0.88005   0.63159   0.00000  Uiso   1.00
H725   H     0.44143   0.78662   0.36841   0.00000  Uiso   1.00
H726   H     0.59025   0.73847   0.49105   0.00000  Uiso   1.00
H727   H     0.40975   0.92820   0.50895   0.00000  Uiso   1.00
H728   H     0.58999   0.92875   0.49005   0.00000  Uiso   1.00
H729   H     0.41000   0.73792   0.50994   0.00000  Uiso   1.00
H730   H     0.58686   0.90255   0.37106   0.00000  Uiso   1.00
N731   N     0.49999   0.83332   0.61907   0.00000  Uiso   1.00
N732   N     0.50001   0.83334   0.38093   0.00000  Uiso   1.00
O733   O     0.50000   0.77225   0.53821   0.00000  Uiso   1.00
O734   O     0.40911   0.95817   0.51717   0.00000  Uiso   1.00
O735   O     0.59085   0.95889   0.48253   0.00000  Uiso   1.00
O736   O     0.40915   0.70778   0.51747   0.00000  Uiso   1.00
O737   O     0.56570   0.88579   0.38992   0.00000  Uiso   1.00
O738   O     0.43430   0.78088   0.61008   0.00000  Uiso   1.00
O739   O     0.50000   0.89442   0.46179   0.00000  Uiso   1.00
O740   O     0.50000   0.77226   0.46176   0.00000  Uiso   1.00
O741   O     0.50000   0.89441   0.53824   0.00000  Uiso   1.00
O742   O     0.42392   0.83333   0.52928   0.00000  Uiso   1.00
O743   O     0.57608   0.83334   0.47072   0.00000  Uiso   1.00
O744   O     0.42392   0.83334   0.45284   0.00000  Uiso   1.00
O745   O     0.57608   0.83333   0.54716   0.00000  Uiso   1.00
O746   O     0.59089   0.70850   0.48283   0.00000  Uiso   1.00
Zn747  Zn    0.50000   0.83333   0.55104   0.00000  Uiso   1.00
Zn748  Zn    0.50000   0.83334   0.44896   0.00000  Uiso   1.00
C749   C     0.83330   0.75354   0.50001   0.00000  Uiso   1.00
C750   C     0.78802   0.68806   0.50924   0.00000  Uiso   1.00
C751   C     0.83333   0.95720   0.49990   0.00000  Uiso   1.00
C752   C     0.83334   0.70947   0.50010   0.00000  Uiso   1.00
C753   C     0.86618   0.85954   0.36174   0.00000  Uiso   1.00
C754   C     0.80048   0.80713   0.63826   0.00000  Uiso   1.00
C755   C     0.86598   0.85937   0.64682   0.00000  Uiso   1.00
C756   C     0.80069   0.80730   0.35318   0.00000  Uiso   1.00
C757   C     0.83337   0.91313   0.49999   0.00000  Uiso   1.00
C758   C     0.73373   0.83331   0.48804   0.00000  Uiso   1.00
C759   C     0.93294   0.83335   0.51196   0.00000  Uiso   1.00
C760   C     0.67868   0.83336   0.48162   0.00000  Uiso   1.00
C761   C     0.98799   0.83331   0.51838   0.00000  Uiso   1.00
C762   C     0.87867   0.68841   0.49091   0.00000  Uiso   1.00
C763   C     0.78800   0.97826   0.50909   0.00000  Uiso   1.00
C764   C     0.87865   0.97861   0.49076   0.00000  Uiso   1.00
H765   H     0.99140   0.83346   0.44676   0.00000  Uiso   1.00
H766   H     0.74647   0.76411   0.62894   0.00000  Uiso   1.00
H767   H     0.67527   0.83321   0.55324   0.00000  Uiso   1.00
H768   H     0.89191   0.88005   0.63159   0.00000  Uiso   1.00
H769   H     0.77476   0.78662   0.36841   0.00000  Uiso   1.00
H770   H     0.92358   0.73847   0.49105   0.00000  Uiso   1.00
H771   H     0.74308   0.92820   0.50895   0.00000  Uiso   1.00
H772   H     0.92333   0.92875   0.49005   0.00000  Uiso   1.00
H773   H     0.74334   0.73792   0.50994   0.00000  Uiso   1.00
H774   H     0.92019   0.90255   0.37106   0.00000  Uiso   1.00
N775   N     0.83332   0.83332   0.61907   0.00000  Uiso   1.00
N776   N     0.83335   0.83334   0.38093   0.00000  Uiso   1.00
O777   O     0.83333   0.77225   0.53821   0.00000  Uiso   1.00
O778   O     0.74245   0.95817   0.51717   0.00000  Uiso   1.00
O779   O     0.92419   0.95889   0.48253   0.00000  Uiso   1.00
O780   O     0.74248   0.70778   0.51747   0.00000  Uiso   1.00
O781   O     0.89903   0.88579   0.38992   0.00000  Uiso   1.00
O782   O     0.76763   0.78088   0.61008   0.00000  Uiso   1.00
O783   O     0.83334   0.89442   0.46179   0.00000  Uiso   1.00
O784   O     0.83333   0.77226   0.46176   0.00000  Uiso   1.00
O785   O     0.83334   0.89441   0.53824   0.00000  Uiso   1.00
O786   O     0.75725   0.83333   0.52928   0.00000  Uiso   1.00
O787   O     0.90942   0.83334   0.47072   0.00000  Uiso   1.00
O788   O     0.75725   0.83334   0.45284   0.00000  Uiso   1.00
O789   O     0.90942   0.83333   0.54716   0.00000  Uiso   1.00
O790   O     0.92422   0.70850   0.48283   0.00000  Uiso   1.00
Zn791  Zn    0.83333   0.83333   0.55104   0.00000  Uiso   1.00
Zn792  Zn    0.83333   0.83334   0.44896   0.00000  Uiso   1.00
C793   C     0.16663   0.08687   0.83335   0.00000  Uiso   1.00
C794   C     0.12135   0.02139   0.84257   0.00000  Uiso   1.00
C795   C     0.16666   0.29053   0.83323   0.00000  Uiso   1.00
C796   C     0.16668   0.04280   0.83344   0.00000  Uiso   1.00
C797   C     0.19952   0.19287   0.69507   0.00000  Uiso   1.00
C798   C     0.13382   0.14046   0.97160   0.00000  Uiso   1.00
C799   C     0.19931   0.19270   0.98016   0.00000  Uiso   1.00
C800   C     0.13403   0.14063   0.68651   0.00000  Uiso   1.00
C801   C     0.16670   0.24646   0.83332   0.00000  Uiso   1.00
C802   C     0.06706   0.16665   0.82138   0.00000  Uiso   1.00
C803   C     0.26627   0.16669   0.84529   0.00000  Uiso   1.00
C804   C     0.01201   0.16669   0.81496   0.00000  Uiso   1.00
C805   C     0.32133   0.16664   0.85171   0.00000  Uiso   1.00
C806   C     0.21200   0.02174   0.82424   0.00000  Uiso   1.00
C807   C     0.12133   0.31159   0.84243   0.00000  Uiso   1.00
C808   C     0.21198   0.31194   0.82409   0.00000  Uiso   1.00
H809   H     0.32473   0.16679   0.78009   0.00000  Uiso   1.00
H810   H     0.07981   0.09745   0.96228   0.00000  Uiso   1.00
H811   H     0.00861   0.16654   0.88658   0.00000  Uiso   1.00
H812   H     0.22524   0.21338   0.96492   0.00000  Uiso   1.00
H813   H     0.10810   0.11995   0.70175   0.00000  Uiso   1.00
H814   H     0.25691   0.07180   0.82438   0.00000  Uiso   1.00
H815   H     0.07642   0.26153   0.84228   0.00000  Uiso   1.00
H816   H     0.25666   0.26208   0.82339   0.00000  Uiso   1.00
H817   H     0.07667   0.07125   0.84327   0.00000  Uiso   1.00
H818   H     0.25353   0.23589   0.70439   0.00000  Uiso   1.00
N819   N     0.16665   0.16666   0.95240   0.00000  Uiso   1.00
N820   N     0.16668   0.16668   0.71427   0.00000  Uiso   1.00
O821   O     0.16666   0.10558   0.87154   0.00000  Uiso   1.00
O822   O     0.07578   0.29150   0.85050   0.00000  Uiso   1.00
O823   O     0.25752   0.29222   0.81586   0.00000  Uiso   1.00
O824   O     0.07582   0.04111   0.85081   0.00000  Uiso   1.00
O825   O     0.23237   0.21912   0.72325   0.00000  Uiso   1.00
O826   O     0.10097   0.11421   0.94341   0.00000  Uiso   1.00
O827   O     0.16667   0.22775   0.79513   0.00000  Uiso   1.00
O828   O     0.16666   0.10559   0.79510   0.00000  Uiso   1.00
O829   O     0.16667   0.22774   0.87157   0.00000  Uiso   1.00
O830   O     0.09058   0.16666   0.86261   0.00000  Uiso   1.00
O831   O     0.24275   0.16667   0.80405   0.00000  Uiso   1.00
O832   O     0.09058   0.16667   0.78617   0.00000  Uiso   1.00
O833   O     0.24275   0.16666   0.88050   0.00000  Uiso   1.00
O834   O     0.25756   0.04183   0.81617   0.00000  Uiso   1.00
Zn835  Zn    0.16667   0.16666   0.88437   0.00000  Uiso   1.00
Zn836  Zn    0.16667   0.16667   0.78229   0.00000  Uiso   1.00
C837   C     0.49996   0.08687   0.83335   0.00000  Uiso   1.00
C838   C     0.45469   0.02139   0.84257   0.00000  Uiso   1.00
C839   C     0.49999   0.29053   0.83323   0.00000  Uiso   1.00
C840   C     0.50001   0.04280   0.83344   0.00000  Uiso   1.00
C841   C     0.53285   0.19287   0.69507   0.00000  Uiso   1.00
C842   C     0.46715   0.14046   0.97160   0.00000  Uiso   1.00
C843   C     0.53264   0.19270   0.98016   0.00000  Uiso   1.00
C844   C     0.46736   0.14063   0.68651   0.00000  Uiso   1.00
C845   C     0.50004   0.24646   0.83332   0.00000  Uiso   1.00
C846   C     0.40040   0.16665   0.82138   0.00000  Uiso   1.00
C847   C     0.59960   0.16669   0.84529   0.00000  Uiso   1.00
C848   C     0.34534   0.16669   0.81496   0.00000  Uiso   1.00
C849   C     0.65466   0.16664   0.85171   0.00000  Uiso   1.00
C850   C     0.54533   0.02174   0.82424   0.00000  Uiso   1.00
C851   C     0.45467   0.31159   0.84243   0.00000  Uiso   1.00
C852   C     0.54531   0.31194   0.82409   0.00000  Uiso   1.00
H853   H     0.65806   0.16679   0.78009   0.00000  Uiso   1.00
H854   H     0.41314   0.09745   0.96228   0.00000  Uiso   1.00
H855   H     0.34194   0.16654   0.88658   0.00000  Uiso   1.00
H856   H     0.55857   0.21338   0.96492   0.00000  Uiso   1.00
H857   H     0.44143   0.11995   0.70175   0.00000  Uiso   1.00
H858   H     0.59025   0.07180   0.82438   0.00000  Uiso   1.00
H859   H     0.40975   0.26153   0.84228   0.00000  Uiso   1.00
H860   H     0.58999   0.26208   0.82339   0.00000  Uiso   1.00
H861   H     0.41000   0.07125   0.84327   0.00000  Uiso   1.00
H862   H     0.58686   0.23589   0.70439   0.00000  Uiso   1.00
N863   N     0.49999   0.16666   0.95240   0.00000  Uiso   1.00
N864   N     0.50001   0.16668   0.71427   0.00000  Uiso   1.00
O865   O     0.50000   0.10558   0.87154   0.00000  Uiso   1.00
O866   O     0.40911   0.29150   0.85050   0.00000  Uiso   1.00
O867   O     0.59085   0.29222   0.81586   0.00000  Uiso   1.00
O868   O     0.40915   0.04111   0.85081   0.00000  Uiso   1.00
O869   O     0.56570   0.21912   0.72325   0.00000  Uiso   1.00
O870   O     0.43430   0.11421   0.94341   0.00000  Uiso   1.00
O871   O     0.50000   0.22775   0.79513   0.00000  Uiso   1.00
O872   O     0.50000   0.10559   0.79510   0.00000  Uiso   1.00
O873   O     0.50000   0.22774   0.87157   0.00000  Uiso   1.00
O874   O     0.42392   0.16666   0.86261   0.00000  Uiso   1.00
O875   O     0.57608   0.16667   0.80405   0.00000  Uiso   1.00
O876   O     0.42392   0.16667   0.78617   0.00000  Uiso   1.00
O877   O     0.57608   0.16666   0.88050   0.00000  Uiso   1.00
O878   O     0.59089   0.04183   0.81617   0.00000  Uiso   1.00
Zn879  Zn    0.50000   0.16666   0.88437   0.00000  Uiso   1.00
Zn880  Zn    0.50000   0.16667   0.78229   0.00000  Uiso   1.00
C881   C     0.83330   0.08687   0.83335   0.00000  Uiso   1.00
C882   C     0.78802   0.02139   0.84257   0.00000  Uiso   1.00
C883   C     0.83333   0.29053   0.83323   0.00000  Uiso   1.00
C884   C     0.83334   0.04280   0.83344   0.00000  Uiso   1.00
C885   C     0.86618   0.19287   0.69507   0.00000  Uiso   1.00
C886   C     0.80048   0.14046   0.97160   0.00000  Uiso   1.00
C887   C     0.86598   0.19270   0.98016   0.00000  Uiso   1.00
C888   C     0.80069   0.14063   0.68651   0.00000  Uiso   1.00
C889   C     0.83337   0.24646   0.83332   0.00000  Uiso   1.00
C890   C     0.73373   0.16665   0.82138   0.00000  Uiso   1.00
C891   C     0.93294   0.16669   0.84529   0.00000  Uiso   1.00
C892   C     0.67868   0.16669   0.81496   0.00000  Uiso   1.00
C893   C     0.98799   0.16664   0.85171   0.00000  Uiso   1.00
C894   C     0.87867   0.02174   0.82424   0.00000  Uiso   1.00
C895   C     0.78800   0.31159   0.84243   0.00000  Uiso   1.00
C896   C     0.87865   0.31194   0.82409   0.00000  Uiso   1.00
H897   H     0.99140   0.16679   0.78009   0.00000  Uiso   1.00
H898   H     0.74647   0.09745   0.96228   0.00000  Uiso   1.00
H899   H     0.67527   0.16654   0.88658   0.00000  Uiso   1.00
H900   H     0.89191   0.21338   0.96492   0.00000  Uiso   1.00
H901   H     0.77476   0.11995   0.70175   0.00000  Uiso   1.00
H902   H     0.92358   0.07180   0.82438   0.00000  Uiso   1.00
H903   H     0.74308   0.26153   0.84228   0.00000  Uiso   1.00
H904   H     0.92333   0.26208   0.82339   0.00000  Uiso   1.00
H905   H     0.74334   0.07125   0.84327   0.00000  Uiso   1.00
H906   H     0.92019   0.23589   0.70439   0.00000  Uiso   1.00
N907   N     0.83332   0.16666   0.95240   0.00000  Uiso   1.00
N908   N     0.83335   0.16668   0.71427   0.00000  Uiso   1.00
O909   O     0.83333   0.10558   0.87154   0.00000  Uiso   1.00
O910   O     0.74245   0.29150   0.85050   0.00000  Uiso   1.00
O911   O     0.92419   0.29222   0.81586   0.00000  Uiso   1.00
O912   O     0.74248   0.04111   0.85081   0.00000  Uiso   1.00
O913   O     0.89903   0.21912   0.72325   0.00000  Uiso   1.00
O914   O     0.76763   0.11421   0.94341   0.00000  Uiso   1.00
O915   O     0.83334   0.22775   0.79513   0.00000  Uiso   1.00
O916   O     0.83333   0.10559   0.79510   0.00000  Uiso   1.00
O917   O     0.83334   0.22774   0.87157   0.00000  Uiso   1.00
O918   O     0.75725   0.16666   0.86261   0.00000  Uiso   1.00
O919   O     0.90942   0.16667   0.80405   0.00000  Uiso   1.00
O920   O     0.75725   0.16667   0.78617   0.00000  Uiso   1.00
O921   O     0.90942   0.16666   0.88050   0.00000  Uiso   1.00
O922   O     0.92422   0.04183   0.81617   0.00000  Uiso   1.00
Zn923  Zn    0.83333   0.16666   0.88437   0.00000  Uiso   1.00
Zn924  Zn    0.83333   0.16667   0.78229   0.00000  Uiso   1.00
C925   C     0.16663   0.42020   0.83335   0.00000  Uiso   1.00
C926   C     0.12135   0.35472   0.84257   0.00000  Uiso   1.00
C927   C     0.16666   0.62387   0.83323   0.00000  Uiso   1.00
C928   C     0.16668   0.37613   0.83344   0.00000  Uiso   1.00
C929   C     0.19952   0.52621   0.69507   0.00000  Uiso   1.00
C930   C     0.13382   0.47379   0.97160   0.00000  Uiso   1.00
C931   C     0.19931   0.52603   0.98016   0.00000  Uiso   1.00
C932   C     0.13403   0.47397   0.68651   0.00000  Uiso   1.00
C933   C     0.16670   0.57980   0.83332   0.00000  Uiso   1.00
C934   C     0.06706   0.49998   0.82138   0.00000  Uiso   1.00
C935   C     0.26627   0.50002   0.84529   0.00000  Uiso   1.00
C936   C     0.01201   0.50003   0.81496   0.00000  Uiso   1.00
C937   C     0.32133   0.49997   0.85171   0.00000  Uiso   1.00
C938   C     0.21200   0.35508   0.82424   0.00000  Uiso   1.00
C939   C     0.12133   0.64492   0.84243   0.00000  Uiso   1.00
C940   C     0.21198   0.64527   0.82409   0.00000  Uiso   1.00
H941   H     0.32473   0.50013   0.78009   0.00000  Uiso   1.00
H942   H     0.07981   0.43078   0.96228   0.00000  Uiso   1.00
H943   H     0.00861   0.49987   0.88658   0.00000  Uiso   1.00
H944   H     0.22524   0.54672   0.96492   0.00000  Uiso   1.00
H945   H     0.10810   0.45328   0.70175   0.00000  Uiso   1.00
H946   H     0.25691   0.40513   0.82438   0.00000  Uiso   1.00
H947   H     0.07642   0.59487   0.84228   0.00000  Uiso   1.00
H948   H     0.25666   0.59542   0.82339   0.00000  Uiso   1.00
H949   H     0.07667   0.40458   0.84327   0.00000  Uiso   1.00
H950   H     0.25353   0.56922   0.70439   0.00000  Uiso   1.00
N951   N     0.16665   0.49999   0.95240   0.00000  Uiso   1.00
N952   N     0.16668   0.50001   0.71427   0.00000  Uiso   1.00
O953   O     0.16666   0.43892   0.87154   0.00000  Uiso   1.00
O954   O     0.07578   0.62483   0.85050   0.00000  Uiso   1.00
O955   O     0.25752   0.62556   0.81586   0.00000  Uiso   1.00
O956   O     0.07582   0.37444   0.85081   0.00000  Uiso   1.00
O957   O     0.23237   0.55245   0.72325   0.00000  Uiso   1.00
O958   O     0.10097   0.44755   0.94341   0.00000  Uiso   1.00
O959   O     0.16667   0.56108   0.79513   0.00000  Uiso   1.00
O960   O     0.16666   0.43893   0.79510   0.00000  Uiso   1.00
O961   O     0.16667   0.56107   0.87157   0.00000  Uiso   1.00
O962   O     0.09058   0.50000   0.86261   0.00000  Uiso   1.00
O963   O     0.24275   0.50000   0.80405   0.00000  Uiso   1.00
O964   O     0.09058   0.50000   0.78617   0.00000  Uiso   1.00
O965   O     0.24275   0.50000   0.88050   0.00000  Uiso   1.00
O966   O     0.25756   0.37517   0.81617   0.00000  Uiso   1.00
Zn967  Zn    0.16667   0.49999   0.88437   0.00000  Uiso   1.00
Zn968  Zn    0.16667   0.50001   0.78229   0.00000  Uiso   1.00
C969   C     0.49996   0.42020   0.83335   0.00000  Uiso   1.00
C970   C     0.45469   0.35472   0.84257   0.00000  Uiso   1.00
C971   C     0.49999   0.62387   0.83323   0.00000  Uiso   1.00
C972   C     0.50001   0.37613   0.83344   0.00000  Uiso   1.00
C973   C     0.53285   0.52621   0.69507   0.00000  Uiso   1.00
C974   C     0.46715   0.47379   0.97160   0.00000  Uiso   1.00
C975   C     0.53264   0.52603   0.98016   0.00000  Uiso   1.00
C976   C     0.46736   0.47397   0.68651   0.00000  Uiso   1.00
C977   C     0.50004   0.57980   0.83332   0.00000  Uiso   1.00
C978   C     0.40040   0.49998   0.82138   0.00000  Uiso   1.00
C979   C     0.59960   0.50002   0.84529   0.00000  Uiso   1.00
C980   C     0.34534   0.50003   0.81496   0.00000  Uiso   1.00
C981   C     0.65466   0.49997   0.85171   0.00000  Uiso   1.00
C982   C     0.54533   0.35508   0.82424   0.00000  Uiso   1.00
C983   C     0.45467   0.64492   0.84243   0.00000  Uiso   1.00
C984   C     0.54531   0.64527   0.82409   0.00000  Uiso   1.00
H985   H     0.65806   0.50013   0.78009   0.00000  Uiso   1.00
H986   H     0.41314   0.43078   0.96228   0.00000  Uiso   1.00
H987   H     0.34194   0.49987   0.88658   0.00000  Uiso   1.00
H988   H     0.55857   0.54672   0.96492   0.00000  Uiso   1.00
H989   H     0.44143   0.45328   0.70175   0.00000  Uiso   1.00
H990   H     0.59025   0.40513   0.82438   0.00000  Uiso   1.00
H991   H     0.40975   0.59487   0.84228   0.00000  Uiso   1.00
H992   H     0.58999   0.59542   0.82339   0.00000  Uiso   1.00
H993   H     0.41000   0.40458   0.84327   0.00000  Uiso   1.00
H994   H     0.58686   0.56922   0.70439   0.00000  Uiso   1.00
N995   N     0.49999   0.49999   0.95240   0.00000  Uiso   1.00
N996   N     0.50001   0.50001   0.71427   0.00000  Uiso   1.00
O997   O     0.50000   0.43892   0.87154   0.00000  Uiso   1.00
O998   O     0.40911   0.62483   0.85050   0.00000  Uiso   1.00
O999   O     0.59085   0.62556   0.81586   0.00000  Uiso   1.00
O1000  O     0.40915   0.37444   0.85081   0.00000  Uiso   1.00
O1001  O     0.56570   0.55245   0.72325   0.00000  Uiso   1.00
O1002  O     0.43430   0.44755   0.94341   0.00000  Uiso   1.00
O1003  O     0.50000   0.56108   0.79513   0.00000  Uiso   1.00
O1004  O     0.50000   0.43893   0.79510   0.00000  Uiso   1.00
O1005  O     0.50000   0.56107   0.87157   0.00000  Uiso   1.00
O1006  O     0.42392   0.50000   0.86261   0.00000  Uiso   1.00
O1007  O     0.57608   0.50000   0.80405   0.00000  Uiso   1.00
O1008  O     0.42392   0.50000   0.78617   0.00000  Uiso   1.00
O1009  O     0.57608   0.50000   0.88050   0.00000  Uiso   1.00
O1010  O     0.59089   0.37517   0.81617   0.00000  Uiso   1.00
Zn1011 Zn    0.50000   0.49999   0.88437   0.00000  Uiso   1.00
Zn1012 Zn    0.50000   0.50001   0.78229   0.00000  Uiso   1.00
C1013  C     0.83330   0.42020   0.83335   0.00000  Uiso   1.00
C1014  C     0.78802   0.35472   0.84257   0.00000  Uiso   1.00
C1015  C     0.83333   0.62387   0.83323   0.00000  Uiso   1.00
C1016  C     0.83334   0.37613   0.83344   0.00000  Uiso   1.00
C1017  C     0.86618   0.52621   0.69507   0.00000  Uiso   1.00
C1018  C     0.80048   0.47379   0.97160   0.00000  Uiso   1.00
C1019  C     0.86598   0.52603   0.98016   0.00000  Uiso   1.00
C1020  C     0.80069   0.47397   0.68651   0.00000  Uiso   1.00
C1021  C     0.83337   0.57980   0.83332   0.00000  Uiso   1.00
C1022  C     0.73373   0.49998   0.82138   0.00000  Uiso   1.00
C1023  C     0.93294   0.50002   0.84529   0.00000  Uiso   1.00
C1024  C     0.67868   0.50003   0.81496   0.00000  Uiso   1.00
C1025  C     0.98799   0.49997   0.85171   0.00000  Uiso   1.00
C1026  C     0.87867   0.35508   0.82424   0.00000  Uiso   1.00
C1027  C     0.78800   0.64492   0.84243   0.00000  Uiso   1.00
C1028  C     0.87865   0.64527   0.82409   0.00000  Uiso   1.00
H1029  H     0.99140   0.50013   0.78009   0.00000  Uiso   1.00
H1030  H     0.74647   0.43078   0.96228   0.00000  Uiso   1.00
H1031  H     0.67527   0.49987   0.88658   0.00000  Uiso   1.00
H1032  H     0.89191   0.54672   0.96492   0.00000  Uiso   1.00
H1033  H     0.77476   0.45328   0.70175   0.00000  Uiso   1.00
H1034  H     0.92358   0.40513   0.82438   0.00000  Uiso   1.00
H1035  H     0.74308   0.59487   0.84228   0.00000  Uiso   1.00
H1036  H     0.92333   0.59542   0.82339   0.00000  Uiso   1.00
H1037  H     0.74334   0.40458   0.84327   0.00000  Uiso   1.00
H1038  H     0.92019   0.56922   0.70439   0.00000  Uiso   1.00
N1039  N     0.83332   0.49999   0.95240   0.00000  Uiso   1.00
N1040  N     0.83335   0.50001   0.71427   0.00000  Uiso   1.00
O1041  O     0.83333   0.43892   0.87154   0.00000  Uiso   1.00
O1042  O     0.74245   0.62483   0.85050   0.00000  Uiso   1.00
O1043  O     0.92419   0.62556   0.81586   0.00000  Uiso   1.00
O1044  O     0.74248   0.37444   0.85081   0.00000  Uiso   1.00
O1045  O     0.89903   0.55245   0.72325   0.00000  Uiso   1.00
O1046  O     0.76763   0.44755   0.94341   0.00000  Uiso   1.00
O1047  O     0.83334   0.56108   0.79513   0.00000  Uiso   1.00
O1048  O     0.83333   0.43893   0.79510   0.00000  Uiso   1.00
O1049  O     0.83334   0.56107   0.87157   0.00000  Uiso   1.00
O1050  O     0.75725   0.50000   0.86261   0.00000  Uiso   1.00
O1051  O     0.90942   0.50000   0.80405   0.00000  Uiso   1.00
O1052  O     0.75725   0.50000   0.78617   0.00000  Uiso   1.00
O1053  O     0.90942   0.50000   0.88050   0.00000  Uiso   1.00
O1054  O     0.92422   0.37517   0.81617   0.00000  Uiso   1.00
Zn1055 Zn    0.83333   0.49999   0.88437   0.00000  Uiso   1.00
Zn1056 Zn    0.83333   0.50001   0.78229   0.00000  Uiso   1.00
C1057  C     0.16663   0.75354   0.83335   0.00000  Uiso   1.00
C1058  C     0.12135   0.68806   0.84257   0.00000  Uiso   1.00
C1059  C     0.16666   0.95720   0.83323   0.00000  Uiso   1.00
C1060  C     0.16668   0.70947   0.83344   0.00000  Uiso   1.00
C1061  C     0.19952   0.85954   0.69507   0.00000  Uiso   1.00
C1062  C     0.13382   0.80713   0.97160   0.00000  Uiso   1.00
C1063  C     0.19931   0.85937   0.98016   0.00000  Uiso   1.00
C1064  C     0.13403   0.80730   0.68651   0.00000  Uiso   1.00
C1065  C     0.16670   0.91313   0.83332   0.00000  Uiso   1.00
C1066  C     0.06706   0.83331   0.82138   0.00000  Uiso   1.00
C1067  C     0.26627   0.83335   0.84529   0.00000  Uiso   1.00
C1068  C     0.01201   0.83336   0.81496   0.00000  Uiso   1.00
C1069  C     0.32133   0.83331   0.85171   0.00000  Uiso   1.00
C1070  C     0.21200   0.68841   0.82424   0.00000  Uiso   1.00
C1071  C     0.12133   0.97826   0.84243   0.00000  Uiso   1.00
C1072  C     0.21198   0.97861   0.82409   0.00000  Uiso   1.00
H1073  H     0.32473   0.83346   0.78009   0.00000  Uiso   1.00
H1074  H     0.07981   0.76411   0.96228   0.00000  Uiso   1.00
H1075  H     0.00861   0.83321   0.88658   0.00000  Uiso   1.00
H1076  H     0.22524   0.88005   0.96492   0.00000  Uiso   1.00
H1077  H     0.10810   0.78662   0.70175   0.00000  Uiso   1.00
H1078  H     0.25691   0.73847   0.82438   0.00000  Uiso   1.00
H1079  H     0.07642   0.92820   0.84228   0.00000  Uiso   1.00
H1080  H     0.25666   0.92875   0.82339   0.00000  Uiso   1.00
H1081  H     0.07667   0.73792   0.84327   0.00000  Uiso   1.00
H1082  H     0.25353   0.90255   0.70439   0.00000  Uiso   1.00
N1083  N     0.16665   0.83332   0.95240   0.00000  Uiso   1.00
N1084  N     0.16668   0.83334   0.71427   0.00000  Uiso   1.00
O1085  O     0.16666   0.77225   0.87154   0.00000  Uiso   1.00
O1086  O     0.07578   0.95817   0.85050   0.00000  Uiso   1.00
O1087  O     0.25752   0.95889   0.81586   0.00000  Uiso   1.00
O1088  O     0.07582   0.70778   0.85081   0.00000  Uiso   1.00
O1089  O     0.23237   0.88579   0.72325   0.00000  Uiso   1.00
O1090  O     0.10097   0.78088   0.94341   0.00000  Uiso   1.00
O1091  O     0.16667   0.89442   0.79513   0.00000  Uiso   1.00
O1092  O     0.16666   0.77226   0.79510   0.00000  Uiso   1.00
O1093  O     0.16667   0.89441   0.87157   0.00000  Uiso   1.00
O1094  O     0.09058   0.83333   0.86261   0.00000  Uiso   1.00
O1095  O     0.24275   0.83334   0.80405   0.00000  Uiso   1.00
O1096  O     0.09058   0.83334   0.78617   0.00000  Uiso   1.00
O1097  O     0.24275   0.83333   0.88050   0.00000  Uiso   1.00
O1098  O     0.25756   0.70850   0.81617   0.00000  Uiso   1.00
Zn1099 Zn    0.16667   0.83333   0.88437   0.00000  Uiso   1.00
Zn1100 Zn    0.16667   0.83334   0.78229   0.00000  Uiso   1.00
C1101  C     0.49996   0.75354   0.83335   0.00000  Uiso   1.00
C1102  C     0.45469   0.68806   0.84257   0.00000  Uiso   1.00
C1103  C     0.49999   0.95720   0.83323   0.00000  Uiso   1.00
C1104  C     0.50001   0.70947   0.83344   0.00000  Uiso   1.00
C1105  C     0.53285   0.85954   0.69507   0.00000  Uiso   1.00
C1106  C     0.46715   0.80713   0.97160   0.00000  Uiso   1.00
C1107  C     0.53264   0.85937   0.98016   0.00000  Uiso   1.00
C1108  C     0.46736   0.80730   0.68651   0.00000  Uiso   1.00
C1109  C     0.50004   0.91313   0.83332   0.00000  Uiso   1.00
C1110  C     0.40040   0.83331   0.82138   0.00000  Uiso   1.00
C1111  C     0.59960   0.83335   0.84529   0.00000  Uiso   1.00
C1112  C     0.34534   0.83336   0.81496   0.00000  Uiso   1.00
C1113  C     0.65466   0.83331   0.85171   0.00000  Uiso   1.00
C1114  C     0.54533   0.68841   0.82424   0.00000  Uiso   1.00
C1115  C     0.45467   0.97826   0.84243   0.00000  Uiso   1.00
C1116  C     0.54531   0.97861   0.82409   0.00000  Uiso   1.00
H1117  H     0.65806   0.83346   0.78009   0.00000  Uiso   1.00
H1118  H     0.41314   0.76411   0.96228   0.00000  Uiso   1.00
H1119  H     0.34194   0.83321   0.88658   0.00000  Uiso   1.00
H1120  H     0.55857   0.88005   0.96492   0.00000  Uiso   1.00
H1121  H     0.44143   0.78662   0.70175   0.00000  Uiso   1.00
H1122  H     0.59025   0.73847   0.82438   0.00000  Uiso   1.00
H1123  H     0.40975   0.92820   0.84228   0.00000  Uiso   1.00
H1124  H     0.58999   0.92875   0.82339   0.00000  Uiso   1.00
H1125  H     0.41000   0.73792   0.84327   0.00000  Uiso   1.00
H1126  H     0.58686   0.90255   0.70439   0.00000  Uiso   1.00
N1127  N     0.49999   0.83332   0.95240   0.00000  Uiso   1.00
N1128  N     0.50001   0.83334   0.71427   0.00000  Uiso   1.00
O1129  O     0.50000   0.77225   0.87154   0.00000  Uiso   1.00
O1130  O     0.40911   0.95817   0.85050   0.00000  Uiso   1.00
O1131  O     0.59085   0.95889   0.81586   0.00000  Uiso   1.00
O1132  O     0.40915   0.70778   0.85081   0.00000  Uiso   1.00
O1133  O     0.56570   0.88579   0.72325   0.00000  Uiso   1.00
O1134  O     0.43430   0.78088   0.94341   0.00000  Uiso   1.00
O1135  O     0.50000   0.89442   0.79513   0.00000  Uiso   1.00
O1136  O     0.50000   0.77226   0.79510   0.00000  Uiso   1.00
O1137  O     0.50000   0.89441   0.87157   0.00000  Uiso   1.00
O1138  O     0.42392   0.83333   0.86261   0.00000  Uiso   1.00
O1139  O     0.57608   0.83334   0.80405   0.00000  Uiso   1.00
O1140  O     0.42392   0.83334   0.78617   0.00000  Uiso   1.00
O1141  O     0.57608   0.83333   0.88050   0.00000  Uiso   1.00
O1142  O     0.59089   0.70850   0.81617   0.00000  Uiso   1.00
Zn1143 Zn    0.50000   0.83333   0.88437   0.00000  Uiso   1.00
Zn1144 Zn    0.50000   0.83334   0.78229   0.00000  Uiso   1.00
C1145  C     0.83330   0.75354   0.83335   0.00000  Uiso   1.00
C1146  C     0.78802   0.68806   0.84257   0.00000  Uiso   1.00
C1147  C     0.83333   0.95720   0.83323   0.00000  Uiso   1.00
C1148  C     0.83334   0.70947   0.83344   0.00000  Uiso   1.00
C1149  C     0.86618   0.85954   0.69507   0.00000  Uiso   1.00
C1150  C     0.80048   0.80713   0.97160   0.00000  Uiso   1.00
C1151  C     0.86598   0.85937   0.98016   0.00000  Uiso   1.00
C1152  C     0.80069   0.80730   0.68651   0.00000  Uiso   1.00
C1153  C     0.83337   0.91313   0.83332   0.00000  Uiso   1.00
C1154  C     0.73373   0.83331   0.82138   0.00000  Uiso   1.00
C1155  C     0.93294   0.83335   0.84529   0.00000  Uiso   1.00
C1156  C     0.67868   0.83336   0.81496   0.00000  Uiso   1.00
C1157  C     0.98799   0.83331   0.85171   0.00000  Uiso   1.00
C1158  C     0.87867   0.68841   0.82424   0.00000  Uiso   1.00
C1159  C     0.78800   0.97826   0.84243   0.00000  Uiso   1.00
C1160  C     0.87865   0.97861   0.82409   0.00000  Uiso   1.00
H1161  H     0.99140   0.83346   0.78009   0.00000  Uiso   1.00
H1162  H     0.74647   0.76411   0.96228   0.00000  Uiso   1.00
H1163  H     0.67527   0.83321   0.88658   0.00000  Uiso   1.00
H1164  H     0.89191   0.88005   0.96492   0.00000  Uiso   1.00
H1165  H     0.77476   0.78662   0.70175   0.00000  Uiso   1.00
H1166  H     0.92358   0.73847   0.82438   0.00000  Uiso   1.00
H1167  H     0.74308   0.92820   0.84228   0.00000  Uiso   1.00
H1168  H     0.92333   0.92875   0.82339   0.00000  Uiso   1.00
H1169  H     0.74334   0.73792   0.84327   0.00000  Uiso   1.00
H1170  H     0.92019   0.90255   0.70439   0.00000  Uiso   1.00
N1171  N     0.83332   0.83332   0.95240   0.00000  Uiso   1.00
N1172  N     0.83335   0.83334   0.71427   0.00000  Uiso   1.00
O1173  O     0.83333   0.77225   0.87154   0.00000  Uiso   1.00
O1174  O     0.74245   0.95817   0.85050   0.00000  Uiso   1.00
O1175  O     0.92419   0.95889   0.81586   0.00000  Uiso   1.00
O1176  O     0.74248   0.70778   0.85081   0.00000  Uiso   1.00
O1177  O     0.89903   0.88579   0.72325   0.00000  Uiso   1.00
O1178  O     0.76763   0.78088   0.94341   0.00000  Uiso   1.00
O1179  O     0.83334   0.89442   0.79513   0.00000  Uiso   1.00
O1180  O     0.83333   0.77226   0.79510   0.00000  Uiso   1.00
O1181  O     0.83334   0.89441   0.87157   0.00000  Uiso   1.00
O1182  O     0.75725   0.83333   0.86261   0.00000  Uiso   1.00
O1183  O     0.90942   0.83334   0.80405   0.00000  Uiso   1.00
O1184  O     0.75725   0.83334   0.78617   0.00000  Uiso   1.00
O1185  O     0.90942   0.83333   0.88050   0.00000  Uiso   1.00
O1186  O     0.92422   0.70850   0.81617   0.00000  Uiso   1.00
Zn1187 Zn    0.83333   0.83333   0.88437   0.00000  Uiso   1.00
Zn1188 Zn    0.83333   0.83334   0.78229   0.00000  Uiso   1.00
loop_
_geom_bond_atom_site_label_1
_geom_bond_atom_site_label_2
_geom_bond_distance
_geom_bond_site_symmetry_2
_ccdc_geom_bond_type
C1     C4      1.406   .     S
C1     O29     1.280   .     A
C1     O36     1.280   .     A
C2     C4      1.411   .     A
C2     O32     1.387   .     S
C2     C279    1.377   1_545 S
C3     C9      1.406   .     S
C3     C15     1.411   .     A
C3     C16     1.411   .     A
C4     C14     1.411   .     A
C5     N28     1.369   .     A
C5     O33     1.378   .     S
C5     C799    1.428   1_554 S
C6     N27     1.369   .     A
C6     O34     1.378   .     S
C6     C404    1.428   .     S
C7     N27     1.365   .     A
C7     H20     1.082   .     S
C7     C401    1.428   .     S
C8     H21     1.082   .     S
C8     N28     1.365   .     A
C8     C798    1.428   1_554 S
C9     O37     1.280   .     A
C9     O35     1.280   .     A
C10    O38     1.279   .     A
C10    C12     1.402   .     S
C10    O40     1.282   .     A
C11    O39     1.279   .     A
C11    O41     1.282   .     A
C11    C13     1.402   .     S
C12    C101    1.330   1_455 S
C12    H105    1.088   1_455 S
C13    C56     1.330   .     S
C13    H63     1.088   .     S
C14    O42     1.386   .     S
C14    C280    1.377   1_545 S
C15    O30     1.386   .     S
C15    C134    1.377   .     S
C16    O31     1.387   .     S
C16    C146    1.377   .     S
H17    C56     1.088   .     S
H18    O34     0.992   .     S
H19    C101    1.088   1_455 S
H22    O42     0.988   .     S
H23    O30     0.988   .     S
H24    O31     0.988   .     S
H25    O32     0.988   .     S
H26    O33     0.992   .     S
N27    Zn43    2.014   .     S
N28    Zn44    2.014   .     S
O29    Zn43    1.986   .     S
O35    Zn44    1.986   .     S
O36    Zn44    1.985   .     S
O37    Zn43    1.985   .     S
O38    Zn43    1.969   .     S
O39    Zn44    1.969   .     S
O40    Zn44    1.980   .     S
O41    Zn43    1.980   .     S
C45    C48     1.406   .     S
C45    O73     1.280   .     A
C45    O80     1.280   .     A
C46    C48     1.411   .     A
C46    O76     1.387   .     S
C46    C323    1.377   1_545 S
C47    C53     1.406   .     S
C47    C59     1.411   .     A
C47    C60     1.411   .     A
C48    C58     1.411   .     A
C49    N72     1.369   .     A
C49    O77     1.378   .     S
C49    C843    1.428   1_554 S
C50    N71     1.369   .     A
C50    O78     1.378   .     S
C50    C448    1.428   .     S
C51    N71     1.365   .     A
C51    H64     1.082   .     S
C51    C445    1.428   .     S
C52    H65     1.082   .     S
C52    N72     1.365   .     A
C52    C842    1.428   1_554 S
C53    O81     1.280   .     A
C53    O79     1.280   .     A
C54    O82     1.279   .     A
C54    C56     1.402   .     S
C54    O84     1.282   .     A
C55    O83     1.279   .     A
C55    O85     1.282   .     A
C55    C57     1.402   .     S
C57    C100    1.330   .     S
C57    H107    1.088   .     S
C58    O86     1.386   .     S
C58    C324    1.377   1_545 S
C59    O74     1.386   .     S
C59    C178    1.377   .     S
C60    O75     1.387   .     S
C60    C190    1.377   .     S
H61    C100    1.088   .     S
H62    O78     0.992   .     S
H66    O86     0.988   .     S
H67    O74     0.988   .     S
H68    O75     0.988   .     S
H69    O76     0.988   .     S
H70    O77     0.992   .     S
N71    Zn87    2.014   .     S
N72    Zn88    2.014   .     S
O73    Zn87    1.986   .     S
O79    Zn88    1.986   .     S
O80    Zn88    1.985   .     S
O81    Zn87    1.985   .     S
O82    Zn87    1.969   .     S
O83    Zn88    1.969   .     S
O84    Zn88    1.980   .     S
O85    Zn87    1.980   .     S
C89    C92     1.406   .     S
C89    O117    1.280   .     A
C89    O124    1.280   .     A
C90    C92     1.411   .     A
C90    O120    1.387   .     S
C90    C367    1.377   1_545 S
C91    C97     1.406   .     S
C91    C103    1.411   .     A
C91    C104    1.411   .     A
C92    C102    1.411   .     A
C93    N116    1.369   .     A
C93    O121    1.378   .     S
C93    C887    1.428   1_554 S
C94    N115    1.369   .     A
C94    O122    1.378   .     S
C94    C492    1.428   .     S
C95    N115    1.365   .     A
C95    H108    1.082   .     S
C95    C489    1.428   .     S
C96    H109    1.082   .     S
C96    N116    1.365   .     A
C96    C886    1.428   1_554 S
C97    O125    1.280   .     A
C97    O123    1.280   .     A
C98    O126    1.279   .     A
C98    C100    1.402   .     S
C98    O128    1.282   .     A
C99    O127    1.279   .     A
C99    O129    1.282   .     A
C99    C101    1.402   .     S
C101   C12     1.330   1_655 S
C101   H19     1.088   1_655 S
C102   O130    1.386   .     S
C102   C368    1.377   1_545 S
C103   O118    1.386   .     S
C103   C222    1.377   .     S
C104   O119    1.387   .     S
C104   C234    1.377   .     S
H105   C12     1.088   1_655 S
H106   O122    0.992   .     S
H110   O130    0.988   .     S
H111   O118    0.988   .     S
H112   O119    0.988   .     S
H113   O120    0.988   .     S
H114   O121    0.992   .     S
N115   Zn131   2.014   .     S
N116   Zn132   2.014   .     S
O117   Zn131   1.986   .     S
O123   Zn132   1.986   .     S
O124   Zn132   1.985   .     S
O125   Zn131   1.985   .     S
O126   Zn131   1.969   .     S
O127   Zn132   1.969   .     S
O128   Zn132   1.980   .     S
O129   Zn131   1.980   .     S
C133   C136    1.406   .     S
C133   O161    1.280   .     A
C133   O168    1.280   .     A
C134   C136    1.411   .     A
C134   O164    1.387   .     S
C135   C141    1.406   .     S
C135   C147    1.411   .     A
C135   C148    1.411   .     A
C136   C146    1.411   .     A
C137   N160    1.369   .     A
C137   O165    1.378   .     S
C137   C931    1.428   1_554 S
C138   N159    1.369   .     A
C138   O166    1.378   .     S
C138   C536    1.428   .     S
C139   N159    1.365   .     A
C139   H152    1.082   .     S
C139   C533    1.428   .     S
C140   H153    1.082   .     S
C140   N160    1.365   .     A
C140   C930    1.428   1_554 S
C141   O169    1.280   .     A
C141   O167    1.280   .     A
C142   O170    1.279   .     A
C142   C144    1.402   .     S
C142   O172    1.282   .     A
C143   O171    1.279   .     A
C143   O173    1.282   .     A
C143   C145    1.402   .     S
C144   C233    1.330   1_455 S
C144   H237    1.088   1_455 S
C145   C188    1.330   .     S
C145   H195    1.088   .     S
C146   O174    1.386   .     S
C147   O162    1.386   .     S
C147   C266    1.377   .     S
C148   O163    1.387   .     S
C148   C278    1.377   .     S
H149   C188    1.088   .     S
H150   O166    0.992   .     S
H151   C233    1.088   1_455 S
H154   O174    0.988   .     S
H155   O162    0.988   .     S
H156   O163    0.988   .     S
H157   O164    0.988   .     S
H158   O165    0.992   .     S
N159   Zn175   2.014   .     S
N160   Zn176   2.014   .     S
O161   Zn175   1.986   .     S
O167   Zn176   1.986   .     S
O168   Zn176   1.985   .     S
O169   Zn175   1.985   .     S
O170   Zn175   1.969   .     S
O171   Zn176   1.969   .     S
O172   Zn176   1.980   .     S
O173   Zn175   1.980   .     S
C177   C180    1.406   .     S
C177   O205    1.280   .     A
C177   O212    1.280   .     A
C178   C180    1.411   .     A
C178   O208    1.387   .     S
C179   C185    1.406   .     S
C179   C191    1.411   .     A
C179   C192    1.411   .     A
C180   C190    1.411   .     A
C181   N204    1.369   .     A
C181   O209    1.378   .     S
C181   C975    1.428   1_554 S
C182   N203    1.369   .     A
C182   O210    1.378   .     S
C182   C580    1.428   .     S
C183   N203    1.365   .     A
C183   H196    1.082   .     S
C183   C577    1.428   .     S
C184   H197    1.082   .     S
C184   N204    1.365   .     A
C184   C974    1.428   1_554 S
C185   O213    1.280   .     A
C185   O211    1.280   .     A
C186   O214    1.279   .     A
C186   C188    1.402   .     S
C186   O216    1.282   .     A
C187   O215    1.279   .     A
C187   O217    1.282   .     A
C187   C189    1.402   .     S
C189   C232    1.330   .     S
C189   H239    1.088   .     S
C190   O218    1.386   .     S
C191   O206    1.386   .     S
C191   C310    1.377   .     S
C192   O207    1.387   .     S
C192   C322    1.377   .     S
H193   C232    1.088   .     S
H194   O210    0.992   .     S
H198   O218    0.988   .     S
H199   O206    0.988   .     S
H200   O207    0.988   .     S
H201   O208    0.988   .     S
H202   O209    0.992   .     S
N203   Zn219   2.014   .     S
N204   Zn220   2.014   .     S
O205   Zn219   1.986   .     S
O211   Zn220   1.986   .     S
O212   Zn220   1.985   .     S
O213   Zn219   1.985   .     S
O214   Zn219   1.969   .     S
O215   Zn220   1.969   .     S
O216   Zn220   1.980   .     S
O217   Zn219   1.980   .     S
C221   C224    1.406   .     S
C221   O249    1.280   .     A
C221   O256    1.280   .     A
C222   C224    1.411   .     A
C222   O252    1.387   .     S
C223   C229    1.406   .     S
C223   C235    1.411   .     A
C223   C236    1.411   .     A
C224   C234    1.411   .     A
C225   N248    1.369   .     A
C225   O253    1.378   .     S
C225   C1019   1.428   1_554 S
C226   N247    1.369   .     A
C226   O254    1.378   .     S
C226   C624    1.428   .     S
C227   N247    1.365   .     A
C227   H240    1.082   .     S
C227   C621    1.428   .     S
C228   H241    1.082   .     S
C228   N248    1.365   .     A
C228   C1018   1.428   1_554 S
C229   O257    1.280   .     A
C229   O255    1.280   .     A
C230   O258    1.279   .     A
C230   C232    1.402   .     S
C230   O260    1.282   .     A
C231   O259    1.279   .     A
C231   O261    1.282   .     A
C231   C233    1.402   .     S
C233   C144    1.330   1_655 S
C233   H151    1.088   1_655 S
C234   O262    1.386   .     S
C235   O250    1.386   .     S
C235   C354    1.377   .     S
C236   O251    1.387   .     S
C236   C366    1.377   .     S
H237   C144    1.088   1_655 S
H238   O254    0.992   .     S
H242   O262    0.988   .     S
H243   O250    0.988   .     S
H244   O251    0.988   .     S
H245   O252    0.988   .     S
H246   O253    0.992   .     S
N247   Zn263   2.014   .     S
N248   Zn264   2.014   .     S
O249   Zn263   1.986   .     S
O255   Zn264   1.986   .     S
O256   Zn264   1.985   .     S
O257   Zn263   1.985   .     S
O258   Zn263   1.969   .     S
O259   Zn264   1.969   .     S
O260   Zn264   1.980   .     S
O261   Zn263   1.980   .     S
C265   C268    1.406   .     S
C265   O293    1.280   .     A
C265   O300    1.280   .     A
C266   C268    1.411   .     A
C266   O296    1.387   .     S
C267   C273    1.406   .     S
C267   C279    1.411   .     A
C267   C280    1.411   .     A
C268   C278    1.411   .     A
C269   N292    1.369   .     A
C269   O297    1.378   .     S
C269   C1063   1.428   1_554 S
C270   N291    1.369   .     A
C270   O298    1.378   .     S
C270   C668    1.428   .     S
C271   N291    1.365   .     A
C271   H284    1.082   .     S
C271   C665    1.428   .     S
C272   H285    1.082   .     S
C272   N292    1.365   .     A
C272   C1062   1.428   1_554 S
C273   O301    1.280   .     A
C273   O299    1.280   .     A
C274   O302    1.279   .     A
C274   C276    1.402   .     S
C274   O304    1.282   .     A
C275   O303    1.279   .     A
C275   O305    1.282   .     A
C275   C277    1.402   .     S
C276   C365    1.330   1_455 S
C276   H369    1.088   1_455 S
C277   C320    1.330   .     S
C277   H327    1.088   .     S
C278   O306    1.386   .     S
C279   O294    1.386   .     S
C279   C2      1.377   1_565 S
C280   O295    1.387   .     S
C280   C14     1.377   1_565 S
H281   C320    1.088   .     S
H282   O298    0.992   .     S
H283   C365    1.088   1_455 S
H286   O306    0.988   .     S
H287   O294    0.988   .     S
H288   O295    0.988   .     S
H289   O296    0.988   .     S
H290   O297    0.992   .     S
N291   Zn307   2.014   .     S
N292   Zn308   2.014   .     S
O293   Zn307   1.986   .     S
O299   Zn308   1.986   .     S
O300   Zn308   1.985   .     S
O301   Zn307   1.985   .     S
O302   Zn307   1.969   .     S
O303   Zn308   1.969   .     S
O304   Zn308   1.980   .     S
O305   Zn307   1.980   .     S
C309   C312    1.406   .     S
C309   O337    1.280   .     A
C309   O344    1.280   .     A
C310   C312    1.411   .     A
C310   O340    1.387   .     S
C311   C317    1.406   .     S
C311   C323    1.411   .     A
C311   C324    1.411   .     A
C312   C322    1.411   .     A
C313   N336    1.369   .     A
C313   O341    1.378   .     S
C313   C1107   1.428   1_554 S
C314   N335    1.369   .     A
C314   O342    1.378   .     S
C314   C712    1.428   .     S
C315   N335    1.365   .     A
C315   H328    1.082   .     S
C315   C709    1.428   .     S
C316   H329    1.082   .     S
C316   N336    1.365   .     A
C316   C1106   1.428   1_554 S
C317   O345    1.280   .     A
C317   O343    1.280   .     A
C318   O346    1.279   .     A
C318   C320    1.402   .     S
C318   O348    1.282   .     A
C319   O347    1.279   .     A
C319   O349    1.282   .     A
C319   C321    1.402   .     S
C321   C364    1.330   .     S
C321   H371    1.088   .     S
C322   O350    1.386   .     S
C323   O338    1.386   .     S
C323   C46     1.377   1_565 S
C324   O339    1.387   .     S
C324   C58     1.377   1_565 S
H325   C364    1.088   .     S
H326   O342    0.992   .     S
H330   O350    0.988   .     S
H331   O338    0.988   .     S
H332   O339    0.988   .     S
H333   O340    0.988   .     S
H334   O341    0.992   .     S
N335   Zn351   2.014   .     S
N336   Zn352   2.014   .     S
O337   Zn351   1.986   .     S
O343   Zn352   1.986   .     S
O344   Zn352   1.985   .     S
O345   Zn351   1.985   .     S
O346   Zn351   1.969   .     S
O347   Zn352   1.969   .     S
O348   Zn352   1.980   .     S
O349   Zn351   1.980   .     S
C353   C356    1.406   .     S
C353   O381    1.280   .     A
C353   O388    1.280   .     A
C354   C356    1.411   .     A
C354   O384    1.387   .     S
C355   C361    1.406   .     S
C355   C367    1.411   .     A
C355   C368    1.411   .     A
C356   C366    1.411   .     A
C357   N380    1.369   .     A
C357   O385    1.378   .     S
C357   C1151   1.428   1_554 S
C358   N379    1.369   .     A
C358   O386    1.378   .     S
C358   C756    1.428   .     S
C359   N379    1.365   .     A
C359   H372    1.082   .     S
C359   C753    1.428   .     S
C360   H373    1.082   .     S
C360   N380    1.365   .     A
C360   C1150   1.428   1_554 S
C361   O389    1.280   .     A
C361   O387    1.280   .     A
C362   O390    1.279   .     A
C362   C364    1.402   .     S
C362   O392    1.282   .     A
C363   O391    1.279   .     A
C363   O393    1.282   .     A
C363   C365    1.402   .     S
C365   C276    1.330   1_655 S
C365   H283    1.088   1_655 S
C366   O394    1.386   .     S
C367   O382    1.386   .     S
C367   C90     1.377   1_565 S
C368   O383    1.387   .     S
C368   C102    1.377   1_565 S
H369   C276    1.088   1_655 S
H370   O386    0.992   .     S
H374   O394    0.988   .     S
H375   O382    0.988   .     S
H376   O383    0.988   .     S
H377   O384    0.988   .     S
H378   O385    0.992   .     S
N379   Zn395   2.014   .     S
N380   Zn396   2.014   .     S
O381   Zn395   1.986   .     S
O387   Zn396   1.986   .     S
O388   Zn396   1.985   .     S
O389   Zn395   1.985   .     S
O390   Zn395   1.969   .     S
O391   Zn396   1.969   .     S
O392   Zn396   1.980   .     S
O393   Zn395   1.980   .     S
C397   C400    1.406   .     S
C397   O425    1.280   .     A
C397   O432    1.280   .     A
C398   C400    1.411   .     A
C398   O428    1.387   .     S
C398   C675    1.377   1_545 S
C399   C405    1.406   .     S
C399   C411    1.411   .     A
C399   C412    1.411   .     A
C400   C410    1.411   .     A
C401   N424    1.369   .     A
C401   O429    1.378   .     S
C402   N423    1.369   .     A
C402   O430    1.378   .     S
C402   C800    1.428   .     S
C403   N423    1.365   .     A
C403   H416    1.082   .     S
C403   C797    1.428   .     S
C404   H417    1.082   .     S
C404   N424    1.365   .     A
C405   O433    1.280   .     A
C405   O431    1.280   .     A
C406   O434    1.279   .     A
C406   C408    1.402   .     S
C406   O436    1.282   .     A
C407   O435    1.279   .     A
C407   O437    1.282   .     A
C407   C409    1.402   .     S
C408   C497    1.330   1_455 S
C408   H501    1.088   1_455 S
C409   C452    1.330   .     S
C409   H459    1.088   .     S
C410   O438    1.386   .     S
C410   C676    1.377   1_545 S
C411   O426    1.386   .     S
C411   C530    1.377   .     S
C412   O427    1.387   .     S
C412   C542    1.377   .     S
H413   C452    1.088   .     S
H414   O430    0.992   .     S
H415   C497    1.088   1_455 S
H418   O438    0.988   .     S
H419   O426    0.988   .     S
H420   O427    0.988   .     S
H421   O428    0.988   .     S
H422   O429    0.992   .     S
N423   Zn439   2.014   .     S
N424   Zn440   2.014   .     S
O425   Zn439   1.986   .     S
O431   Zn440   1.986   .     S
O432   Zn440   1.985   .     S
O433   Zn439   1.985   .     S
O434   Zn439   1.969   .     S
O435   Zn440   1.969   .     S
O436   Zn440   1.980   .     S
O437   Zn439   1.980   .     S
C441   C444    1.406   .     S
C441   O469    1.280   .     A
C441   O476    1.280   .     A
C442   C444    1.411   .     A
C442   O472    1.387   .     S
C442   C719    1.377   1_545 S
C443   C449    1.406   .     S
C443   C455    1.411   .     A
C443   C456    1.411   .     A
C444   C454    1.411   .     A
C445   N468    1.369   .     A
C445   O473    1.378   .     S
C446   N467    1.369   .     A
C446   O474    1.378   .     S
C446   C844    1.428   .     S
C447   N467    1.365   .     A
C447   H460    1.082   .     S
C447   C841    1.428   .     S
C448   H461    1.082   .     S
C448   N468    1.365   .     A
C449   O477    1.280   .     A
C449   O475    1.280   .     A
C450   O478    1.279   .     A
C450   C452    1.402   .     S
C450   O480    1.282   .     A
C451   O479    1.279   .     A
C451   O481    1.282   .     A
C451   C453    1.402   .     S
C453   C496    1.330   .     S
C453   H503    1.088   .     S
C454   O482    1.386   .     S
C454   C720    1.377   1_545 S
C455   O470    1.386   .     S
C455   C574    1.377   .     S
C456   O471    1.387   .     S
C456   C586    1.377   .     S
H457   C496    1.088   .     S
H458   O474    0.992   .     S
H462   O482    0.988   .     S
H463   O470    0.988   .     S
H464   O471    0.988   .     S
H465   O472    0.988   .     S
H466   O473    0.992   .     S
N467   Zn483   2.014   .     S
N468   Zn484   2.014   .     S
O469   Zn483   1.986   .     S
O475   Zn484   1.986   .     S
O476   Zn484   1.985   .     S
O477   Zn483   1.985   .     S
O478   Zn483   1.969   .     S
O479   Zn484   1.969   .     S
O480   Zn484   1.980   .     S
O481   Zn483   1.980   .     S
C485   C488    1.406   .     S
C485   O513    1.280   .     A
C485   O520    1.280   .     A
C486   C488    1.411   .     A
C486   O516    1.387   .     S
C486   C763    1.377   1_545 S
C487   C493    1.406   .     S
C487   C499    1.411   .     A
C487   C500    1.411   .     A
C488   C498    1.411   .     A
C489   N512    1.369   .     A
C489   O517    1.378   .     S
C490   N511    1.369   .     A
C490   O518    1.378   .     S
C490   C888    1.428   .     S
C491   N511    1.365   .     A
C491   H504    1.082   .     S
C491   C885    1.428   .     S
C492   H505    1.082   .     S
C492   N512    1.365   .     A
C493   O521    1.280   .     A
C493   O519    1.280   .     A
C494   O522    1.279   .     A
C494   C496    1.402   .     S
C494   O524    1.282   .     A
C495   O523    1.279   .     A
C495   O525    1.282   .     A
C495   C497    1.402   .     S
C497   C408    1.330   1_655 S
C497   H415    1.088   1_655 S
C498   O526    1.386   .     S
C498   C764    1.377   1_545 S
C499   O514    1.386   .     S
C499   C618    1.377   .     S
C500   O515    1.387   .     S
C500   C630    1.377   .     S
H501   C408    1.088   1_655 S
H502   O518    0.992   .     S
H506   O526    0.988   .     S
H507   O514    0.988   .     S
H508   O515    0.988   .     S
H509   O516    0.988   .     S
H510   O517    0.992   .     S
N511   Zn527   2.014   .     S
N512   Zn528   2.014   .     S
O513   Zn527   1.986   .     S
O519   Zn528   1.986   .     S
O520   Zn528   1.985   .     S
O521   Zn527   1.985   .     S
O522   Zn527   1.969   .     S
O523   Zn528   1.969   .     S
O524   Zn528   1.980   .     S
O525   Zn527   1.980   .     S
C529   C532    1.406   .     S
C529   O557    1.280   .     A
C529   O564    1.280   .     A
C530   C532    1.411   .     A
C530   O560    1.387   .     S
C531   C537    1.406   .     S
C531   C543    1.411   .     A
C531   C544    1.411   .     A
C532   C542    1.411   .     A
C533   N556    1.369   .     A
C533   O561    1.378   .     S
C534   N555    1.369   .     A
C534   O562    1.378   .     S
C534   C932    1.428   .     S
C535   N555    1.365   .     A
C535   H548    1.082   .     S
C535   C929    1.428   .     S
C536   H549    1.082   .     S
C536   N556    1.365   .     A
C537   O565    1.280   .     A
C537   O563    1.280   .     A
C538   O566    1.279   .     A
C538   C540    1.402   .     S
C538   O568    1.282   .     A
C539   O567    1.279   .     A
C539   O569    1.282   .     A
C539   C541    1.402   .     S
C540   C629    1.330   1_455 S
C540   H633    1.088   1_455 S
C541   C584    1.330   .     S
C541   H591    1.088   .     S
C542   O570    1.386   .     S
C543   O558    1.386   .     S
C543   C662    1.377   .     S
C544   O559    1.387   .     S
C544   C674    1.377   .     S
H545   C584    1.088   .     S
H546   O562    0.992   .     S
H547   C629    1.088   1_455 S
H550   O570    0.988   .     S
H551   O558    0.988   .     S
H552   O559    0.988   .     S
H553   O560    0.988   .     S
H554   O561    0.992   .     S
N555   Zn571   2.014   .     S
N556   Zn572   2.014   .     S
O557   Zn571   1.986   .     S
O563   Zn572   1.986   .     S
O564   Zn572   1.985   .     S
O565   Zn571   1.985   .     S
O566   Zn571   1.969   .     S
O567   Zn572   1.969   .     S
O568   Zn572   1.980   .     S
O569   Zn571   1.980   .     S
C573   C576    1.406   .     S
C573   O601    1.280   .     A
C573   O608    1.280   .     A
C574   C576    1.411   .     A
C574   O604    1.387   .     S
C575   C581    1.406   .     S
C575   C587    1.411   .     A
C575   C588    1.411   .     A
C576   C586    1.411   .     A
C577   N600    1.369   .     A
C577   O605    1.378   .     S
C578   N599    1.369   .     A
C578   O606    1.378   .     S
C578   C976    1.428   .     S
C579   N599    1.365   .     A
C579   H592    1.082   .     S
C579   C973    1.428   .     S
C580   H593    1.082   .     S
C580   N600    1.365   .     A
C581   O609    1.280   .     A
C581   O607    1.280   .     A
C582   O610    1.279   .     A
C582   C584    1.402   .     S
C582   O612    1.282   .     A
C583   O611    1.279   .     A
C583   O613    1.282   .     A
C583   C585    1.402   .     S
C585   C628    1.330   .     S
C585   H635    1.088   .     S
C586   O614    1.386   .     S
C587   O602    1.386   .     S
C587   C706    1.377   .     S
C588   O603    1.387   .     S
C588   C718    1.377   .     S
H589   C628    1.088   .     S
H590   O606    0.992   .     S
H594   O614    0.988   .     S
H595   O602    0.988   .     S
H596   O603    0.988   .     S
H597   O604    0.988   .     S
H598   O605    0.992   .     S
N599   Zn615   2.014   .     S
N600   Zn616   2.014   .     S
O601   Zn615   1.986   .     S
O607   Zn616   1.986   .     S
O608   Zn616   1.985   .     S
O609   Zn615   1.985   .     S
O610   Zn615   1.969   .     S
O611   Zn616   1.969   .     S
O612   Zn616   1.980   .     S
O613   Zn615   1.980   .     S
C617   C620    1.406   .     S
C617   O645    1.280   .     A
C617   O652    1.280   .     A
C618   C620    1.411   .     A
C618   O648    1.387   .     S
C619   C625    1.406   .     S
C619   C631    1.411   .     A
C619   C632    1.411   .     A
C620   C630    1.411   .     A
C621   N644    1.369   .     A
C621   O649    1.378   .     S
C622   N643    1.369   .     A
C622   O650    1.378   .     S
C622   C1020   1.428   .     S
C623   N643    1.365   .     A
C623   H636    1.082   .     S
C623   C1017   1.428   .     S
C624   H637    1.082   .     S
C624   N644    1.365   .     A
C625   O653    1.280   .     A
C625   O651    1.280   .     A
C626   O654    1.279   .     A
C626   C628    1.402   .     S
C626   O656    1.282   .     A
C627   O655    1.279   .     A
C627   O657    1.282   .     A
C627   C629    1.402   .     S
C629   C540    1.330   1_655 S
C629   H547    1.088   1_655 S
C630   O658    1.386   .     S
C631   O646    1.386   .     S
C631   C750    1.377   .     S
C632   O647    1.387   .     S
C632   C762    1.377   .     S
H633   C540    1.088   1_655 S
H634   O650    0.992   .     S
H638   O658    0.988   .     S
H639   O646    0.988   .     S
H640   O647    0.988   .     S
H641   O648    0.988   .     S
H642   O649    0.992   .     S
N643   Zn659   2.014   .     S
N644   Zn660   2.014   .     S
O645   Zn659   1.986   .     S
O651   Zn660   1.986   .     S
O652   Zn660   1.985   .     S
O653   Zn659   1.985   .     S
O654   Zn659   1.969   .     S
O655   Zn660   1.969   .     S
O656   Zn660   1.980   .     S
O657   Zn659   1.980   .     S
C661   C664    1.406   .     S
C661   O689    1.280   .     A
C661   O696    1.280   .     A
C662   C664    1.411   .     A
C662   O692    1.387   .     S
C663   C669    1.406   .     S
C663   C675    1.411   .     A
C663   C676    1.411   .     A
C664   C674    1.411   .     A
C665   N688    1.369   .     A
C665   O693    1.378   .     S
C666   N687    1.369   .     A
C666   O694    1.378   .     S
C666   C1064   1.428   .     S
C667   N687    1.365   .     A
C667   H680    1.082   .     S
C667   C1061   1.428   .     S
C668   H681    1.082   .     S
C668   N688    1.365   .     A
C669   O697    1.280   .     A
C669   O695    1.280   .     A
C670   O698    1.279   .     A
C670   C672    1.402   .     S
C670   O700    1.282   .     A
C671   O699    1.279   .     A
C671   O701    1.282   .     A
C671   C673    1.402   .     S
C672   C761    1.330   1_455 S
C672   H765    1.088   1_455 S
C673   C716    1.330   .     S
C673   H723    1.088   .     S
C674   O702    1.386   .     S
C675   O690    1.386   .     S
C675   C398    1.377   1_565 S
C676   O691    1.387   .     S
C676   C410    1.377   1_565 S
H677   C716    1.088   .     S
H678   O694    0.992   .     S
H679   C761    1.088   1_455 S
H682   O702    0.988   .     S
H683   O690    0.988   .     S
H684   O691    0.988   .     S
H685   O692    0.988   .     S
H686   O693    0.992   .     S
N687   Zn703   2.014   .     S
N688   Zn704   2.014   .     S
O689   Zn703   1.986   .     S
O695   Zn704   1.986   .     S
O696   Zn704   1.985   .     S
O697   Zn703   1.985   .     S
O698   Zn703   1.969   .     S
O699   Zn704   1.969   .     S
O700   Zn704   1.980   .     S
O701   Zn703   1.980   .     S
C705   C708    1.406   .     S
C705   O733    1.280   .     A
C705   O740    1.280   .     A
C706   C708    1.411   .     A
C706   O736    1.387   .     S
C707   C713    1.406   .     S
C707   C719    1.411   .     A
C707   C720    1.411   .     A
C708   C718    1.411   .     A
C709   N732    1.369   .     A
C709   O737    1.378   .     S
C710   N731    1.369   .     A
C710   O738    1.378   .     S
C710   C1108   1.428   .     S
C711   N731    1.365   .     A
C711   H724    1.082   .     S
C711   C1105   1.428   .     S
C712   H725    1.082   .     S
C712   N732    1.365   .     A
C713   O741    1.280   .     A
C713   O739    1.280   .     A
C714   O742    1.279   .     A
C714   C716    1.402   .     S
C714   O744    1.282   .     A
C715   O743    1.279   .     A
C715   O745    1.282   .     A
C715   C717    1.402   .     S
C717   C760    1.330   .     S
C717   H767    1.088   .     S
C718   O746    1.386   .     S
C719   O734    1.386   .     S
C719   C442    1.377   1_565 S
C720   O735    1.387   .     S
C720   C454    1.377   1_565 S
H721   C760    1.088   .     S
H722   O738    0.992   .     S
H726   O746    0.988   .     S
H727   O734    0.988   .     S
H728   O735    0.988   .     S
H729   O736    0.988   .     S
H730   O737    0.992   .     S
N731   Zn747   2.014   .     S
N732   Zn748   2.014   .     S
O733   Zn747   1.986   .     S
O739   Zn748   1.986   .     S
O740   Zn748   1.985   .     S
O741   Zn747   1.985   .     S
O742   Zn747   1.969   .     S
O743   Zn748   1.969   .     S
O744   Zn748   1.980   .     S
O745   Zn747   1.980   .     S
C749   C752    1.406   .     S
C749   O777    1.280   .     A
C749   O784    1.280   .     A
C750   C752    1.411   .     A
C750   O780    1.387   .     S
C751   C757    1.406   .     S
C751   C763    1.411   .     A
C751   C764    1.411   .     A
C752   C762    1.411   .     A
C753   N776    1.369   .     A
C753   O781    1.378   .     S
C754   N775    1.369   .     A
C754   O782    1.378   .     S
C754   C1152   1.428   .     S
C755   N775    1.365   .     A
C755   H768    1.082   .     S
C755   C1149   1.428   .     S
C756   H769    1.082   .     S
C756   N776    1.365   .     A
C757   O785    1.280   .     A
C757   O783    1.280   .     A
C758   O786    1.279   .     A
C758   C760    1.402   .     S
C758   O788    1.282   .     A
C759   O787    1.279   .     A
C759   O789    1.282   .     A
C759   C761    1.402   .     S
C761   C672    1.330   1_655 S
C761   H679    1.088   1_655 S
C762   O790    1.386   .     S
C763   O778    1.386   .     S
C763   C486    1.377   1_565 S
C764   O779    1.387   .     S
C764   C498    1.377   1_565 S
H765   C672    1.088   1_655 S
H766   O782    0.992   .     S
H770   O790    0.988   .     S
H771   O778    0.988   .     S
H772   O779    0.988   .     S
H773   O780    0.988   .     S
H774   O781    0.992   .     S
N775   Zn791   2.014   .     S
N776   Zn792   2.014   .     S
O777   Zn791   1.986   .     S
O783   Zn792   1.986   .     S
O784   Zn792   1.985   .     S
O785   Zn791   1.985   .     S
O786   Zn791   1.969   .     S
O787   Zn792   1.969   .     S
O788   Zn792   1.980   .     S
O789   Zn791   1.980   .     S
C793   C796    1.406   .     S
C793   O821    1.280   .     A
C793   O828    1.280   .     A
C794   C796    1.411   .     A
C794   O824    1.387   .     S
C794   C1071   1.377   1_545 S
C795   C801    1.406   .     S
C795   C807    1.411   .     A
C795   C808    1.411   .     A
C796   C806    1.411   .     A
C797   N820    1.369   .     A
C797   O825    1.378   .     S
C798   N819    1.369   .     A
C798   O826    1.378   .     S
C798   C8      1.428   1_556 S
C799   N819    1.365   .     A
C799   H812    1.082   .     S
C799   C5      1.428   1_556 S
C800   H813    1.082   .     S
C800   N820    1.365   .     A
C801   O829    1.280   .     A
C801   O827    1.280   .     A
C802   O830    1.279   .     A
C802   C804    1.402   .     S
C802   O832    1.282   .     A
C803   O831    1.279   .     A
C803   O833    1.282   .     A
C803   C805    1.402   .     S
C804   C893    1.330   1_455 S
C804   H897    1.088   1_455 S
C805   C848    1.330   .     S
C805   H855    1.088   .     S
C806   O834    1.386   .     S
C806   C1072   1.377   1_545 S
C807   O822    1.386   .     S
C807   C926    1.377   .     S
C808   O823    1.387   .     S
C808   C938    1.377   .     S
H809   C848    1.088   .     S
H810   O826    0.992   .     S
H811   C893    1.088   1_455 S
H814   O834    0.988   .     S
H815   O822    0.988   .     S
H816   O823    0.988   .     S
H817   O824    0.988   .     S
H818   O825    0.992   .     S
N819   Zn835   2.014   .     S
N820   Zn836   2.014   .     S
O821   Zn835   1.986   .     S
O827   Zn836   1.986   .     S
O828   Zn836   1.985   .     S
O829   Zn835   1.985   .     S
O830   Zn835   1.969   .     S
O831   Zn836   1.969   .     S
O832   Zn836   1.980   .     S
O833   Zn835   1.980   .     S
C837   C840    1.406   .     S
C837   O865    1.280   .     A
C837   O872    1.280   .     A
C838   C840    1.411   .     A
C838   O868    1.387   .     S
C838   C1115   1.377   1_545 S
C839   C845    1.406   .     S
C839   C851    1.411   .     A
C839   C852    1.411   .     A
C840   C850    1.411   .     A
C841   N864    1.369   .     A
C841   O869    1.378   .     S
C842   N863    1.369   .     A
C842   O870    1.378   .     S
C842   C52     1.428   1_556 S
C843   N863    1.365   .     A
C843   H856    1.082   .     S
C843   C49     1.428   1_556 S
C844   H857    1.082   .     S
C844   N864    1.365   .     A
C845   O873    1.280   .     A
C845   O871    1.280   .     A
C846   O874    1.279   .     A
C846   C848    1.402   .     S
C846   O876    1.282   .     A
C847   O875    1.279   .     A
C847   O877    1.282   .     A
C847   C849    1.402   .     S
C849   C892    1.330   .     S
C849   H899    1.088   .     S
C850   O878    1.386   .     S
C850   C1116   1.377   1_545 S
C851   O866    1.386   .     S
C851   C970    1.377   .     S
C852   O867    1.387   .     S
C852   C982    1.377   .     S
H853   C892    1.088   .     S
H854   O870    0.992   .     S
H858   O878    0.988   .     S
H859   O866    0.988   .     S
H860   O867    0.988   .     S
H861   O868    0.988   .     S
H862   O869    0.992   .     S
N863   Zn879   2.014   .     S
N864   Zn880   2.014   .     S
O865   Zn879   1.986   .     S
O871   Zn880   1.986   .     S
O872   Zn880   1.985   .     S
O873   Zn879   1.985   .     S
O874   Zn879   1.969   .     S
O875   Zn880   1.969   .     S
O876   Zn880   1.980   .     S
O877   Zn879   1.980   .     S
C881   C884    1.406   .     S
C881   O909    1.280   .     A
C881   O916    1.280   .     A
C882   C884    1.411   .     A
C882   O912    1.387   .     S
C882   C1159   1.377   1_545 S
C883   C889    1.406   .     S
C883   C895    1.411   .     A
C883   C896    1.411   .     A
C884   C894    1.411   .     A
C885   N908    1.369   .     A
C885   O913    1.378   .     S
C886   N907    1.369   .     A
C886   O914    1.378   .     S
C886   C96     1.428   1_556 S
C887   N907    1.365   .     A
C887   H900    1.082   .     S
C887   C93     1.428   1_556 S
C888   H901    1.082   .     S
C888   N908    1.365   .     A
C889   O917    1.280   .     A
C889   O915    1.280   .     A
C890   O918    1.279   .     A
C890   C892    1.402   .     S
C890   O920    1.282   .     A
C891   O919    1.279   .     A
C891   O921    1.282   .     A
C891   C893    1.402   .     S
C893   C804    1.330   1_655 S
C893   H811    1.088   1_655 S
C894   O922    1.386   .     S
C894   C1160   1.377   1_545 S
C895   O910    1.386   .     S
C895   C1014   1.377   .     S
C896   O911    1.387   .     S
C896   C1026   1.377   .     S
H897   C804    1.088   1_655 S
H898   O914    0.992   .     S
H902   O922    0.988   .     S
H903   O910    0.988   .     S
H904   O911    0.988   .     S
H905   O912    0.988   .     S
H906   O913    0.992   .     S
N907   Zn923   2.014   .     S
N908   Zn924   2.014   .     S
O909   Zn923   1.986   .     S
O915   Zn924   1.986   .     S
O916   Zn924   1.985   .     S
O917   Zn923   1.985   .     S
O918   Zn923   1.969   .     S
O919   Zn924   1.969   .     S
O920   Zn924   1.980   .     S
O921   Zn923   1.980   .     S
C925   C928    1.406   .     S
C925   O953    1.280   .     A
C925   O960    1.280   .     A
C926   C928    1.411   .     A
C926   O956    1.387   .     S
C927   C933    1.406   .     S
C927   C939    1.411   .     A
C927   C940    1.411   .     A
C928   C938    1.411   .     A
C929   N952    1.369   .     A
C929   O957    1.378   .     S
C930   N951    1.369   .     A
C930   O958    1.378   .     S
C930   C140    1.428   1_556 S
C931   N951    1.365   .     A
C931   H944    1.082   .     S
C931   C137    1.428   1_556 S
C932   H945    1.082   .     S
C932   N952    1.365   .     A
C933   O961    1.280   .     A
C933   O959    1.280   .     A
C934   O962    1.279   .     A
C934   C936    1.402   .     S
C934   O964    1.282   .     A
C935   O963    1.279   .     A
C935   O965    1.282   .     A
C935   C937    1.402   .     S
C936   C1025   1.330   1_455 S
C936   H1029   1.088   1_455 S
C937   C980    1.330   .     S
C937   H987    1.088   .     S
C938   O966    1.386   .     S
C939   O954    1.386   .     S
C939   C1058   1.377   .     S
C940   O955    1.387   .     S
C940   C1070   1.377   .     S
H941   C980    1.088   .     S
H942   O958    0.992   .     S
H943   C1025   1.088   1_455 S
H946   O966    0.988   .     S
H947   O954    0.988   .     S
H948   O955    0.988   .     S
H949   O956    0.988   .     S
H950   O957    0.992   .     S
N951   Zn967   2.014   .     S
N952   Zn968   2.014   .     S
O953   Zn967   1.986   .     S
O959   Zn968   1.986   .     S
O960   Zn968   1.985   .     S
O961   Zn967   1.985   .     S
O962   Zn967   1.969   .     S
O963   Zn968   1.969   .     S
O964   Zn968   1.980   .     S
O965   Zn967   1.980   .     S
C969   C972    1.406   .     S
C969   O997    1.280   .     A
C969   O1004   1.280   .     A
C970   C972    1.411   .     A
C970   O1000   1.387   .     S
C971   C977    1.406   .     S
C971   C983    1.411   .     A
C971   C984    1.411   .     A
C972   C982    1.411   .     A
C973   N996    1.369   .     A
C973   O1001   1.378   .     S
C974   N995    1.369   .     A
C974   O1002   1.378   .     S
C974   C184    1.428   1_556 S
C975   N995    1.365   .     A
C975   H988    1.082   .     S
C975   C181    1.428   1_556 S
C976   H989    1.082   .     S
C976   N996    1.365   .     A
C977   O1005   1.280   .     A
C977   O1003   1.280   .     A
C978   O1006   1.279   .     A
C978   C980    1.402   .     S
C978   O1008   1.282   .     A
C979   O1007   1.279   .     A
C979   O1009   1.282   .     A
C979   C981    1.402   .     S
C981   C1024   1.330   .     S
C981   H1031   1.088   .     S
C982   O1010   1.386   .     S
C983   O998    1.386   .     S
C983   C1102   1.377   .     S
C984   O999    1.387   .     S
C984   C1114   1.377   .     S
H985   C1024   1.088   .     S
H986   O1002   0.992   .     S
H990   O1010   0.988   .     S
H991   O998    0.988   .     S
H992   O999    0.988   .     S
H993   O1000   0.988   .     S
H994   O1001   0.992   .     S
N995   Zn1011  2.014   .     S
N996   Zn1012  2.014   .     S
O997   Zn1011  1.986   .     S
O1003  Zn1012  1.986   .     S
O1004  Zn1012  1.985   .     S
O1005  Zn1011  1.985   .     S
O1006  Zn1011  1.969   .     S
O1007  Zn1012  1.969   .     S
O1008  Zn1012  1.980   .     S
O1009  Zn1011  1.980   .     S
C1013  C1016   1.406   .     S
C1013  O1041   1.280   .     A
C1013  O1048   1.280   .     A
C1014  C1016   1.411   .     A
C1014  O1044   1.387   .     S
C1015  C1021   1.406   .     S
C1015  C1027   1.411   .     A
C1015  C1028   1.411   .     A
C1016  C1026   1.411   .     A
C1017  N1040   1.369   .     A
C1017  O1045   1.378   .     S
C1018  N1039   1.369   .     A
C1018  O1046   1.378   .     S
C1018  C228    1.428   1_556 S
C1019  N1039   1.365   .     A
C1019  H1032   1.082   .     S
C1019  C225    1.428   1_556 S
C1020  H1033   1.082   .     S
C1020  N1040   1.365   .     A
C1021  O1049   1.280   .     A
C1021  O1047   1.280   .     A
C1022  O1050   1.279   .     A
C1022  C1024   1.402   .     S
C1022  O1052   1.282   .     A
C1023  O1051   1.279   .     A
C1023  O1053   1.282   .     A
C1023  C1025   1.402   .     S
C1025  C936    1.330   1_655 S
C1025  H943    1.088   1_655 S
C1026  O1054   1.386   .     S
C1027  O1042   1.386   .     S
C1027  C1146   1.377   .     S
C1028  O1043   1.387   .     S
C1028  C1158   1.377   .     S
H1029  C936    1.088   1_655 S
H1030  O1046   0.992   .     S
H1034  O1054   0.988   .     S
H1035  O1042   0.988   .     S
H1036  O1043   0.988   .     S
H1037  O1044   0.988   .     S
H1038  O1045   0.992   .     S
N1039  Zn1055  2.014   .     S
N1040  Zn1056  2.014   .     S
O1041  Zn1055  1.986   .     S
O1047  Zn1056  1.986   .     S
O1048  Zn1056  1.985   .     S
O1049  Zn1055  1.985   .     S
O1050  Zn1055  1.969   .     S
O1051  Zn1056  1.969   .     S
O1052  Zn1056  1.980   .     S
O1053  Zn1055  1.980   .     S
C1057  C1060   1.406   .     S
C1057  O1085   1.280   .     A
C1057  O1092   1.280   .     A
C1058  C1060   1.411   .     A
C1058  O1088   1.387   .     S
C1059  C1065   1.406   .     S
C1059  C1071   1.411   .     A
C1059  C1072   1.411   .     A
C1060  C1070   1.411   .     A
C1061  N1084   1.369   .     A
C1061  O1089   1.378   .     S
C1062  N1083   1.369   .     A
C1062  O1090   1.378   .     S
C1062  C272    1.428   1_556 S
C1063  N1083   1.365   .     A
C1063  H1076   1.082   .     S
C1063  C269    1.428   1_556 S
C1064  H1077   1.082   .     S
C1064  N1084   1.365   .     A
C1065  O1093   1.280   .     A
C1065  O1091   1.280   .     A
C1066  O1094   1.279   .     A
C1066  C1068   1.402   .     S
C1066  O1096   1.282   .     A
C1067  O1095   1.279   .     A
C1067  O1097   1.282   .     A
C1067  C1069   1.402   .     S
C1068  C1157   1.330   1_455 S
C1068  H1161   1.088   1_455 S
C1069  C1112   1.330   .     S
C1069  H1119   1.088   .     S
C1070  O1098   1.386   .     S
C1071  O1086   1.386   .     S
C1071  C794    1.377   1_565 S
C1072  O1087   1.387   .     S
C1072  C806    1.377   1_565 S
H1073  C1112   1.088   .     S
H1074  O1090   0.992   .     S
H1075  C1157   1.088   1_455 S
H1078  O1098   0.988   .     S
H1079  O1086   0.988   .     S
H1080  O1087   0.988   .     S
H1081  O1088   0.988   .     S
H1082  O1089   0.992   .     S
N1083  Zn1099  2.014   .     S
N1084  Zn1100  2.014   .     S
O1085  Zn1099  1.986   .     S
O1091  Zn1100  1.986   .     S
O1092  Zn1100  1.985   .     S
O1093  Zn1099  1.985   .     S
O1094  Zn1099  1.969   .     S
O1095  Zn1100  1.969   .     S
O1096  Zn1100  1.980   .     S
O1097  Zn1099  1.980   .     S
C1101  C1104   1.406   .     S
C1101  O1129   1.280   .     A
C1101  O1136   1.280   .     A
C1102  C1104   1.411   .     A
C1102  O1132   1.387   .     S
C1103  C1109   1.406   .     S
C1103  C1115   1.411   .     A
C1103  C1116   1.411   .     A
C1104  C1114   1.411   .     A
C1105  N1128   1.369   .     A
C1105  O1133   1.378   .     S
C1106  N1127   1.369   .     A
C1106  O1134   1.378   .     S
C1106  C316    1.428   1_556 S
C1107  N1127   1.365   .     A
C1107  H1120   1.082   .     S
C1107  C313    1.428   1_556 S
C1108  H1121   1.082   .     S
C1108  N1128   1.365   .     A
C1109  O1137   1.280   .     A
C1109  O1135   1.280   .     A
C1110  O1138   1.279   .     A
C1110  C1112   1.402   .     S
C1110  O1140   1.282   .     A
C1111  O1139   1.279   .     A
C1111  O1141   1.282   .     A
C1111  C1113   1.402   .     S
C1113  C1156   1.330   .     S
C1113  H1163   1.088   .     S
C1114  O1142   1.386   .     S
C1115  O1130   1.386   .     S
C1115  C838    1.377   1_565 S
C1116  O1131   1.387   .     S
C1116  C850    1.377   1_565 S
H1117  C1156   1.088   .     S
H1118  O1134   0.992   .     S
H1122  O1142   0.988   .     S
H1123  O1130   0.988   .     S
H1124  O1131   0.988   .     S
H1125  O1132   0.988   .     S
H1126  O1133   0.992   .     S
N1127  Zn1143  2.014   .     S
N1128  Zn1144  2.014   .     S
O1129  Zn1143  1.986   .     S
O1135  Zn1144  1.986   .     S
O1136  Zn1144  1.985   .     S
O1137  Zn1143  1.985   .     S
O1138  Zn1143  1.969   .     S
O1139  Zn1144  1.969   .     S
O1140  Zn1144  1.980   .     S
O1141  Zn1143  1.980   .     S
C1145  C1148   1.406   .     S
C1145  O1173   1.280   .     A
C1145  O1180   1.280   .     A
C1146  C1148   1.411   .     A
C1146  O1176   1.387   .     S
C1147  C1153   1.406   .     S
C1147  C1159   1.411   .     A
C1147  C1160   1.411   .     A
C1148  C1158   1.411   .     A
C1149  N1172   1.369   .     A
C1149  O1177   1.378   .     S
C1150  N1171   1.369   .     A
C1150  O1178   1.378   .     S
C1150  C360    1.428   1_556 S
C1151  N1171   1.365   .     A
C1151  H1164   1.082   .     S
C1151  C357    1.428   1_556 S
C1152  H1165   1.082   .     S
C1152  N1172   1.365   .     A
C1153  O1181   1.280   .     A
C1153  O1179   1.280   .     A
C1154  O1182   1.279   .     A
C1154  C1156   1.402   .     S
C1154  O1184   1.282   .     A
C1155  O1183   1.279   .     A
C1155  O1185   1.282   .     A
C1155  C1157   1.402   .     S
C1157  C1068   1.330   1_655 S
C1157  H1075   1.088   1_655 S
C1158  O1186   1.386   .     S
C1159  O1174   1.386   .     S
C1159  C882    1.377   1_565 S
C1160  O1175   1.387   .     S
C1160  C894    1.377   1_565 S
H1161  C1068   1.088   1_655 S
H1162  O1178   0.992   .     S
H1166  O1186   0.988   .     S
H1167  O1174   0.988   .     S
H1168  O1175   0.988   .     S
H1169  O1176   0.988   .     S
H1170  O1177   0.992   .     S
N1171  Zn1187  2.014   .     S
N1172  Zn1188  2.014   .     S
O1173  Zn1187  1.986   .     S
O1179  Zn1188  1.986   .     S
O1180  Zn1188  1.985   .     S
O1181  Zn1187  1.985   .     S
O1182  Zn1187  1.969   .     S
O1183  Zn1188  1.969   .     S
O1184  Zn1188  1.980   .     S
O1185  Zn1187  1.980   .     S
