data_str_m2_o2_o5_pcu_sym.6
_audit_creation_date              2020-01-03
_audit_creation_method            'Materials Studio'
_symmetry_space_group_name_H-M    'P1'
_symmetry_Int_Tables_number       1
_symmetry_cell_setting            triclinic
loop_
_symmetry_equiv_pos_as_xyz
  x,y,z
_cell_length_a                    30.3046
_cell_length_b                    27.7307
_cell_length_c                    27.1775
_cell_angle_alpha                 90.0004
_cell_angle_beta                  90.1807
_cell_angle_gamma                 90.0012
loop_
_atom_site_label
_atom_site_type_symbol
_atom_site_fract_x
_atom_site_fract_y
_atom_site_fract_z
_atom_site_U_iso_or_equiv
_atom_site_adp_type
_atom_site_occupancy
O1     O     0.18573   0.29072   0.16667   0.00000  Uiso   1.00
O2     O     0.31427   0.20929   0.16666   0.00000  Uiso   1.00
O3     O     0.31427   0.29072   0.16666   0.00000  Uiso   1.00
O4     O     0.18573   0.20929   0.16667   0.00000  Uiso   1.00
C5     C     0.16495   0.24999   0.16656   0.00000  Uiso   1.00
C6     C     0.33505   0.24999   0.16677   0.00000  Uiso   1.00
O7     O     0.25000   0.29071   0.09613   0.00000  Uiso   1.00
O8     O     0.25000   0.20929   0.23720   0.00000  Uiso   1.00
O9     O     0.25000   0.29071   0.23720   0.00000  Uiso   1.00
O10    O     0.25000   0.20929   0.09613   0.00000  Uiso   1.00
C11    C     0.28457   0.05394   0.18852   0.00000  Uiso   1.00
C12    C     0.22880   0.44605   0.12918   0.00000  Uiso   1.00
C13    C     0.21543   0.05394   0.14481   0.00000  Uiso   1.00
C14    C     0.27120   0.44605   0.20415   0.00000  Uiso   1.00
C15    C     0.25000   0.25000   0.07352   0.00000  Uiso   1.00
C16    C     0.25001   0.25000   0.25981   0.00000  Uiso   1.00
Cu17   Cu    0.25000   0.29822   0.16667   0.00000  Uiso   1.00
Cu18   Cu    0.25000   0.20179   0.16667   0.00000  Uiso   1.00
H19    H     0.31048   0.12426   0.20571   0.00000  Uiso   1.00
H20    H     0.21231   0.37568   0.10109   0.00000  Uiso   1.00
H21    H     0.18952   0.12426   0.12762   0.00000  Uiso   1.00
H22    H     0.28768   0.37569   0.23225   0.00000  Uiso   1.00
N23    N     0.25000   0.12935   0.16667   0.00000  Uiso   1.00
N24    N     0.25000   0.37066   0.16667   0.00000  Uiso   1.00
C25    C     0.25000   0.02733   0.16666   0.00000  Uiso   1.00
C26    C     0.25000   0.47266   0.16666   0.00000  Uiso   1.00
C27    C     0.25000   0.25000   0.02185   0.00000  Uiso   1.00
C28    C     0.25001   0.25001   0.31148   0.00000  Uiso   1.00
C29    C     0.04717   0.28708   0.14211   0.00000  Uiso   1.00
C30    C     0.45260   0.21259   0.14251   0.00000  Uiso   1.00
C31    C     0.45283   0.28709   0.19125   0.00000  Uiso   1.00
C32    C     0.04740   0.21260   0.19087   0.00000  Uiso   1.00
C33    C     0.09329   0.28678   0.14168   0.00000  Uiso   1.00
C34    C     0.40650   0.21285   0.14234   0.00000  Uiso   1.00
C35    C     0.40671   0.28679   0.19166   0.00000  Uiso   1.00
C36    C     0.09351   0.21287   0.19105   0.00000  Uiso   1.00
C37    C     0.11659   0.24990   0.16643   0.00000  Uiso   1.00
C38    C     0.38341   0.24989   0.16693   0.00000  Uiso   1.00
C39    C     0.02417   0.24986   0.16659   0.00000  Uiso   1.00
C40    C     0.47583   0.24986   0.16678   0.00000  Uiso   1.00
C41    C     0.28377   0.10467   0.18840   0.00000  Uiso   1.00
C42    C     0.22896   0.39531   0.13005   0.00000  Uiso   1.00
C43    C     0.21623   0.10467   0.14493   0.00000  Uiso   1.00
C44    C     0.27103   0.39531   0.20328   0.00000  Uiso   1.00
H45    H     0.31254   0.03593   0.20514   0.00000  Uiso   1.00
H46    H     0.21261   0.46404   0.09879   0.00000  Uiso   1.00
H47    H     0.18746   0.03593   0.12819   0.00000  Uiso   1.00
H48    H     0.28739   0.46405   0.23454   0.00000  Uiso   1.00
O49    O     0.02540   0.32634   0.12176   0.00000  Uiso   1.00
C50    C     0.00560   0.31342   0.07652   0.00000  Uiso   1.00
H51    H     0.47119   0.30118   0.08251   0.00000  Uiso   1.00
H52    H     0.02425   0.28555   0.05570   0.00000  Uiso   1.00
H53    H     0.00398   0.34599   0.05289   0.00000  Uiso   1.00
O54    O     0.47422   0.17342   0.12196   0.00000  Uiso   1.00
C55    C     0.49294   0.18638   0.07630   0.00000  Uiso   1.00
H56    H     0.02732   0.19912   0.08161   0.00000  Uiso   1.00
H57    H     0.47352   0.21389   0.05569   0.00000  Uiso   1.00
H58    H     0.49446   0.15371   0.05281   0.00000  Uiso   1.00
O59    O     0.47460   0.32634   0.21161   0.00000  Uiso   1.00
C60    C     0.49438   0.31341   0.25687   0.00000  Uiso   1.00
H61    H     0.02878   0.30116   0.25089   0.00000  Uiso   1.00
H62    H     0.47571   0.28555   0.27767   0.00000  Uiso   1.00
H63    H     0.49599   0.34598   0.28050   0.00000  Uiso   1.00
O64    O     0.02579   0.17341   0.21141   0.00000  Uiso   1.00
C65    C     0.00699   0.18636   0.25704   0.00000  Uiso   1.00
H66    H     0.47260   0.19903   0.25167   0.00000  Uiso   1.00
H67    H     0.02634   0.21392   0.27766   0.00000  Uiso   1.00
H68    H     0.00551   0.15371   0.28054   0.00000  Uiso   1.00
O69    O     0.11534   0.32437   0.11893   0.00000  Uiso   1.00
C70    C     0.12732   0.30998   0.07095   0.00000  Uiso   1.00
H71    H     0.14804   0.27687   0.07103   0.00000  Uiso   1.00
H72    H     0.14710   0.33920   0.05400   0.00000  Uiso   1.00
H73    H     0.09781   0.30441   0.04737   0.00000  Uiso   1.00
O74    O     0.38420   0.17493   0.12029   0.00000  Uiso   1.00
C75    C     0.37177   0.18844   0.07212   0.00000  Uiso   1.00
H76    H     0.35474   0.22402   0.07080   0.00000  Uiso   1.00
H77    H     0.34826   0.16118   0.05768   0.00000  Uiso   1.00
H78    H     0.40078   0.18877   0.04733   0.00000  Uiso   1.00
O79    O     0.38464   0.32439   0.21439   0.00000  Uiso   1.00
C80    C     0.37270   0.31004   0.26238   0.00000  Uiso   1.00
H81    H     0.35236   0.27663   0.26242   0.00000  Uiso   1.00
H82    H     0.35254   0.33907   0.27914   0.00000  Uiso   1.00
H83    H     0.40224   0.30501   0.28607   0.00000  Uiso   1.00
O84    O     0.11579   0.17497   0.21314   0.00000  Uiso   1.00
C85    C     0.12826   0.18856   0.26128   0.00000  Uiso   1.00
H86    H     0.14584   0.22382   0.26238   0.00000  Uiso   1.00
H87    H     0.15129   0.16097   0.27601   0.00000  Uiso   1.00
H88    H     0.09921   0.18962   0.28597   0.00000  Uiso   1.00
O89    O     0.68573   0.29072   0.16667   0.00000  Uiso   1.00
O90    O     0.81427   0.20929   0.16666   0.00000  Uiso   1.00
O91    O     0.81427   0.29072   0.16666   0.00000  Uiso   1.00
O92    O     0.68573   0.20929   0.16667   0.00000  Uiso   1.00
C93    C     0.66495   0.24999   0.16656   0.00000  Uiso   1.00
C94    C     0.83505   0.24999   0.16677   0.00000  Uiso   1.00
O95    O     0.75000   0.29071   0.09613   0.00000  Uiso   1.00
O96    O     0.75000   0.20929   0.23720   0.00000  Uiso   1.00
O97    O     0.75000   0.29071   0.23720   0.00000  Uiso   1.00
O98    O     0.75000   0.20929   0.09613   0.00000  Uiso   1.00
C99    C     0.78457   0.05394   0.18852   0.00000  Uiso   1.00
C100   C     0.72880   0.44605   0.12918   0.00000  Uiso   1.00
C101   C     0.71543   0.05394   0.14481   0.00000  Uiso   1.00
C102   C     0.77120   0.44605   0.20415   0.00000  Uiso   1.00
C103   C     0.75000   0.25000   0.07352   0.00000  Uiso   1.00
C104   C     0.75001   0.25000   0.25981   0.00000  Uiso   1.00
Cu105  Cu    0.75000   0.29822   0.16667   0.00000  Uiso   1.00
Cu106  Cu    0.75000   0.20179   0.16667   0.00000  Uiso   1.00
H107   H     0.81048   0.12426   0.20571   0.00000  Uiso   1.00
H108   H     0.71231   0.37568   0.10109   0.00000  Uiso   1.00
H109   H     0.68952   0.12426   0.12762   0.00000  Uiso   1.00
H110   H     0.78768   0.37569   0.23225   0.00000  Uiso   1.00
N111   N     0.75000   0.12935   0.16667   0.00000  Uiso   1.00
N112   N     0.75000   0.37066   0.16667   0.00000  Uiso   1.00
C113   C     0.75000   0.02733   0.16666   0.00000  Uiso   1.00
C114   C     0.75000   0.47266   0.16666   0.00000  Uiso   1.00
C115   C     0.75000   0.25000   0.02185   0.00000  Uiso   1.00
C116   C     0.75001   0.25001   0.31148   0.00000  Uiso   1.00
C117   C     0.54717   0.28708   0.14211   0.00000  Uiso   1.00
C118   C     0.95260   0.21259   0.14251   0.00000  Uiso   1.00
C119   C     0.95283   0.28709   0.19125   0.00000  Uiso   1.00
C120   C     0.54740   0.21260   0.19087   0.00000  Uiso   1.00
C121   C     0.59329   0.28678   0.14168   0.00000  Uiso   1.00
C122   C     0.90650   0.21285   0.14234   0.00000  Uiso   1.00
C123   C     0.90671   0.28679   0.19166   0.00000  Uiso   1.00
C124   C     0.59351   0.21287   0.19105   0.00000  Uiso   1.00
C125   C     0.61659   0.24990   0.16643   0.00000  Uiso   1.00
C126   C     0.88341   0.24989   0.16693   0.00000  Uiso   1.00
C127   C     0.52417   0.24986   0.16659   0.00000  Uiso   1.00
C128   C     0.97583   0.24986   0.16678   0.00000  Uiso   1.00
C129   C     0.78377   0.10467   0.18840   0.00000  Uiso   1.00
C130   C     0.72896   0.39531   0.13005   0.00000  Uiso   1.00
C131   C     0.71623   0.10467   0.14493   0.00000  Uiso   1.00
C132   C     0.77103   0.39531   0.20328   0.00000  Uiso   1.00
H133   H     0.81254   0.03593   0.20514   0.00000  Uiso   1.00
H134   H     0.71261   0.46404   0.09879   0.00000  Uiso   1.00
H135   H     0.68746   0.03593   0.12819   0.00000  Uiso   1.00
H136   H     0.78739   0.46405   0.23454   0.00000  Uiso   1.00
O137   O     0.52540   0.32634   0.12176   0.00000  Uiso   1.00
C138   C     0.50560   0.31342   0.07652   0.00000  Uiso   1.00
H139   H     0.97119   0.30118   0.08251   0.00000  Uiso   1.00
H140   H     0.52425   0.28555   0.05570   0.00000  Uiso   1.00
H141   H     0.50398   0.34599   0.05289   0.00000  Uiso   1.00
O142   O     0.97422   0.17342   0.12196   0.00000  Uiso   1.00
C143   C     0.99294   0.18638   0.07630   0.00000  Uiso   1.00
H144   H     0.52732   0.19912   0.08161   0.00000  Uiso   1.00
H145   H     0.97352   0.21389   0.05569   0.00000  Uiso   1.00
H146   H     0.99446   0.15371   0.05281   0.00000  Uiso   1.00
O147   O     0.97460   0.32634   0.21161   0.00000  Uiso   1.00
C148   C     0.99438   0.31341   0.25687   0.00000  Uiso   1.00
H149   H     0.52878   0.30116   0.25089   0.00000  Uiso   1.00
H150   H     0.97571   0.28555   0.27767   0.00000  Uiso   1.00
H151   H     0.99599   0.34598   0.28050   0.00000  Uiso   1.00
O152   O     0.52579   0.17341   0.21141   0.00000  Uiso   1.00
C153   C     0.50699   0.18636   0.25704   0.00000  Uiso   1.00
H154   H     0.97260   0.19903   0.25167   0.00000  Uiso   1.00
H155   H     0.52634   0.21392   0.27766   0.00000  Uiso   1.00
H156   H     0.50551   0.15371   0.28054   0.00000  Uiso   1.00
O157   O     0.61534   0.32437   0.11893   0.00000  Uiso   1.00
C158   C     0.62732   0.30998   0.07095   0.00000  Uiso   1.00
H159   H     0.64804   0.27687   0.07103   0.00000  Uiso   1.00
H160   H     0.64710   0.33920   0.05400   0.00000  Uiso   1.00
H161   H     0.59781   0.30441   0.04737   0.00000  Uiso   1.00
O162   O     0.88420   0.17493   0.12029   0.00000  Uiso   1.00
C163   C     0.87177   0.18844   0.07212   0.00000  Uiso   1.00
H164   H     0.85474   0.22402   0.07080   0.00000  Uiso   1.00
H165   H     0.84826   0.16118   0.05768   0.00000  Uiso   1.00
H166   H     0.90078   0.18877   0.04733   0.00000  Uiso   1.00
O167   O     0.88464   0.32439   0.21439   0.00000  Uiso   1.00
C168   C     0.87270   0.31004   0.26238   0.00000  Uiso   1.00
H169   H     0.85236   0.27663   0.26242   0.00000  Uiso   1.00
H170   H     0.85254   0.33907   0.27914   0.00000  Uiso   1.00
H171   H     0.90224   0.30501   0.28607   0.00000  Uiso   1.00
O172   O     0.61579   0.17497   0.21314   0.00000  Uiso   1.00
C173   C     0.62826   0.18856   0.26128   0.00000  Uiso   1.00
H174   H     0.64584   0.22382   0.26238   0.00000  Uiso   1.00
H175   H     0.65129   0.16097   0.27601   0.00000  Uiso   1.00
H176   H     0.59921   0.18962   0.28597   0.00000  Uiso   1.00
O177   O     0.18573   0.79072   0.16667   0.00000  Uiso   1.00
O178   O     0.31427   0.70929   0.16666   0.00000  Uiso   1.00
O179   O     0.31427   0.79072   0.16666   0.00000  Uiso   1.00
O180   O     0.18573   0.70929   0.16667   0.00000  Uiso   1.00
C181   C     0.16495   0.74999   0.16656   0.00000  Uiso   1.00
C182   C     0.33505   0.74999   0.16677   0.00000  Uiso   1.00
O183   O     0.25000   0.79071   0.09613   0.00000  Uiso   1.00
O184   O     0.25000   0.70929   0.23720   0.00000  Uiso   1.00
O185   O     0.25000   0.79071   0.23720   0.00000  Uiso   1.00
O186   O     0.25000   0.70929   0.09613   0.00000  Uiso   1.00
C187   C     0.28457   0.55394   0.18852   0.00000  Uiso   1.00
C188   C     0.22880   0.94605   0.12918   0.00000  Uiso   1.00
C189   C     0.21543   0.55394   0.14481   0.00000  Uiso   1.00
C190   C     0.27120   0.94605   0.20415   0.00000  Uiso   1.00
C191   C     0.25000   0.75000   0.07352   0.00000  Uiso   1.00
C192   C     0.25001   0.75000   0.25981   0.00000  Uiso   1.00
Cu193  Cu    0.25000   0.79822   0.16667   0.00000  Uiso   1.00
Cu194  Cu    0.25000   0.70179   0.16667   0.00000  Uiso   1.00
H195   H     0.31048   0.62426   0.20571   0.00000  Uiso   1.00
H196   H     0.21231   0.87568   0.10109   0.00000  Uiso   1.00
H197   H     0.18952   0.62426   0.12762   0.00000  Uiso   1.00
H198   H     0.28768   0.87569   0.23225   0.00000  Uiso   1.00
N199   N     0.25000   0.62935   0.16667   0.00000  Uiso   1.00
N200   N     0.25000   0.87066   0.16667   0.00000  Uiso   1.00
C201   C     0.25000   0.52733   0.16666   0.00000  Uiso   1.00
C202   C     0.25000   0.97266   0.16666   0.00000  Uiso   1.00
C203   C     0.25000   0.75000   0.02185   0.00000  Uiso   1.00
C204   C     0.25001   0.75001   0.31148   0.00000  Uiso   1.00
C205   C     0.04717   0.78708   0.14211   0.00000  Uiso   1.00
C206   C     0.45260   0.71259   0.14251   0.00000  Uiso   1.00
C207   C     0.45283   0.78709   0.19125   0.00000  Uiso   1.00
C208   C     0.04740   0.71260   0.19087   0.00000  Uiso   1.00
C209   C     0.09329   0.78678   0.14168   0.00000  Uiso   1.00
C210   C     0.40650   0.71285   0.14234   0.00000  Uiso   1.00
C211   C     0.40671   0.78679   0.19166   0.00000  Uiso   1.00
C212   C     0.09351   0.71287   0.19105   0.00000  Uiso   1.00
C213   C     0.11659   0.74990   0.16643   0.00000  Uiso   1.00
C214   C     0.38341   0.74989   0.16693   0.00000  Uiso   1.00
C215   C     0.02417   0.74986   0.16659   0.00000  Uiso   1.00
C216   C     0.47583   0.74986   0.16678   0.00000  Uiso   1.00
C217   C     0.28377   0.60467   0.18840   0.00000  Uiso   1.00
C218   C     0.22896   0.89531   0.13005   0.00000  Uiso   1.00
C219   C     0.21623   0.60467   0.14493   0.00000  Uiso   1.00
C220   C     0.27103   0.89531   0.20328   0.00000  Uiso   1.00
H221   H     0.31254   0.53593   0.20514   0.00000  Uiso   1.00
H222   H     0.21261   0.96404   0.09879   0.00000  Uiso   1.00
H223   H     0.18746   0.53593   0.12819   0.00000  Uiso   1.00
H224   H     0.28739   0.96405   0.23454   0.00000  Uiso   1.00
O225   O     0.02540   0.82634   0.12176   0.00000  Uiso   1.00
C226   C     0.00560   0.81342   0.07652   0.00000  Uiso   1.00
H227   H     0.47119   0.80118   0.08251   0.00000  Uiso   1.00
H228   H     0.02425   0.78555   0.05570   0.00000  Uiso   1.00
H229   H     0.00398   0.84599   0.05289   0.00000  Uiso   1.00
O230   O     0.47422   0.67342   0.12196   0.00000  Uiso   1.00
C231   C     0.49294   0.68638   0.07630   0.00000  Uiso   1.00
H232   H     0.02732   0.69912   0.08161   0.00000  Uiso   1.00
H233   H     0.47352   0.71389   0.05569   0.00000  Uiso   1.00
H234   H     0.49446   0.65371   0.05281   0.00000  Uiso   1.00
O235   O     0.47460   0.82634   0.21161   0.00000  Uiso   1.00
C236   C     0.49438   0.81341   0.25687   0.00000  Uiso   1.00
H237   H     0.02878   0.80116   0.25089   0.00000  Uiso   1.00
H238   H     0.47571   0.78555   0.27767   0.00000  Uiso   1.00
H239   H     0.49599   0.84598   0.28050   0.00000  Uiso   1.00
O240   O     0.02579   0.67341   0.21141   0.00000  Uiso   1.00
C241   C     0.00699   0.68636   0.25704   0.00000  Uiso   1.00
H242   H     0.47260   0.69903   0.25167   0.00000  Uiso   1.00
H243   H     0.02634   0.71392   0.27766   0.00000  Uiso   1.00
H244   H     0.00551   0.65371   0.28054   0.00000  Uiso   1.00
O245   O     0.11534   0.82437   0.11893   0.00000  Uiso   1.00
C246   C     0.12732   0.80998   0.07095   0.00000  Uiso   1.00
H247   H     0.14804   0.77687   0.07103   0.00000  Uiso   1.00
H248   H     0.14710   0.83920   0.05400   0.00000  Uiso   1.00
H249   H     0.09781   0.80441   0.04737   0.00000  Uiso   1.00
O250   O     0.38420   0.67493   0.12029   0.00000  Uiso   1.00
C251   C     0.37177   0.68844   0.07212   0.00000  Uiso   1.00
H252   H     0.35474   0.72402   0.07080   0.00000  Uiso   1.00
H253   H     0.34826   0.66118   0.05768   0.00000  Uiso   1.00
H254   H     0.40078   0.68877   0.04733   0.00000  Uiso   1.00
O255   O     0.38464   0.82439   0.21439   0.00000  Uiso   1.00
C256   C     0.37270   0.81004   0.26238   0.00000  Uiso   1.00
H257   H     0.35236   0.77663   0.26242   0.00000  Uiso   1.00
H258   H     0.35254   0.83907   0.27914   0.00000  Uiso   1.00
H259   H     0.40224   0.80501   0.28607   0.00000  Uiso   1.00
O260   O     0.11579   0.67497   0.21314   0.00000  Uiso   1.00
C261   C     0.12826   0.68856   0.26128   0.00000  Uiso   1.00
H262   H     0.14584   0.72382   0.26238   0.00000  Uiso   1.00
H263   H     0.15129   0.66097   0.27601   0.00000  Uiso   1.00
H264   H     0.09921   0.68962   0.28597   0.00000  Uiso   1.00
O265   O     0.68573   0.79072   0.16667   0.00000  Uiso   1.00
O266   O     0.81427   0.70929   0.16666   0.00000  Uiso   1.00
O267   O     0.81427   0.79072   0.16666   0.00000  Uiso   1.00
O268   O     0.68573   0.70929   0.16667   0.00000  Uiso   1.00
C269   C     0.66495   0.74999   0.16656   0.00000  Uiso   1.00
C270   C     0.83505   0.74999   0.16677   0.00000  Uiso   1.00
O271   O     0.75000   0.79071   0.09613   0.00000  Uiso   1.00
O272   O     0.75000   0.70929   0.23720   0.00000  Uiso   1.00
O273   O     0.75000   0.79071   0.23720   0.00000  Uiso   1.00
O274   O     0.75000   0.70929   0.09613   0.00000  Uiso   1.00
C275   C     0.78457   0.55394   0.18852   0.00000  Uiso   1.00
C276   C     0.72880   0.94605   0.12918   0.00000  Uiso   1.00
C277   C     0.71543   0.55394   0.14481   0.00000  Uiso   1.00
C278   C     0.77120   0.94605   0.20415   0.00000  Uiso   1.00
C279   C     0.75000   0.75000   0.07352   0.00000  Uiso   1.00
C280   C     0.75001   0.75000   0.25981   0.00000  Uiso   1.00
Cu281  Cu    0.75000   0.79822   0.16667   0.00000  Uiso   1.00
Cu282  Cu    0.75000   0.70179   0.16667   0.00000  Uiso   1.00
H283   H     0.81048   0.62426   0.20571   0.00000  Uiso   1.00
H284   H     0.71231   0.87568   0.10109   0.00000  Uiso   1.00
H285   H     0.68952   0.62426   0.12762   0.00000  Uiso   1.00
H286   H     0.78768   0.87569   0.23225   0.00000  Uiso   1.00
N287   N     0.75000   0.62935   0.16667   0.00000  Uiso   1.00
N288   N     0.75000   0.87066   0.16667   0.00000  Uiso   1.00
C289   C     0.75000   0.52733   0.16666   0.00000  Uiso   1.00
C290   C     0.75000   0.97266   0.16666   0.00000  Uiso   1.00
C291   C     0.75000   0.75000   0.02185   0.00000  Uiso   1.00
C292   C     0.75001   0.75001   0.31148   0.00000  Uiso   1.00
C293   C     0.54717   0.78708   0.14211   0.00000  Uiso   1.00
C294   C     0.95260   0.71259   0.14251   0.00000  Uiso   1.00
C295   C     0.95283   0.78709   0.19125   0.00000  Uiso   1.00
C296   C     0.54740   0.71260   0.19087   0.00000  Uiso   1.00
C297   C     0.59329   0.78678   0.14168   0.00000  Uiso   1.00
C298   C     0.90650   0.71285   0.14234   0.00000  Uiso   1.00
C299   C     0.90671   0.78679   0.19166   0.00000  Uiso   1.00
C300   C     0.59351   0.71287   0.19105   0.00000  Uiso   1.00
C301   C     0.61659   0.74990   0.16643   0.00000  Uiso   1.00
C302   C     0.88341   0.74989   0.16693   0.00000  Uiso   1.00
C303   C     0.52417   0.74986   0.16659   0.00000  Uiso   1.00
C304   C     0.97583   0.74986   0.16678   0.00000  Uiso   1.00
C305   C     0.78377   0.60467   0.18840   0.00000  Uiso   1.00
C306   C     0.72896   0.89531   0.13005   0.00000  Uiso   1.00
C307   C     0.71623   0.60467   0.14493   0.00000  Uiso   1.00
C308   C     0.77103   0.89531   0.20328   0.00000  Uiso   1.00
H309   H     0.81254   0.53593   0.20514   0.00000  Uiso   1.00
H310   H     0.71261   0.96404   0.09879   0.00000  Uiso   1.00
H311   H     0.68746   0.53593   0.12819   0.00000  Uiso   1.00
H312   H     0.78739   0.96405   0.23454   0.00000  Uiso   1.00
O313   O     0.52540   0.82634   0.12176   0.00000  Uiso   1.00
C314   C     0.50560   0.81342   0.07652   0.00000  Uiso   1.00
H315   H     0.97119   0.80118   0.08251   0.00000  Uiso   1.00
H316   H     0.52425   0.78555   0.05570   0.00000  Uiso   1.00
H317   H     0.50398   0.84599   0.05289   0.00000  Uiso   1.00
O318   O     0.97422   0.67342   0.12196   0.00000  Uiso   1.00
C319   C     0.99294   0.68638   0.07630   0.00000  Uiso   1.00
H320   H     0.52732   0.69912   0.08161   0.00000  Uiso   1.00
H321   H     0.97352   0.71389   0.05569   0.00000  Uiso   1.00
H322   H     0.99446   0.65371   0.05281   0.00000  Uiso   1.00
O323   O     0.97460   0.82634   0.21161   0.00000  Uiso   1.00
C324   C     0.99438   0.81341   0.25687   0.00000  Uiso   1.00
H325   H     0.52878   0.80116   0.25089   0.00000  Uiso   1.00
H326   H     0.97571   0.78555   0.27767   0.00000  Uiso   1.00
H327   H     0.99599   0.84598   0.28050   0.00000  Uiso   1.00
O328   O     0.52579   0.67341   0.21141   0.00000  Uiso   1.00
C329   C     0.50699   0.68636   0.25704   0.00000  Uiso   1.00
H330   H     0.97260   0.69903   0.25167   0.00000  Uiso   1.00
H331   H     0.52634   0.71392   0.27766   0.00000  Uiso   1.00
H332   H     0.50551   0.65371   0.28054   0.00000  Uiso   1.00
O333   O     0.61534   0.82437   0.11893   0.00000  Uiso   1.00
C334   C     0.62732   0.80998   0.07095   0.00000  Uiso   1.00
H335   H     0.64804   0.77687   0.07103   0.00000  Uiso   1.00
H336   H     0.64710   0.83920   0.05400   0.00000  Uiso   1.00
H337   H     0.59781   0.80441   0.04737   0.00000  Uiso   1.00
O338   O     0.88420   0.67493   0.12029   0.00000  Uiso   1.00
C339   C     0.87177   0.68844   0.07212   0.00000  Uiso   1.00
H340   H     0.85474   0.72402   0.07080   0.00000  Uiso   1.00
H341   H     0.84826   0.66118   0.05768   0.00000  Uiso   1.00
H342   H     0.90078   0.68877   0.04733   0.00000  Uiso   1.00
O343   O     0.88464   0.82439   0.21439   0.00000  Uiso   1.00
C344   C     0.87270   0.81004   0.26238   0.00000  Uiso   1.00
H345   H     0.85236   0.77663   0.26242   0.00000  Uiso   1.00
H346   H     0.85254   0.83907   0.27914   0.00000  Uiso   1.00
H347   H     0.90224   0.80501   0.28607   0.00000  Uiso   1.00
O348   O     0.61579   0.67497   0.21314   0.00000  Uiso   1.00
C349   C     0.62826   0.68856   0.26128   0.00000  Uiso   1.00
H350   H     0.64584   0.72382   0.26238   0.00000  Uiso   1.00
H351   H     0.65129   0.66097   0.27601   0.00000  Uiso   1.00
H352   H     0.59921   0.68962   0.28597   0.00000  Uiso   1.00
O353   O     0.18573   0.29072   0.50000   0.00000  Uiso   1.00
O354   O     0.31427   0.20929   0.50000   0.00000  Uiso   1.00
O355   O     0.31427   0.29072   0.50000   0.00000  Uiso   1.00
O356   O     0.18573   0.20929   0.50000   0.00000  Uiso   1.00
C357   C     0.16495   0.24999   0.49990   0.00000  Uiso   1.00
C358   C     0.33505   0.24999   0.50011   0.00000  Uiso   1.00
O359   O     0.25000   0.29071   0.42946   0.00000  Uiso   1.00
O360   O     0.25000   0.20929   0.57054   0.00000  Uiso   1.00
O361   O     0.25000   0.29071   0.57054   0.00000  Uiso   1.00
O362   O     0.25000   0.20929   0.42946   0.00000  Uiso   1.00
C363   C     0.28457   0.05394   0.52185   0.00000  Uiso   1.00
C364   C     0.22880   0.44605   0.46251   0.00000  Uiso   1.00
C365   C     0.21543   0.05394   0.47815   0.00000  Uiso   1.00
C366   C     0.27120   0.44605   0.53748   0.00000  Uiso   1.00
C367   C     0.25000   0.25000   0.40685   0.00000  Uiso   1.00
C368   C     0.25001   0.25000   0.59315   0.00000  Uiso   1.00
Cu369  Cu    0.25000   0.29822   0.50000   0.00000  Uiso   1.00
Cu370  Cu    0.25000   0.20179   0.50000   0.00000  Uiso   1.00
H371   H     0.31048   0.12426   0.53905   0.00000  Uiso   1.00
H372   H     0.21231   0.37568   0.43442   0.00000  Uiso   1.00
H373   H     0.18952   0.12426   0.46095   0.00000  Uiso   1.00
H374   H     0.28768   0.37569   0.56558   0.00000  Uiso   1.00
N375   N     0.25000   0.12935   0.50000   0.00000  Uiso   1.00
N376   N     0.25000   0.37066   0.50000   0.00000  Uiso   1.00
C377   C     0.25000   0.02733   0.50000   0.00000  Uiso   1.00
C378   C     0.25000   0.47266   0.50000   0.00000  Uiso   1.00
C379   C     0.25000   0.25000   0.35518   0.00000  Uiso   1.00
C380   C     0.25001   0.25001   0.64482   0.00000  Uiso   1.00
C381   C     0.04717   0.28708   0.47544   0.00000  Uiso   1.00
C382   C     0.45260   0.21259   0.47585   0.00000  Uiso   1.00
C383   C     0.45283   0.28709   0.52459   0.00000  Uiso   1.00
C384   C     0.04740   0.21260   0.52421   0.00000  Uiso   1.00
C385   C     0.09329   0.28678   0.47501   0.00000  Uiso   1.00
C386   C     0.40650   0.21285   0.47567   0.00000  Uiso   1.00
C387   C     0.40671   0.28679   0.52500   0.00000  Uiso   1.00
C388   C     0.09351   0.21287   0.52439   0.00000  Uiso   1.00
C389   C     0.11659   0.24990   0.49976   0.00000  Uiso   1.00
C390   C     0.38341   0.24989   0.50026   0.00000  Uiso   1.00
C391   C     0.02417   0.24986   0.49993   0.00000  Uiso   1.00
C392   C     0.47583   0.24986   0.50012   0.00000  Uiso   1.00
C393   C     0.28377   0.10467   0.52174   0.00000  Uiso   1.00
C394   C     0.22896   0.39531   0.46339   0.00000  Uiso   1.00
C395   C     0.21623   0.10467   0.47826   0.00000  Uiso   1.00
C396   C     0.27103   0.39531   0.53661   0.00000  Uiso   1.00
H397   H     0.31254   0.03593   0.53847   0.00000  Uiso   1.00
H398   H     0.21261   0.46404   0.43212   0.00000  Uiso   1.00
H399   H     0.18746   0.03593   0.46153   0.00000  Uiso   1.00
H400   H     0.28739   0.46405   0.56788   0.00000  Uiso   1.00
O401   O     0.02540   0.32634   0.45510   0.00000  Uiso   1.00
C402   C     0.00560   0.31342   0.40985   0.00000  Uiso   1.00
H403   H     0.47119   0.30118   0.41584   0.00000  Uiso   1.00
H404   H     0.02425   0.28555   0.38903   0.00000  Uiso   1.00
H405   H     0.00398   0.34599   0.38623   0.00000  Uiso   1.00
O406   O     0.47422   0.17342   0.45529   0.00000  Uiso   1.00
C407   C     0.49294   0.18638   0.40963   0.00000  Uiso   1.00
H408   H     0.02732   0.19912   0.41494   0.00000  Uiso   1.00
H409   H     0.47352   0.21389   0.38902   0.00000  Uiso   1.00
H410   H     0.49446   0.15371   0.38614   0.00000  Uiso   1.00
O411   O     0.47460   0.32634   0.54494   0.00000  Uiso   1.00
C412   C     0.49438   0.31341   0.59020   0.00000  Uiso   1.00
H413   H     0.02878   0.30116   0.58423   0.00000  Uiso   1.00
H414   H     0.47571   0.28555   0.61101   0.00000  Uiso   1.00
H415   H     0.49599   0.34598   0.61383   0.00000  Uiso   1.00
O416   O     0.02579   0.17341   0.54474   0.00000  Uiso   1.00
C417   C     0.00699   0.18636   0.59037   0.00000  Uiso   1.00
H418   H     0.47260   0.19903   0.58501   0.00000  Uiso   1.00
H419   H     0.02634   0.21392   0.61099   0.00000  Uiso   1.00
H420   H     0.00551   0.15371   0.61388   0.00000  Uiso   1.00
O421   O     0.11534   0.32437   0.45226   0.00000  Uiso   1.00
C422   C     0.12732   0.30998   0.40429   0.00000  Uiso   1.00
H423   H     0.14804   0.27687   0.40437   0.00000  Uiso   1.00
H424   H     0.14710   0.33920   0.38733   0.00000  Uiso   1.00
H425   H     0.09781   0.30441   0.38071   0.00000  Uiso   1.00
O426   O     0.38420   0.17493   0.45363   0.00000  Uiso   1.00
C427   C     0.37177   0.18844   0.40545   0.00000  Uiso   1.00
H428   H     0.35474   0.22402   0.40414   0.00000  Uiso   1.00
H429   H     0.34826   0.16118   0.39102   0.00000  Uiso   1.00
H430   H     0.40078   0.18877   0.38066   0.00000  Uiso   1.00
O431   O     0.38464   0.32439   0.54772   0.00000  Uiso   1.00
C432   C     0.37270   0.31004   0.59572   0.00000  Uiso   1.00
H433   H     0.35236   0.27663   0.59576   0.00000  Uiso   1.00
H434   H     0.35254   0.33907   0.61247   0.00000  Uiso   1.00
H435   H     0.40224   0.30501   0.61940   0.00000  Uiso   1.00
O436   O     0.11579   0.17497   0.54647   0.00000  Uiso   1.00
C437   C     0.12826   0.18856   0.59462   0.00000  Uiso   1.00
H438   H     0.14584   0.22382   0.59572   0.00000  Uiso   1.00
H439   H     0.15129   0.16097   0.60934   0.00000  Uiso   1.00
H440   H     0.09921   0.18962   0.61930   0.00000  Uiso   1.00
O441   O     0.68573   0.29072   0.50000   0.00000  Uiso   1.00
O442   O     0.81427   0.20929   0.50000   0.00000  Uiso   1.00
O443   O     0.81427   0.29072   0.50000   0.00000  Uiso   1.00
O444   O     0.68573   0.20929   0.50000   0.00000  Uiso   1.00
C445   C     0.66495   0.24999   0.49990   0.00000  Uiso   1.00
C446   C     0.83505   0.24999   0.50011   0.00000  Uiso   1.00
O447   O     0.75000   0.29071   0.42946   0.00000  Uiso   1.00
O448   O     0.75000   0.20929   0.57054   0.00000  Uiso   1.00
O449   O     0.75000   0.29071   0.57054   0.00000  Uiso   1.00
O450   O     0.75000   0.20929   0.42946   0.00000  Uiso   1.00
C451   C     0.78457   0.05394   0.52185   0.00000  Uiso   1.00
C452   C     0.72880   0.44605   0.46251   0.00000  Uiso   1.00
C453   C     0.71543   0.05394   0.47815   0.00000  Uiso   1.00
C454   C     0.77120   0.44605   0.53748   0.00000  Uiso   1.00
C455   C     0.75000   0.25000   0.40685   0.00000  Uiso   1.00
C456   C     0.75001   0.25000   0.59315   0.00000  Uiso   1.00
Cu457  Cu    0.75000   0.29822   0.50000   0.00000  Uiso   1.00
Cu458  Cu    0.75000   0.20179   0.50000   0.00000  Uiso   1.00
H459   H     0.81048   0.12426   0.53905   0.00000  Uiso   1.00
H460   H     0.71231   0.37568   0.43442   0.00000  Uiso   1.00
H461   H     0.68952   0.12426   0.46095   0.00000  Uiso   1.00
H462   H     0.78768   0.37569   0.56558   0.00000  Uiso   1.00
N463   N     0.75000   0.12935   0.50000   0.00000  Uiso   1.00
N464   N     0.75000   0.37066   0.50000   0.00000  Uiso   1.00
C465   C     0.75000   0.02733   0.50000   0.00000  Uiso   1.00
C466   C     0.75000   0.47266   0.50000   0.00000  Uiso   1.00
C467   C     0.75000   0.25000   0.35518   0.00000  Uiso   1.00
C468   C     0.75001   0.25001   0.64482   0.00000  Uiso   1.00
C469   C     0.54717   0.28708   0.47544   0.00000  Uiso   1.00
C470   C     0.95260   0.21259   0.47585   0.00000  Uiso   1.00
C471   C     0.95283   0.28709   0.52459   0.00000  Uiso   1.00
C472   C     0.54740   0.21260   0.52421   0.00000  Uiso   1.00
C473   C     0.59329   0.28678   0.47501   0.00000  Uiso   1.00
C474   C     0.90650   0.21285   0.47567   0.00000  Uiso   1.00
C475   C     0.90671   0.28679   0.52500   0.00000  Uiso   1.00
C476   C     0.59351   0.21287   0.52439   0.00000  Uiso   1.00
C477   C     0.61659   0.24990   0.49976   0.00000  Uiso   1.00
C478   C     0.88341   0.24989   0.50026   0.00000  Uiso   1.00
C479   C     0.52417   0.24986   0.49993   0.00000  Uiso   1.00
C480   C     0.97583   0.24986   0.50012   0.00000  Uiso   1.00
C481   C     0.78377   0.10467   0.52174   0.00000  Uiso   1.00
C482   C     0.72896   0.39531   0.46339   0.00000  Uiso   1.00
C483   C     0.71623   0.10467   0.47826   0.00000  Uiso   1.00
C484   C     0.77103   0.39531   0.53661   0.00000  Uiso   1.00
H485   H     0.81254   0.03593   0.53847   0.00000  Uiso   1.00
H486   H     0.71261   0.46404   0.43212   0.00000  Uiso   1.00
H487   H     0.68746   0.03593   0.46153   0.00000  Uiso   1.00
H488   H     0.78739   0.46405   0.56788   0.00000  Uiso   1.00
O489   O     0.52540   0.32634   0.45510   0.00000  Uiso   1.00
C490   C     0.50560   0.31342   0.40985   0.00000  Uiso   1.00
H491   H     0.97119   0.30118   0.41584   0.00000  Uiso   1.00
H492   H     0.52425   0.28555   0.38903   0.00000  Uiso   1.00
H493   H     0.50398   0.34599   0.38623   0.00000  Uiso   1.00
O494   O     0.97422   0.17342   0.45529   0.00000  Uiso   1.00
C495   C     0.99294   0.18638   0.40963   0.00000  Uiso   1.00
H496   H     0.52732   0.19912   0.41494   0.00000  Uiso   1.00
H497   H     0.97352   0.21389   0.38902   0.00000  Uiso   1.00
H498   H     0.99446   0.15371   0.38614   0.00000  Uiso   1.00
O499   O     0.97460   0.32634   0.54494   0.00000  Uiso   1.00
C500   C     0.99438   0.31341   0.59020   0.00000  Uiso   1.00
H501   H     0.52878   0.30116   0.58423   0.00000  Uiso   1.00
H502   H     0.97571   0.28555   0.61101   0.00000  Uiso   1.00
H503   H     0.99599   0.34598   0.61383   0.00000  Uiso   1.00
O504   O     0.52579   0.17341   0.54474   0.00000  Uiso   1.00
C505   C     0.50699   0.18636   0.59037   0.00000  Uiso   1.00
H506   H     0.97260   0.19903   0.58501   0.00000  Uiso   1.00
H507   H     0.52634   0.21392   0.61099   0.00000  Uiso   1.00
H508   H     0.50551   0.15371   0.61388   0.00000  Uiso   1.00
O509   O     0.61534   0.32437   0.45226   0.00000  Uiso   1.00
C510   C     0.62732   0.30998   0.40429   0.00000  Uiso   1.00
H511   H     0.64804   0.27687   0.40437   0.00000  Uiso   1.00
H512   H     0.64710   0.33920   0.38733   0.00000  Uiso   1.00
H513   H     0.59781   0.30441   0.38071   0.00000  Uiso   1.00
O514   O     0.88420   0.17493   0.45363   0.00000  Uiso   1.00
C515   C     0.87177   0.18844   0.40545   0.00000  Uiso   1.00
H516   H     0.85474   0.22402   0.40414   0.00000  Uiso   1.00
H517   H     0.84826   0.16118   0.39102   0.00000  Uiso   1.00
H518   H     0.90078   0.18877   0.38066   0.00000  Uiso   1.00
O519   O     0.88464   0.32439   0.54772   0.00000  Uiso   1.00
C520   C     0.87270   0.31004   0.59572   0.00000  Uiso   1.00
H521   H     0.85236   0.27663   0.59576   0.00000  Uiso   1.00
H522   H     0.85254   0.33907   0.61247   0.00000  Uiso   1.00
H523   H     0.90224   0.30501   0.61940   0.00000  Uiso   1.00
O524   O     0.61579   0.17497   0.54647   0.00000  Uiso   1.00
C525   C     0.62826   0.18856   0.59462   0.00000  Uiso   1.00
H526   H     0.64584   0.22382   0.59572   0.00000  Uiso   1.00
H527   H     0.65129   0.16097   0.60934   0.00000  Uiso   1.00
H528   H     0.59921   0.18962   0.61930   0.00000  Uiso   1.00
O529   O     0.18573   0.79072   0.50000   0.00000  Uiso   1.00
O530   O     0.31427   0.70929   0.50000   0.00000  Uiso   1.00
O531   O     0.31427   0.79072   0.50000   0.00000  Uiso   1.00
O532   O     0.18573   0.70929   0.50000   0.00000  Uiso   1.00
C533   C     0.16495   0.74999   0.49990   0.00000  Uiso   1.00
C534   C     0.33505   0.74999   0.50011   0.00000  Uiso   1.00
O535   O     0.25000   0.79071   0.42946   0.00000  Uiso   1.00
O536   O     0.25000   0.70929   0.57054   0.00000  Uiso   1.00
O537   O     0.25000   0.79071   0.57054   0.00000  Uiso   1.00
O538   O     0.25000   0.70929   0.42946   0.00000  Uiso   1.00
C539   C     0.28457   0.55394   0.52185   0.00000  Uiso   1.00
C540   C     0.22880   0.94605   0.46251   0.00000  Uiso   1.00
C541   C     0.21543   0.55394   0.47815   0.00000  Uiso   1.00
C542   C     0.27120   0.94605   0.53748   0.00000  Uiso   1.00
C543   C     0.25000   0.75000   0.40685   0.00000  Uiso   1.00
C544   C     0.25001   0.75000   0.59315   0.00000  Uiso   1.00
Cu545  Cu    0.25000   0.79822   0.50000   0.00000  Uiso   1.00
Cu546  Cu    0.25000   0.70179   0.50000   0.00000  Uiso   1.00
H547   H     0.31048   0.62426   0.53905   0.00000  Uiso   1.00
H548   H     0.21231   0.87568   0.43442   0.00000  Uiso   1.00
H549   H     0.18952   0.62426   0.46095   0.00000  Uiso   1.00
H550   H     0.28768   0.87569   0.56558   0.00000  Uiso   1.00
N551   N     0.25000   0.62935   0.50000   0.00000  Uiso   1.00
N552   N     0.25000   0.87066   0.50000   0.00000  Uiso   1.00
C553   C     0.25000   0.52733   0.50000   0.00000  Uiso   1.00
C554   C     0.25000   0.97266   0.50000   0.00000  Uiso   1.00
C555   C     0.25000   0.75000   0.35518   0.00000  Uiso   1.00
C556   C     0.25001   0.75001   0.64482   0.00000  Uiso   1.00
C557   C     0.04717   0.78708   0.47544   0.00000  Uiso   1.00
C558   C     0.45260   0.71259   0.47585   0.00000  Uiso   1.00
C559   C     0.45283   0.78709   0.52459   0.00000  Uiso   1.00
C560   C     0.04740   0.71260   0.52421   0.00000  Uiso   1.00
C561   C     0.09329   0.78678   0.47501   0.00000  Uiso   1.00
C562   C     0.40650   0.71285   0.47567   0.00000  Uiso   1.00
C563   C     0.40671   0.78679   0.52500   0.00000  Uiso   1.00
C564   C     0.09351   0.71287   0.52439   0.00000  Uiso   1.00
C565   C     0.11659   0.74990   0.49976   0.00000  Uiso   1.00
C566   C     0.38341   0.74989   0.50026   0.00000  Uiso   1.00
C567   C     0.02417   0.74986   0.49993   0.00000  Uiso   1.00
C568   C     0.47583   0.74986   0.50012   0.00000  Uiso   1.00
C569   C     0.28377   0.60467   0.52174   0.00000  Uiso   1.00
C570   C     0.22896   0.89531   0.46339   0.00000  Uiso   1.00
C571   C     0.21623   0.60467   0.47826   0.00000  Uiso   1.00
C572   C     0.27103   0.89531   0.53661   0.00000  Uiso   1.00
H573   H     0.31254   0.53593   0.53847   0.00000  Uiso   1.00
H574   H     0.21261   0.96404   0.43212   0.00000  Uiso   1.00
H575   H     0.18746   0.53593   0.46153   0.00000  Uiso   1.00
H576   H     0.28739   0.96405   0.56788   0.00000  Uiso   1.00
O577   O     0.02540   0.82634   0.45510   0.00000  Uiso   1.00
C578   C     0.00560   0.81342   0.40985   0.00000  Uiso   1.00
H579   H     0.47119   0.80118   0.41584   0.00000  Uiso   1.00
H580   H     0.02425   0.78555   0.38903   0.00000  Uiso   1.00
H581   H     0.00398   0.84599   0.38623   0.00000  Uiso   1.00
O582   O     0.47422   0.67342   0.45529   0.00000  Uiso   1.00
C583   C     0.49294   0.68638   0.40963   0.00000  Uiso   1.00
H584   H     0.02732   0.69912   0.41494   0.00000  Uiso   1.00
H585   H     0.47352   0.71389   0.38902   0.00000  Uiso   1.00
H586   H     0.49446   0.65371   0.38614   0.00000  Uiso   1.00
O587   O     0.47460   0.82634   0.54494   0.00000  Uiso   1.00
C588   C     0.49438   0.81341   0.59020   0.00000  Uiso   1.00
H589   H     0.02878   0.80116   0.58423   0.00000  Uiso   1.00
H590   H     0.47571   0.78555   0.61101   0.00000  Uiso   1.00
H591   H     0.49599   0.84598   0.61383   0.00000  Uiso   1.00
O592   O     0.02579   0.67341   0.54474   0.00000  Uiso   1.00
C593   C     0.00699   0.68636   0.59037   0.00000  Uiso   1.00
H594   H     0.47260   0.69903   0.58501   0.00000  Uiso   1.00
H595   H     0.02634   0.71392   0.61099   0.00000  Uiso   1.00
H596   H     0.00551   0.65371   0.61388   0.00000  Uiso   1.00
O597   O     0.11534   0.82437   0.45226   0.00000  Uiso   1.00
C598   C     0.12732   0.80998   0.40429   0.00000  Uiso   1.00
H599   H     0.14804   0.77687   0.40437   0.00000  Uiso   1.00
H600   H     0.14710   0.83920   0.38733   0.00000  Uiso   1.00
H601   H     0.09781   0.80441   0.38071   0.00000  Uiso   1.00
O602   O     0.38420   0.67493   0.45363   0.00000  Uiso   1.00
C603   C     0.37177   0.68844   0.40545   0.00000  Uiso   1.00
H604   H     0.35474   0.72402   0.40414   0.00000  Uiso   1.00
H605   H     0.34826   0.66118   0.39102   0.00000  Uiso   1.00
H606   H     0.40078   0.68877   0.38066   0.00000  Uiso   1.00
O607   O     0.38464   0.82439   0.54772   0.00000  Uiso   1.00
C608   C     0.37270   0.81004   0.59572   0.00000  Uiso   1.00
H609   H     0.35236   0.77663   0.59576   0.00000  Uiso   1.00
H610   H     0.35254   0.83907   0.61247   0.00000  Uiso   1.00
H611   H     0.40224   0.80501   0.61940   0.00000  Uiso   1.00
O612   O     0.11579   0.67497   0.54647   0.00000  Uiso   1.00
C613   C     0.12826   0.68856   0.59462   0.00000  Uiso   1.00
H614   H     0.14584   0.72382   0.59572   0.00000  Uiso   1.00
H615   H     0.15129   0.66097   0.60934   0.00000  Uiso   1.00
H616   H     0.09921   0.68962   0.61930   0.00000  Uiso   1.00
O617   O     0.68573   0.79072   0.50000   0.00000  Uiso   1.00
O618   O     0.81427   0.70929   0.50000   0.00000  Uiso   1.00
O619   O     0.81427   0.79072   0.50000   0.00000  Uiso   1.00
O620   O     0.68573   0.70929   0.50000   0.00000  Uiso   1.00
C621   C     0.66495   0.74999   0.49990   0.00000  Uiso   1.00
C622   C     0.83505   0.74999   0.50011   0.00000  Uiso   1.00
O623   O     0.75000   0.79071   0.42946   0.00000  Uiso   1.00
O624   O     0.75000   0.70929   0.57054   0.00000  Uiso   1.00
O625   O     0.75000   0.79071   0.57054   0.00000  Uiso   1.00
O626   O     0.75000   0.70929   0.42946   0.00000  Uiso   1.00
C627   C     0.78457   0.55394   0.52185   0.00000  Uiso   1.00
C628   C     0.72880   0.94605   0.46251   0.00000  Uiso   1.00
C629   C     0.71543   0.55394   0.47815   0.00000  Uiso   1.00
C630   C     0.77120   0.94605   0.53748   0.00000  Uiso   1.00
C631   C     0.75000   0.75000   0.40685   0.00000  Uiso   1.00
C632   C     0.75001   0.75000   0.59315   0.00000  Uiso   1.00
Cu633  Cu    0.75000   0.79822   0.50000   0.00000  Uiso   1.00
Cu634  Cu    0.75000   0.70179   0.50000   0.00000  Uiso   1.00
H635   H     0.81048   0.62426   0.53905   0.00000  Uiso   1.00
H636   H     0.71231   0.87568   0.43442   0.00000  Uiso   1.00
H637   H     0.68952   0.62426   0.46095   0.00000  Uiso   1.00
H638   H     0.78768   0.87569   0.56558   0.00000  Uiso   1.00
N639   N     0.75000   0.62935   0.50000   0.00000  Uiso   1.00
N640   N     0.75000   0.87066   0.50000   0.00000  Uiso   1.00
C641   C     0.75000   0.52733   0.50000   0.00000  Uiso   1.00
C642   C     0.75000   0.97266   0.50000   0.00000  Uiso   1.00
C643   C     0.75000   0.75000   0.35518   0.00000  Uiso   1.00
C644   C     0.75001   0.75001   0.64482   0.00000  Uiso   1.00
C645   C     0.54717   0.78708   0.47544   0.00000  Uiso   1.00
C646   C     0.95260   0.71259   0.47585   0.00000  Uiso   1.00
C647   C     0.95283   0.78709   0.52459   0.00000  Uiso   1.00
C648   C     0.54740   0.71260   0.52421   0.00000  Uiso   1.00
C649   C     0.59329   0.78678   0.47501   0.00000  Uiso   1.00
C650   C     0.90650   0.71285   0.47567   0.00000  Uiso   1.00
C651   C     0.90671   0.78679   0.52500   0.00000  Uiso   1.00
C652   C     0.59351   0.71287   0.52439   0.00000  Uiso   1.00
C653   C     0.61659   0.74990   0.49976   0.00000  Uiso   1.00
C654   C     0.88341   0.74989   0.50026   0.00000  Uiso   1.00
C655   C     0.52417   0.74986   0.49993   0.00000  Uiso   1.00
C656   C     0.97583   0.74986   0.50012   0.00000  Uiso   1.00
C657   C     0.78377   0.60467   0.52174   0.00000  Uiso   1.00
C658   C     0.72896   0.89531   0.46339   0.00000  Uiso   1.00
C659   C     0.71623   0.60467   0.47826   0.00000  Uiso   1.00
C660   C     0.77103   0.89531   0.53661   0.00000  Uiso   1.00
H661   H     0.81254   0.53593   0.53847   0.00000  Uiso   1.00
H662   H     0.71261   0.96404   0.43212   0.00000  Uiso   1.00
H663   H     0.68746   0.53593   0.46153   0.00000  Uiso   1.00
H664   H     0.78739   0.96405   0.56788   0.00000  Uiso   1.00
O665   O     0.52540   0.82634   0.45510   0.00000  Uiso   1.00
C666   C     0.50560   0.81342   0.40985   0.00000  Uiso   1.00
H667   H     0.97119   0.80118   0.41584   0.00000  Uiso   1.00
H668   H     0.52425   0.78555   0.38903   0.00000  Uiso   1.00
H669   H     0.50398   0.84599   0.38623   0.00000  Uiso   1.00
O670   O     0.97422   0.67342   0.45529   0.00000  Uiso   1.00
C671   C     0.99294   0.68638   0.40963   0.00000  Uiso   1.00
H672   H     0.52732   0.69912   0.41494   0.00000  Uiso   1.00
H673   H     0.97352   0.71389   0.38902   0.00000  Uiso   1.00
H674   H     0.99446   0.65371   0.38614   0.00000  Uiso   1.00
O675   O     0.97460   0.82634   0.54494   0.00000  Uiso   1.00
C676   C     0.99438   0.81341   0.59020   0.00000  Uiso   1.00
H677   H     0.52878   0.80116   0.58423   0.00000  Uiso   1.00
H678   H     0.97571   0.78555   0.61101   0.00000  Uiso   1.00
H679   H     0.99599   0.84598   0.61383   0.00000  Uiso   1.00
O680   O     0.52579   0.67341   0.54474   0.00000  Uiso   1.00
C681   C     0.50699   0.68636   0.59037   0.00000  Uiso   1.00
H682   H     0.97260   0.69903   0.58501   0.00000  Uiso   1.00
H683   H     0.52634   0.71392   0.61099   0.00000  Uiso   1.00
H684   H     0.50551   0.65371   0.61388   0.00000  Uiso   1.00
O685   O     0.61534   0.82437   0.45226   0.00000  Uiso   1.00
C686   C     0.62732   0.80998   0.40429   0.00000  Uiso   1.00
H687   H     0.64804   0.77687   0.40437   0.00000  Uiso   1.00
H688   H     0.64710   0.83920   0.38733   0.00000  Uiso   1.00
H689   H     0.59781   0.80441   0.38071   0.00000  Uiso   1.00
O690   O     0.88420   0.67493   0.45363   0.00000  Uiso   1.00
C691   C     0.87177   0.68844   0.40545   0.00000  Uiso   1.00
H692   H     0.85474   0.72402   0.40414   0.00000  Uiso   1.00
H693   H     0.84826   0.66118   0.39102   0.00000  Uiso   1.00
H694   H     0.90078   0.68877   0.38066   0.00000  Uiso   1.00
O695   O     0.88464   0.82439   0.54772   0.00000  Uiso   1.00
C696   C     0.87270   0.81004   0.59572   0.00000  Uiso   1.00
H697   H     0.85236   0.77663   0.59576   0.00000  Uiso   1.00
H698   H     0.85254   0.83907   0.61247   0.00000  Uiso   1.00
H699   H     0.90224   0.80501   0.61940   0.00000  Uiso   1.00
O700   O     0.61579   0.67497   0.54647   0.00000  Uiso   1.00
C701   C     0.62826   0.68856   0.59462   0.00000  Uiso   1.00
H702   H     0.64584   0.72382   0.59572   0.00000  Uiso   1.00
H703   H     0.65129   0.66097   0.60934   0.00000  Uiso   1.00
H704   H     0.59921   0.68962   0.61930   0.00000  Uiso   1.00
O705   O     0.18573   0.29072   0.83334   0.00000  Uiso   1.00
O706   O     0.31427   0.20929   0.83333   0.00000  Uiso   1.00
O707   O     0.31427   0.29072   0.83333   0.00000  Uiso   1.00
O708   O     0.18573   0.20929   0.83334   0.00000  Uiso   1.00
C709   C     0.16495   0.24999   0.83323   0.00000  Uiso   1.00
C710   C     0.33505   0.24999   0.83344   0.00000  Uiso   1.00
O711   O     0.25000   0.29071   0.76280   0.00000  Uiso   1.00
O712   O     0.25000   0.20929   0.90387   0.00000  Uiso   1.00
O713   O     0.25000   0.29071   0.90387   0.00000  Uiso   1.00
O714   O     0.25000   0.20929   0.76280   0.00000  Uiso   1.00
C715   C     0.28457   0.05394   0.85518   0.00000  Uiso   1.00
C716   C     0.22880   0.44605   0.79585   0.00000  Uiso   1.00
C717   C     0.21543   0.05394   0.81148   0.00000  Uiso   1.00
C718   C     0.27120   0.44605   0.87082   0.00000  Uiso   1.00
C719   C     0.25000   0.25000   0.74019   0.00000  Uiso   1.00
C720   C     0.25001   0.25000   0.92648   0.00000  Uiso   1.00
Cu721  Cu    0.25000   0.29822   0.83333   0.00000  Uiso   1.00
Cu722  Cu    0.25000   0.20179   0.83333   0.00000  Uiso   1.00
H723   H     0.31048   0.12426   0.87238   0.00000  Uiso   1.00
H724   H     0.21231   0.37568   0.76775   0.00000  Uiso   1.00
H725   H     0.18952   0.12426   0.79429   0.00000  Uiso   1.00
H726   H     0.28768   0.37569   0.89892   0.00000  Uiso   1.00
N727   N     0.25000   0.12935   0.83333   0.00000  Uiso   1.00
N728   N     0.25000   0.37066   0.83333   0.00000  Uiso   1.00
C729   C     0.25000   0.02733   0.83333   0.00000  Uiso   1.00
C730   C     0.25000   0.47266   0.83333   0.00000  Uiso   1.00
C731   C     0.25000   0.25000   0.68852   0.00000  Uiso   1.00
C732   C     0.25001   0.25001   0.97815   0.00000  Uiso   1.00
C733   C     0.04717   0.28708   0.80878   0.00000  Uiso   1.00
C734   C     0.45260   0.21259   0.80918   0.00000  Uiso   1.00
C735   C     0.45283   0.28709   0.85792   0.00000  Uiso   1.00
C736   C     0.04740   0.21260   0.85754   0.00000  Uiso   1.00
C737   C     0.09329   0.28678   0.80834   0.00000  Uiso   1.00
C738   C     0.40650   0.21285   0.80901   0.00000  Uiso   1.00
C739   C     0.40671   0.28679   0.85833   0.00000  Uiso   1.00
C740   C     0.09351   0.21287   0.85772   0.00000  Uiso   1.00
C741   C     0.11659   0.24990   0.83310   0.00000  Uiso   1.00
C742   C     0.38341   0.24989   0.83359   0.00000  Uiso   1.00
C743   C     0.02417   0.24986   0.83326   0.00000  Uiso   1.00
C744   C     0.47583   0.24986   0.83345   0.00000  Uiso   1.00
C745   C     0.28377   0.10467   0.85507   0.00000  Uiso   1.00
C746   C     0.22896   0.39531   0.79672   0.00000  Uiso   1.00
C747   C     0.21623   0.10467   0.81159   0.00000  Uiso   1.00
C748   C     0.27103   0.39531   0.86995   0.00000  Uiso   1.00
H749   H     0.31254   0.03593   0.87180   0.00000  Uiso   1.00
H750   H     0.21261   0.46404   0.76546   0.00000  Uiso   1.00
H751   H     0.18746   0.03593   0.79486   0.00000  Uiso   1.00
H752   H     0.28739   0.46405   0.90121   0.00000  Uiso   1.00
O753   O     0.02540   0.32634   0.78843   0.00000  Uiso   1.00
C754   C     0.00560   0.31342   0.74318   0.00000  Uiso   1.00
H755   H     0.47119   0.30118   0.74917   0.00000  Uiso   1.00
H756   H     0.02425   0.28555   0.72236   0.00000  Uiso   1.00
H757   H     0.00398   0.34599   0.71956   0.00000  Uiso   1.00
O758   O     0.47422   0.17342   0.78863   0.00000  Uiso   1.00
C759   C     0.49294   0.18638   0.74296   0.00000  Uiso   1.00
H760   H     0.02732   0.19912   0.74828   0.00000  Uiso   1.00
H761   H     0.47352   0.21389   0.72236   0.00000  Uiso   1.00
H762   H     0.49446   0.15371   0.71948   0.00000  Uiso   1.00
O763   O     0.47460   0.32634   0.87828   0.00000  Uiso   1.00
C764   C     0.49438   0.31341   0.92353   0.00000  Uiso   1.00
H765   H     0.02878   0.30116   0.91756   0.00000  Uiso   1.00
H766   H     0.47571   0.28555   0.94434   0.00000  Uiso   1.00
H767   H     0.49599   0.34598   0.94716   0.00000  Uiso   1.00
O768   O     0.02579   0.17341   0.87808   0.00000  Uiso   1.00
C769   C     0.00699   0.18636   0.92371   0.00000  Uiso   1.00
H770   H     0.47260   0.19903   0.91834   0.00000  Uiso   1.00
H771   H     0.02634   0.21392   0.94433   0.00000  Uiso   1.00
H772   H     0.00551   0.15371   0.94721   0.00000  Uiso   1.00
O773   O     0.11534   0.32437   0.78559   0.00000  Uiso   1.00
C774   C     0.12732   0.30998   0.73762   0.00000  Uiso   1.00
H775   H     0.14804   0.27687   0.73770   0.00000  Uiso   1.00
H776   H     0.14710   0.33920   0.72067   0.00000  Uiso   1.00
H777   H     0.09781   0.30441   0.71404   0.00000  Uiso   1.00
O778   O     0.38420   0.17493   0.78696   0.00000  Uiso   1.00
C779   C     0.37177   0.18844   0.73878   0.00000  Uiso   1.00
H780   H     0.35474   0.22402   0.73747   0.00000  Uiso   1.00
H781   H     0.34826   0.16118   0.72435   0.00000  Uiso   1.00
H782   H     0.40078   0.18877   0.71399   0.00000  Uiso   1.00
O783   O     0.38464   0.32439   0.88105   0.00000  Uiso   1.00
C784   C     0.37270   0.31004   0.92905   0.00000  Uiso   1.00
H785   H     0.35236   0.27663   0.92909   0.00000  Uiso   1.00
H786   H     0.35254   0.33907   0.94581   0.00000  Uiso   1.00
H787   H     0.40224   0.30501   0.95273   0.00000  Uiso   1.00
O788   O     0.11579   0.17497   0.87981   0.00000  Uiso   1.00
C789   C     0.12826   0.18856   0.92795   0.00000  Uiso   1.00
H790   H     0.14584   0.22382   0.92905   0.00000  Uiso   1.00
H791   H     0.15129   0.16097   0.94267   0.00000  Uiso   1.00
H792   H     0.09921   0.18962   0.95263   0.00000  Uiso   1.00
O793   O     0.68573   0.29072   0.83334   0.00000  Uiso   1.00
O794   O     0.81427   0.20929   0.83333   0.00000  Uiso   1.00
O795   O     0.81427   0.29072   0.83333   0.00000  Uiso   1.00
O796   O     0.68573   0.20929   0.83334   0.00000  Uiso   1.00
C797   C     0.66495   0.24999   0.83323   0.00000  Uiso   1.00
C798   C     0.83505   0.24999   0.83344   0.00000  Uiso   1.00
O799   O     0.75000   0.29071   0.76280   0.00000  Uiso   1.00
O800   O     0.75000   0.20929   0.90387   0.00000  Uiso   1.00
O801   O     0.75000   0.29071   0.90387   0.00000  Uiso   1.00
O802   O     0.75000   0.20929   0.76280   0.00000  Uiso   1.00
C803   C     0.78457   0.05394   0.85518   0.00000  Uiso   1.00
C804   C     0.72880   0.44605   0.79585   0.00000  Uiso   1.00
C805   C     0.71543   0.05394   0.81148   0.00000  Uiso   1.00
C806   C     0.77120   0.44605   0.87082   0.00000  Uiso   1.00
C807   C     0.75000   0.25000   0.74019   0.00000  Uiso   1.00
C808   C     0.75001   0.25000   0.92648   0.00000  Uiso   1.00
Cu809  Cu    0.75000   0.29822   0.83333   0.00000  Uiso   1.00
Cu810  Cu    0.75000   0.20179   0.83333   0.00000  Uiso   1.00
H811   H     0.81048   0.12426   0.87238   0.00000  Uiso   1.00
H812   H     0.71231   0.37568   0.76775   0.00000  Uiso   1.00
H813   H     0.68952   0.12426   0.79429   0.00000  Uiso   1.00
H814   H     0.78768   0.37569   0.89892   0.00000  Uiso   1.00
N815   N     0.75000   0.12935   0.83333   0.00000  Uiso   1.00
N816   N     0.75000   0.37066   0.83333   0.00000  Uiso   1.00
C817   C     0.75000   0.02733   0.83333   0.00000  Uiso   1.00
C818   C     0.75000   0.47266   0.83333   0.00000  Uiso   1.00
C819   C     0.75000   0.25000   0.68852   0.00000  Uiso   1.00
C820   C     0.75001   0.25001   0.97815   0.00000  Uiso   1.00
C821   C     0.54717   0.28708   0.80878   0.00000  Uiso   1.00
C822   C     0.95260   0.21259   0.80918   0.00000  Uiso   1.00
C823   C     0.95283   0.28709   0.85792   0.00000  Uiso   1.00
C824   C     0.54740   0.21260   0.85754   0.00000  Uiso   1.00
C825   C     0.59329   0.28678   0.80834   0.00000  Uiso   1.00
C826   C     0.90650   0.21285   0.80901   0.00000  Uiso   1.00
C827   C     0.90671   0.28679   0.85833   0.00000  Uiso   1.00
C828   C     0.59351   0.21287   0.85772   0.00000  Uiso   1.00
C829   C     0.61659   0.24990   0.83310   0.00000  Uiso   1.00
C830   C     0.88341   0.24989   0.83359   0.00000  Uiso   1.00
C831   C     0.52417   0.24986   0.83326   0.00000  Uiso   1.00
C832   C     0.97583   0.24986   0.83345   0.00000  Uiso   1.00
C833   C     0.78377   0.10467   0.85507   0.00000  Uiso   1.00
C834   C     0.72896   0.39531   0.79672   0.00000  Uiso   1.00
C835   C     0.71623   0.10467   0.81159   0.00000  Uiso   1.00
C836   C     0.77103   0.39531   0.86995   0.00000  Uiso   1.00
H837   H     0.81254   0.03593   0.87180   0.00000  Uiso   1.00
H838   H     0.71261   0.46404   0.76546   0.00000  Uiso   1.00
H839   H     0.68746   0.03593   0.79486   0.00000  Uiso   1.00
H840   H     0.78739   0.46405   0.90121   0.00000  Uiso   1.00
O841   O     0.52540   0.32634   0.78843   0.00000  Uiso   1.00
C842   C     0.50560   0.31342   0.74318   0.00000  Uiso   1.00
H843   H     0.97119   0.30118   0.74917   0.00000  Uiso   1.00
H844   H     0.52425   0.28555   0.72236   0.00000  Uiso   1.00
H845   H     0.50398   0.34599   0.71956   0.00000  Uiso   1.00
O846   O     0.97422   0.17342   0.78863   0.00000  Uiso   1.00
C847   C     0.99294   0.18638   0.74296   0.00000  Uiso   1.00
H848   H     0.52732   0.19912   0.74828   0.00000  Uiso   1.00
H849   H     0.97352   0.21389   0.72236   0.00000  Uiso   1.00
H850   H     0.99446   0.15371   0.71948   0.00000  Uiso   1.00
O851   O     0.97460   0.32634   0.87828   0.00000  Uiso   1.00
C852   C     0.99438   0.31341   0.92353   0.00000  Uiso   1.00
H853   H     0.52878   0.30116   0.91756   0.00000  Uiso   1.00
H854   H     0.97571   0.28555   0.94434   0.00000  Uiso   1.00
H855   H     0.99599   0.34598   0.94716   0.00000  Uiso   1.00
O856   O     0.52579   0.17341   0.87808   0.00000  Uiso   1.00
C857   C     0.50699   0.18636   0.92371   0.00000  Uiso   1.00
H858   H     0.97260   0.19903   0.91834   0.00000  Uiso   1.00
H859   H     0.52634   0.21392   0.94433   0.00000  Uiso   1.00
H860   H     0.50551   0.15371   0.94721   0.00000  Uiso   1.00
O861   O     0.61534   0.32437   0.78559   0.00000  Uiso   1.00
C862   C     0.62732   0.30998   0.73762   0.00000  Uiso   1.00
H863   H     0.64804   0.27687   0.73770   0.00000  Uiso   1.00
H864   H     0.64710   0.33920   0.72067   0.00000  Uiso   1.00
H865   H     0.59781   0.30441   0.71404   0.00000  Uiso   1.00
O866   O     0.88420   0.17493   0.78696   0.00000  Uiso   1.00
C867   C     0.87177   0.18844   0.73878   0.00000  Uiso   1.00
H868   H     0.85474   0.22402   0.73747   0.00000  Uiso   1.00
H869   H     0.84826   0.16118   0.72435   0.00000  Uiso   1.00
H870   H     0.90078   0.18877   0.71399   0.00000  Uiso   1.00
O871   O     0.88464   0.32439   0.88105   0.00000  Uiso   1.00
C872   C     0.87270   0.31004   0.92905   0.00000  Uiso   1.00
H873   H     0.85236   0.27663   0.92909   0.00000  Uiso   1.00
H874   H     0.85254   0.33907   0.94581   0.00000  Uiso   1.00
H875   H     0.90224   0.30501   0.95273   0.00000  Uiso   1.00
O876   O     0.61579   0.17497   0.87981   0.00000  Uiso   1.00
C877   C     0.62826   0.18856   0.92795   0.00000  Uiso   1.00
H878   H     0.64584   0.22382   0.92905   0.00000  Uiso   1.00
H879   H     0.65129   0.16097   0.94267   0.00000  Uiso   1.00
H880   H     0.59921   0.18962   0.95263   0.00000  Uiso   1.00
O881   O     0.18573   0.79072   0.83334   0.00000  Uiso   1.00
O882   O     0.31427   0.70929   0.83333   0.00000  Uiso   1.00
O883   O     0.31427   0.79072   0.83333   0.00000  Uiso   1.00
O884   O     0.18573   0.70929   0.83334   0.00000  Uiso   1.00
C885   C     0.16495   0.74999   0.83323   0.00000  Uiso   1.00
C886   C     0.33505   0.74999   0.83344   0.00000  Uiso   1.00
O887   O     0.25000   0.79071   0.76280   0.00000  Uiso   1.00
O888   O     0.25000   0.70929   0.90387   0.00000  Uiso   1.00
O889   O     0.25000   0.79071   0.90387   0.00000  Uiso   1.00
O890   O     0.25000   0.70929   0.76280   0.00000  Uiso   1.00
C891   C     0.28457   0.55394   0.85518   0.00000  Uiso   1.00
C892   C     0.22880   0.94605   0.79585   0.00000  Uiso   1.00
C893   C     0.21543   0.55394   0.81148   0.00000  Uiso   1.00
C894   C     0.27120   0.94605   0.87082   0.00000  Uiso   1.00
C895   C     0.25000   0.75000   0.74019   0.00000  Uiso   1.00
C896   C     0.25001   0.75000   0.92648   0.00000  Uiso   1.00
Cu897  Cu    0.25000   0.79822   0.83333   0.00000  Uiso   1.00
Cu898  Cu    0.25000   0.70179   0.83333   0.00000  Uiso   1.00
H899   H     0.31048   0.62426   0.87238   0.00000  Uiso   1.00
H900   H     0.21231   0.87568   0.76775   0.00000  Uiso   1.00
H901   H     0.18952   0.62426   0.79429   0.00000  Uiso   1.00
H902   H     0.28768   0.87569   0.89892   0.00000  Uiso   1.00
N903   N     0.25000   0.62935   0.83333   0.00000  Uiso   1.00
N904   N     0.25000   0.87066   0.83333   0.00000  Uiso   1.00
C905   C     0.25000   0.52733   0.83333   0.00000  Uiso   1.00
C906   C     0.25000   0.97266   0.83333   0.00000  Uiso   1.00
C907   C     0.25000   0.75000   0.68852   0.00000  Uiso   1.00
C908   C     0.25001   0.75001   0.97815   0.00000  Uiso   1.00
C909   C     0.04717   0.78708   0.80878   0.00000  Uiso   1.00
C910   C     0.45260   0.71259   0.80918   0.00000  Uiso   1.00
C911   C     0.45283   0.78709   0.85792   0.00000  Uiso   1.00
C912   C     0.04740   0.71260   0.85754   0.00000  Uiso   1.00
C913   C     0.09329   0.78678   0.80834   0.00000  Uiso   1.00
C914   C     0.40650   0.71285   0.80901   0.00000  Uiso   1.00
C915   C     0.40671   0.78679   0.85833   0.00000  Uiso   1.00
C916   C     0.09351   0.71287   0.85772   0.00000  Uiso   1.00
C917   C     0.11659   0.74990   0.83310   0.00000  Uiso   1.00
C918   C     0.38341   0.74989   0.83359   0.00000  Uiso   1.00
C919   C     0.02417   0.74986   0.83326   0.00000  Uiso   1.00
C920   C     0.47583   0.74986   0.83345   0.00000  Uiso   1.00
C921   C     0.28377   0.60467   0.85507   0.00000  Uiso   1.00
C922   C     0.22896   0.89531   0.79672   0.00000  Uiso   1.00
C923   C     0.21623   0.60467   0.81159   0.00000  Uiso   1.00
C924   C     0.27103   0.89531   0.86995   0.00000  Uiso   1.00
H925   H     0.31254   0.53593   0.87180   0.00000  Uiso   1.00
H926   H     0.21261   0.96404   0.76546   0.00000  Uiso   1.00
H927   H     0.18746   0.53593   0.79486   0.00000  Uiso   1.00
H928   H     0.28739   0.96405   0.90121   0.00000  Uiso   1.00
O929   O     0.02540   0.82634   0.78843   0.00000  Uiso   1.00
C930   C     0.00560   0.81342   0.74318   0.00000  Uiso   1.00
H931   H     0.47119   0.80118   0.74917   0.00000  Uiso   1.00
H932   H     0.02425   0.78555   0.72236   0.00000  Uiso   1.00
H933   H     0.00398   0.84599   0.71956   0.00000  Uiso   1.00
O934   O     0.47422   0.67342   0.78863   0.00000  Uiso   1.00
C935   C     0.49294   0.68638   0.74296   0.00000  Uiso   1.00
H936   H     0.02732   0.69912   0.74828   0.00000  Uiso   1.00
H937   H     0.47352   0.71389   0.72236   0.00000  Uiso   1.00
H938   H     0.49446   0.65371   0.71948   0.00000  Uiso   1.00
O939   O     0.47460   0.82634   0.87828   0.00000  Uiso   1.00
C940   C     0.49438   0.81341   0.92353   0.00000  Uiso   1.00
H941   H     0.02878   0.80116   0.91756   0.00000  Uiso   1.00
H942   H     0.47571   0.78555   0.94434   0.00000  Uiso   1.00
H943   H     0.49599   0.84598   0.94716   0.00000  Uiso   1.00
O944   O     0.02579   0.67341   0.87808   0.00000  Uiso   1.00
C945   C     0.00699   0.68636   0.92371   0.00000  Uiso   1.00
H946   H     0.47260   0.69903   0.91834   0.00000  Uiso   1.00
H947   H     0.02634   0.71392   0.94433   0.00000  Uiso   1.00
H948   H     0.00551   0.65371   0.94721   0.00000  Uiso   1.00
O949   O     0.11534   0.82437   0.78559   0.00000  Uiso   1.00
C950   C     0.12732   0.80998   0.73762   0.00000  Uiso   1.00
H951   H     0.14804   0.77687   0.73770   0.00000  Uiso   1.00
H952   H     0.14710   0.83920   0.72067   0.00000  Uiso   1.00
H953   H     0.09781   0.80441   0.71404   0.00000  Uiso   1.00
O954   O     0.38420   0.67493   0.78696   0.00000  Uiso   1.00
C955   C     0.37177   0.68844   0.73878   0.00000  Uiso   1.00
H956   H     0.35474   0.72402   0.73747   0.00000  Uiso   1.00
H957   H     0.34826   0.66118   0.72435   0.00000  Uiso   1.00
H958   H     0.40078   0.68877   0.71399   0.00000  Uiso   1.00
O959   O     0.38464   0.82439   0.88105   0.00000  Uiso   1.00
C960   C     0.37270   0.81004   0.92905   0.00000  Uiso   1.00
H961   H     0.35236   0.77663   0.92909   0.00000  Uiso   1.00
H962   H     0.35254   0.83907   0.94581   0.00000  Uiso   1.00
H963   H     0.40224   0.80501   0.95273   0.00000  Uiso   1.00
O964   O     0.11579   0.67497   0.87981   0.00000  Uiso   1.00
C965   C     0.12826   0.68856   0.92795   0.00000  Uiso   1.00
H966   H     0.14584   0.72382   0.92905   0.00000  Uiso   1.00
H967   H     0.15129   0.66097   0.94267   0.00000  Uiso   1.00
H968   H     0.09921   0.68962   0.95263   0.00000  Uiso   1.00
O969   O     0.68573   0.79072   0.83334   0.00000  Uiso   1.00
O970   O     0.81427   0.70929   0.83333   0.00000  Uiso   1.00
O971   O     0.81427   0.79072   0.83333   0.00000  Uiso   1.00
O972   O     0.68573   0.70929   0.83334   0.00000  Uiso   1.00
C973   C     0.66495   0.74999   0.83323   0.00000  Uiso   1.00
C974   C     0.83505   0.74999   0.83344   0.00000  Uiso   1.00
O975   O     0.75000   0.79071   0.76280   0.00000  Uiso   1.00
O976   O     0.75000   0.70929   0.90387   0.00000  Uiso   1.00
O977   O     0.75000   0.79071   0.90387   0.00000  Uiso   1.00
O978   O     0.75000   0.70929   0.76280   0.00000  Uiso   1.00
C979   C     0.78457   0.55394   0.85518   0.00000  Uiso   1.00
C980   C     0.72880   0.94605   0.79585   0.00000  Uiso   1.00
C981   C     0.71543   0.55394   0.81148   0.00000  Uiso   1.00
C982   C     0.77120   0.94605   0.87082   0.00000  Uiso   1.00
C983   C     0.75000   0.75000   0.74019   0.00000  Uiso   1.00
C984   C     0.75001   0.75000   0.92648   0.00000  Uiso   1.00
Cu985  Cu    0.75000   0.79822   0.83333   0.00000  Uiso   1.00
Cu986  Cu    0.75000   0.70179   0.83333   0.00000  Uiso   1.00
H987   H     0.81048   0.62426   0.87238   0.00000  Uiso   1.00
H988   H     0.71231   0.87568   0.76775   0.00000  Uiso   1.00
H989   H     0.68952   0.62426   0.79429   0.00000  Uiso   1.00
H990   H     0.78768   0.87569   0.89892   0.00000  Uiso   1.00
N991   N     0.75000   0.62935   0.83333   0.00000  Uiso   1.00
N992   N     0.75000   0.87066   0.83333   0.00000  Uiso   1.00
C993   C     0.75000   0.52733   0.83333   0.00000  Uiso   1.00
C994   C     0.75000   0.97266   0.83333   0.00000  Uiso   1.00
C995   C     0.75000   0.75000   0.68852   0.00000  Uiso   1.00
C996   C     0.75001   0.75001   0.97815   0.00000  Uiso   1.00
C997   C     0.54717   0.78708   0.80878   0.00000  Uiso   1.00
C998   C     0.95260   0.71259   0.80918   0.00000  Uiso   1.00
C999   C     0.95283   0.78709   0.85792   0.00000  Uiso   1.00
C1000  C     0.54740   0.71260   0.85754   0.00000  Uiso   1.00
C1001  C     0.59329   0.78678   0.80834   0.00000  Uiso   1.00
C1002  C     0.90650   0.71285   0.80901   0.00000  Uiso   1.00
C1003  C     0.90671   0.78679   0.85833   0.00000  Uiso   1.00
C1004  C     0.59351   0.71287   0.85772   0.00000  Uiso   1.00
C1005  C     0.61659   0.74990   0.83310   0.00000  Uiso   1.00
C1006  C     0.88341   0.74989   0.83359   0.00000  Uiso   1.00
C1007  C     0.52417   0.74986   0.83326   0.00000  Uiso   1.00
C1008  C     0.97583   0.74986   0.83345   0.00000  Uiso   1.00
C1009  C     0.78377   0.60467   0.85507   0.00000  Uiso   1.00
C1010  C     0.72896   0.89531   0.79672   0.00000  Uiso   1.00
C1011  C     0.71623   0.60467   0.81159   0.00000  Uiso   1.00
C1012  C     0.77103   0.89531   0.86995   0.00000  Uiso   1.00
H1013  H     0.81254   0.53593   0.87180   0.00000  Uiso   1.00
H1014  H     0.71261   0.96404   0.76546   0.00000  Uiso   1.00
H1015  H     0.68746   0.53593   0.79486   0.00000  Uiso   1.00
H1016  H     0.78739   0.96405   0.90121   0.00000  Uiso   1.00
O1017  O     0.52540   0.82634   0.78843   0.00000  Uiso   1.00
C1018  C     0.50560   0.81342   0.74318   0.00000  Uiso   1.00
H1019  H     0.97119   0.80118   0.74917   0.00000  Uiso   1.00
H1020  H     0.52425   0.78555   0.72236   0.00000  Uiso   1.00
H1021  H     0.50398   0.84599   0.71956   0.00000  Uiso   1.00
O1022  O     0.97422   0.67342   0.78863   0.00000  Uiso   1.00
C1023  C     0.99294   0.68638   0.74296   0.00000  Uiso   1.00
H1024  H     0.52732   0.69912   0.74828   0.00000  Uiso   1.00
H1025  H     0.97352   0.71389   0.72236   0.00000  Uiso   1.00
H1026  H     0.99446   0.65371   0.71948   0.00000  Uiso   1.00
O1027  O     0.97460   0.82634   0.87828   0.00000  Uiso   1.00
C1028  C     0.99438   0.81341   0.92353   0.00000  Uiso   1.00
H1029  H     0.52878   0.80116   0.91756   0.00000  Uiso   1.00
H1030  H     0.97571   0.78555   0.94434   0.00000  Uiso   1.00
H1031  H     0.99599   0.84598   0.94716   0.00000  Uiso   1.00
O1032  O     0.52579   0.67341   0.87808   0.00000  Uiso   1.00
C1033  C     0.50699   0.68636   0.92371   0.00000  Uiso   1.00
H1034  H     0.97260   0.69903   0.91834   0.00000  Uiso   1.00
H1035  H     0.52634   0.71392   0.94433   0.00000  Uiso   1.00
H1036  H     0.50551   0.65371   0.94721   0.00000  Uiso   1.00
O1037  O     0.61534   0.82437   0.78559   0.00000  Uiso   1.00
C1038  C     0.62732   0.80998   0.73762   0.00000  Uiso   1.00
H1039  H     0.64804   0.77687   0.73770   0.00000  Uiso   1.00
H1040  H     0.64710   0.83920   0.72067   0.00000  Uiso   1.00
H1041  H     0.59781   0.80441   0.71404   0.00000  Uiso   1.00
O1042  O     0.88420   0.67493   0.78696   0.00000  Uiso   1.00
C1043  C     0.87177   0.68844   0.73878   0.00000  Uiso   1.00
H1044  H     0.85474   0.72402   0.73747   0.00000  Uiso   1.00
H1045  H     0.84826   0.66118   0.72435   0.00000  Uiso   1.00
H1046  H     0.90078   0.68877   0.71399   0.00000  Uiso   1.00
O1047  O     0.88464   0.82439   0.88105   0.00000  Uiso   1.00
C1048  C     0.87270   0.81004   0.92905   0.00000  Uiso   1.00
H1049  H     0.85236   0.77663   0.92909   0.00000  Uiso   1.00
H1050  H     0.85254   0.83907   0.94581   0.00000  Uiso   1.00
H1051  H     0.90224   0.80501   0.95273   0.00000  Uiso   1.00
O1052  O     0.61579   0.67497   0.87981   0.00000  Uiso   1.00
C1053  C     0.62826   0.68856   0.92795   0.00000  Uiso   1.00
H1054  H     0.64584   0.72382   0.92905   0.00000  Uiso   1.00
H1055  H     0.65129   0.66097   0.94267   0.00000  Uiso   1.00
H1056  H     0.59921   0.68962   0.95263   0.00000  Uiso   1.00
loop_
_geom_bond_atom_site_label_1
_geom_bond_atom_site_label_2
_geom_bond_distance
_geom_bond_site_symmetry_2
_ccdc_geom_bond_type
O1     C5      1.293   .     A
O1     Cu17    1.959   .     S
O2     Cu18    1.959   .     S
O2     C6      1.292   .     A
O3     C6      1.293   .     A
O3     Cu17    1.959   .     S
O4     Cu18    1.959   .     S
O4     C5      1.292   .     A
C5     C37     1.466   .     S
C6     C38     1.466   .     S
O7     Cu17    1.928   .     S
O7     C15     1.285   .     A
O8     C16     1.285   .     A
O8     Cu18    1.928   .     S
O9     C16     1.285   .     A
O9     Cu17    1.928   .     S
O10    Cu18    1.928   .     S
O10    C15     1.285   .     A
C11    C25     1.411   .     A
C11    H45     1.081   .     S
C11    C41     1.407   .     A
C12    C42     1.407   .     A
C12    H46     1.081   .     S
C12    C26     1.411   .     A
C13    C25     1.411   .     A
C13    H47     1.081   .     S
C13    C43     1.407   .     A
C14    H48     1.081   .     S
C14    C26     1.411   .     A
C14    C44     1.407   .     A
C15    C27     1.404   .     S
C16    C28     1.404   .     S
Cu17   N24     2.009   .     S
Cu17   Cu18    2.674   .     S
Cu18   N23     2.009   .     S
H19    C41     1.081   .     S
H20    C42     1.081   .     S
H21    C43     1.081   .     S
H22    C44     1.081   .     S
N23    C43     1.364   .     A
N23    C41     1.364   .     A
N24    C42     1.364   .     A
N24    C44     1.364   .     A
C25    C202    1.516   1_545 S
C26    C201    1.516   .     S
C27    C732    1.188   1_554 S
C28    C379    1.188   .     S
C29    O49     1.387   .     S
C29    C33     1.398   .     A
C29    C39     1.413   .     A
C30    O54     1.387   .     S
C30    C34     1.397   .     A
C30    C40     1.413   .     A
C31    C40     1.413   .     A
C31    O59     1.387   .     S
C31    C35     1.398   .     A
C32    C36     1.397   .     A
C32    C39     1.413   .     A
C32    O64     1.387   .     S
C33    O69     1.385   .     S
C33    C37     1.412   .     A
C34    O74     1.385   .     S
C34    C38     1.412   .     A
C35    C38     1.412   .     A
C35    O79     1.385   .     S
C36    C37     1.412   .     A
C36    O84     1.385   .     S
C39    C128    1.465   1_455 S
C40    C127    1.465   .     S
O49    C50     1.413   .     S
C50    H52     1.113   .     S
C50    H53     1.109   .     S
C50    H139    1.109   1_455 S
H51    C138    1.109   .     S
O54    C55     1.413   .     S
C55    H57     1.114   .     S
C55    H58     1.109   .     S
C55    H144    1.109   .     S
H56    C143    1.109   1_455 S
O59    C60     1.413   .     S
C60    H63     1.109   .     S
C60    H62     1.113   .     S
C60    H149    1.109   .     S
H61    C148    1.109   1_455 S
O64    C65     1.413   .     S
C65    H67     1.114   .     S
C65    H68     1.109   .     S
C65    H154    1.109   1_455 S
H66    C153    1.109   .     S
O69    C70     1.412   .     S
C70    H71     1.113   .     S
C70    H73     1.109   .     S
C70    H72     1.109   .     S
O74    C75     1.412   .     S
C75    H76     1.114   .     S
C75    H77     1.110   .     S
C75    H78     1.109   .     S
O79    C80     1.412   .     S
C80    H83     1.110   .     S
C80    H81     1.113   .     S
C80    H82     1.109   .     S
O84    C85     1.412   .     S
C85    H86     1.114   .     S
C85    H87     1.109   .     S
C85    H88     1.109   .     S
O89    C93     1.293   .     A
O89    Cu105   1.959   .     S
O90    Cu106   1.959   .     S
O90    C94     1.292   .     A
O91    C94     1.293   .     A
O91    Cu105   1.959   .     S
O92    Cu106   1.959   .     S
O92    C93     1.292   .     A
C93    C125    1.466   .     S
C94    C126    1.466   .     S
O95    Cu105   1.928   .     S
O95    C103    1.285   .     A
O96    C104    1.285   .     A
O96    Cu106   1.928   .     S
O97    C104    1.285   .     A
O97    Cu105   1.928   .     S
O98    Cu106   1.928   .     S
O98    C103    1.285   .     A
C99    C113    1.411   .     A
C99    H133    1.081   .     S
C99    C129    1.407   .     A
C100   C130    1.407   .     A
C100   H134    1.081   .     S
C100   C114    1.411   .     A
C101   C113    1.411   .     A
C101   H135    1.081   .     S
C101   C131    1.407   .     A
C102   H136    1.081   .     S
C102   C114    1.411   .     A
C102   C132    1.407   .     A
C103   C115    1.404   .     S
C104   C116    1.404   .     S
Cu105  N112    2.009   .     S
Cu105  Cu106   2.674   .     S
Cu106  N111    2.009   .     S
H107   C129    1.081   .     S
H108   C130    1.081   .     S
H109   C131    1.081   .     S
H110   C132    1.081   .     S
N111   C131    1.364   .     A
N111   C129    1.364   .     A
N112   C130    1.364   .     A
N112   C132    1.364   .     A
C113   C290    1.516   1_545 S
C114   C289    1.516   .     S
C115   C820    1.188   1_554 S
C116   C467    1.188   .     S
C117   O137    1.387   .     S
C117   C121    1.398   .     A
C117   C127    1.413   .     A
C118   O142    1.387   .     S
C118   C122    1.397   .     A
C118   C128    1.413   .     A
C119   C128    1.413   .     A
C119   O147    1.387   .     S
C119   C123    1.398   .     A
C120   C124    1.397   .     A
C120   C127    1.413   .     A
C120   O152    1.387   .     S
C121   O157    1.385   .     S
C121   C125    1.412   .     A
C122   O162    1.385   .     S
C122   C126    1.412   .     A
C123   C126    1.412   .     A
C123   O167    1.385   .     S
C124   C125    1.412   .     A
C124   O172    1.385   .     S
C128   C39     1.465   1_655 S
O137   C138    1.413   .     S
C138   H140    1.113   .     S
C138   H141    1.109   .     S
H139   C50     1.109   1_655 S
O142   C143    1.413   .     S
C143   H145    1.114   .     S
C143   H146    1.109   .     S
C143   H56     1.109   1_655 S
O147   C148    1.413   .     S
C148   H151    1.109   .     S
C148   H150    1.113   .     S
C148   H61     1.109   1_655 S
O152   C153    1.413   .     S
C153   H155    1.114   .     S
C153   H156    1.109   .     S
H154   C65     1.109   1_655 S
O157   C158    1.412   .     S
C158   H159    1.113   .     S
C158   H161    1.109   .     S
C158   H160    1.109   .     S
O162   C163    1.412   .     S
C163   H164    1.114   .     S
C163   H165    1.110   .     S
C163   H166    1.109   .     S
O167   C168    1.412   .     S
C168   H171    1.110   .     S
C168   H169    1.113   .     S
C168   H170    1.109   .     S
O172   C173    1.412   .     S
C173   H174    1.114   .     S
C173   H175    1.109   .     S
C173   H176    1.109   .     S
O177   C181    1.293   .     A
O177   Cu193   1.959   .     S
O178   Cu194   1.959   .     S
O178   C182    1.292   .     A
O179   C182    1.293   .     A
O179   Cu193   1.959   .     S
O180   Cu194   1.959   .     S
O180   C181    1.292   .     A
C181   C213    1.466   .     S
C182   C214    1.466   .     S
O183   Cu193   1.928   .     S
O183   C191    1.285   .     A
O184   C192    1.285   .     A
O184   Cu194   1.928   .     S
O185   C192    1.285   .     A
O185   Cu193   1.928   .     S
O186   Cu194   1.928   .     S
O186   C191    1.285   .     A
C187   C201    1.411   .     A
C187   H221    1.081   .     S
C187   C217    1.407   .     A
C188   C218    1.407   .     A
C188   H222    1.081   .     S
C188   C202    1.411   .     A
C189   C201    1.411   .     A
C189   H223    1.081   .     S
C189   C219    1.407   .     A
C190   H224    1.081   .     S
C190   C202    1.411   .     A
C190   C220    1.407   .     A
C191   C203    1.404   .     S
C192   C204    1.404   .     S
Cu193  N200    2.009   .     S
Cu193  Cu194   2.674   .     S
Cu194  N199    2.009   .     S
H195   C217    1.081   .     S
H196   C218    1.081   .     S
H197   C219    1.081   .     S
H198   C220    1.081   .     S
N199   C219    1.364   .     A
N199   C217    1.364   .     A
N200   C218    1.364   .     A
N200   C220    1.364   .     A
C202   C25     1.516   1_565 S
C203   C908    1.188   1_554 S
C204   C555    1.188   .     S
C205   O225    1.387   .     S
C205   C209    1.398   .     A
C205   C215    1.413   .     A
C206   O230    1.387   .     S
C206   C210    1.397   .     A
C206   C216    1.413   .     A
C207   C216    1.413   .     A
C207   O235    1.387   .     S
C207   C211    1.398   .     A
C208   C212    1.397   .     A
C208   C215    1.413   .     A
C208   O240    1.387   .     S
C209   O245    1.385   .     S
C209   C213    1.412   .     A
C210   O250    1.385   .     S
C210   C214    1.412   .     A
C211   C214    1.412   .     A
C211   O255    1.385   .     S
C212   C213    1.412   .     A
C212   O260    1.385   .     S
C215   C304    1.465   1_455 S
C216   C303    1.465   .     S
O225   C226    1.413   .     S
C226   H228    1.113   .     S
C226   H229    1.109   .     S
C226   H315    1.109   1_455 S
H227   C314    1.109   .     S
O230   C231    1.413   .     S
C231   H233    1.114   .     S
C231   H234    1.109   .     S
C231   H320    1.109   .     S
H232   C319    1.109   1_455 S
O235   C236    1.413   .     S
C236   H239    1.109   .     S
C236   H238    1.113   .     S
C236   H325    1.109   .     S
H237   C324    1.109   1_455 S
O240   C241    1.413   .     S
C241   H243    1.114   .     S
C241   H244    1.109   .     S
C241   H330    1.109   1_455 S
H242   C329    1.109   .     S
O245   C246    1.412   .     S
C246   H247    1.113   .     S
C246   H249    1.109   .     S
C246   H248    1.109   .     S
O250   C251    1.412   .     S
C251   H252    1.114   .     S
C251   H253    1.110   .     S
C251   H254    1.109   .     S
O255   C256    1.412   .     S
C256   H259    1.110   .     S
C256   H257    1.113   .     S
C256   H258    1.109   .     S
O260   C261    1.412   .     S
C261   H262    1.114   .     S
C261   H263    1.109   .     S
C261   H264    1.109   .     S
O265   C269    1.293   .     A
O265   Cu281   1.959   .     S
O266   Cu282   1.959   .     S
O266   C270    1.292   .     A
O267   C270    1.293   .     A
O267   Cu281   1.959   .     S
O268   Cu282   1.959   .     S
O268   C269    1.292   .     A
C269   C301    1.466   .     S
C270   C302    1.466   .     S
O271   Cu281   1.928   .     S
O271   C279    1.285   .     A
O272   C280    1.285   .     A
O272   Cu282   1.928   .     S
O273   C280    1.285   .     A
O273   Cu281   1.928   .     S
O274   Cu282   1.928   .     S
O274   C279    1.285   .     A
C275   C289    1.411   .     A
C275   H309    1.081   .     S
C275   C305    1.407   .     A
C276   C306    1.407   .     A
C276   H310    1.081   .     S
C276   C290    1.411   .     A
C277   C289    1.411   .     A
C277   H311    1.081   .     S
C277   C307    1.407   .     A
C278   H312    1.081   .     S
C278   C290    1.411   .     A
C278   C308    1.407   .     A
C279   C291    1.404   .     S
C280   C292    1.404   .     S
Cu281  N288    2.009   .     S
Cu281  Cu282   2.674   .     S
Cu282  N287    2.009   .     S
H283   C305    1.081   .     S
H284   C306    1.081   .     S
H285   C307    1.081   .     S
H286   C308    1.081   .     S
N287   C307    1.364   .     A
N287   C305    1.364   .     A
N288   C306    1.364   .     A
N288   C308    1.364   .     A
C290   C113    1.516   1_565 S
C291   C996    1.188   1_554 S
C292   C643    1.188   .     S
C293   O313    1.387   .     S
C293   C297    1.398   .     A
C293   C303    1.413   .     A
C294   O318    1.387   .     S
C294   C298    1.397   .     A
C294   C304    1.413   .     A
C295   C304    1.413   .     A
C295   O323    1.387   .     S
C295   C299    1.398   .     A
C296   C300    1.397   .     A
C296   C303    1.413   .     A
C296   O328    1.387   .     S
C297   O333    1.385   .     S
C297   C301    1.412   .     A
C298   O338    1.385   .     S
C298   C302    1.412   .     A
C299   C302    1.412   .     A
C299   O343    1.385   .     S
C300   C301    1.412   .     A
C300   O348    1.385   .     S
C304   C215    1.465   1_655 S
O313   C314    1.413   .     S
C314   H316    1.113   .     S
C314   H317    1.109   .     S
H315   C226    1.109   1_655 S
O318   C319    1.413   .     S
C319   H321    1.114   .     S
C319   H322    1.109   .     S
C319   H232    1.109   1_655 S
O323   C324    1.413   .     S
C324   H327    1.109   .     S
C324   H326    1.113   .     S
C324   H237    1.109   1_655 S
O328   C329    1.413   .     S
C329   H331    1.114   .     S
C329   H332    1.109   .     S
H330   C241    1.109   1_655 S
O333   C334    1.412   .     S
C334   H335    1.113   .     S
C334   H337    1.109   .     S
C334   H336    1.109   .     S
O338   C339    1.412   .     S
C339   H340    1.114   .     S
C339   H341    1.110   .     S
C339   H342    1.109   .     S
O343   C344    1.412   .     S
C344   H347    1.110   .     S
C344   H345    1.113   .     S
C344   H346    1.109   .     S
O348   C349    1.412   .     S
C349   H350    1.114   .     S
C349   H351    1.109   .     S
C349   H352    1.109   .     S
O353   C357    1.293   .     A
O353   Cu369   1.959   .     S
O354   Cu370   1.959   .     S
O354   C358    1.292   .     A
O355   C358    1.293   .     A
O355   Cu369   1.959   .     S
O356   Cu370   1.959   .     S
O356   C357    1.292   .     A
C357   C389    1.466   .     S
C358   C390    1.466   .     S
O359   Cu369   1.928   .     S
O359   C367    1.285   .     A
O360   C368    1.285   .     A
O360   Cu370   1.928   .     S
O361   C368    1.285   .     A
O361   Cu369   1.928   .     S
O362   Cu370   1.928   .     S
O362   C367    1.285   .     A
C363   C377    1.411   .     A
C363   H397    1.081   .     S
C363   C393    1.407   .     A
C364   C394    1.407   .     A
C364   H398    1.081   .     S
C364   C378    1.411   .     A
C365   C377    1.411   .     A
C365   H399    1.081   .     S
C365   C395    1.407   .     A
C366   H400    1.081   .     S
C366   C378    1.411   .     A
C366   C396    1.407   .     A
C367   C379    1.404   .     S
C368   C380    1.404   .     S
Cu369  N376    2.009   .     S
Cu369  Cu370   2.674   .     S
Cu370  N375    2.009   .     S
H371   C393    1.081   .     S
H372   C394    1.081   .     S
H373   C395    1.081   .     S
H374   C396    1.081   .     S
N375   C395    1.364   .     A
N375   C393    1.364   .     A
N376   C394    1.364   .     A
N376   C396    1.364   .     A
C377   C554    1.516   1_545 S
C378   C553    1.516   .     S
C380   C731    1.188   .     S
C381   O401    1.387   .     S
C381   C385    1.398   .     A
C381   C391    1.413   .     A
C382   O406    1.387   .     S
C382   C386    1.397   .     A
C382   C392    1.413   .     A
C383   C392    1.413   .     A
C383   O411    1.387   .     S
C383   C387    1.398   .     A
C384   C388    1.397   .     A
C384   C391    1.413   .     A
C384   O416    1.387   .     S
C385   O421    1.385   .     S
C385   C389    1.412   .     A
C386   O426    1.385   .     S
C386   C390    1.412   .     A
C387   C390    1.412   .     A
C387   O431    1.385   .     S
C388   C389    1.412   .     A
C388   O436    1.385   .     S
C391   C480    1.465   1_455 S
C392   C479    1.465   .     S
O401   C402    1.413   .     S
C402   H404    1.113   .     S
C402   H405    1.109   .     S
C402   H491    1.109   1_455 S
H403   C490    1.109   .     S
O406   C407    1.413   .     S
C407   H409    1.114   .     S
C407   H410    1.109   .     S
C407   H496    1.109   .     S
H408   C495    1.109   1_455 S
O411   C412    1.413   .     S
C412   H415    1.109   .     S
C412   H414    1.113   .     S
C412   H501    1.109   .     S
H413   C500    1.109   1_455 S
O416   C417    1.413   .     S
C417   H419    1.114   .     S
C417   H420    1.109   .     S
C417   H506    1.109   1_455 S
H418   C505    1.109   .     S
O421   C422    1.412   .     S
C422   H423    1.113   .     S
C422   H425    1.109   .     S
C422   H424    1.109   .     S
O426   C427    1.412   .     S
C427   H428    1.114   .     S
C427   H429    1.110   .     S
C427   H430    1.109   .     S
O431   C432    1.412   .     S
C432   H435    1.110   .     S
C432   H433    1.113   .     S
C432   H434    1.109   .     S
O436   C437    1.412   .     S
C437   H438    1.114   .     S
C437   H439    1.109   .     S
C437   H440    1.109   .     S
O441   C445    1.293   .     A
O441   Cu457   1.959   .     S
O442   Cu458   1.959   .     S
O442   C446    1.292   .     A
O443   C446    1.293   .     A
O443   Cu457   1.959   .     S
O444   Cu458   1.959   .     S
O444   C445    1.292   .     A
C445   C477    1.466   .     S
C446   C478    1.466   .     S
O447   Cu457   1.928   .     S
O447   C455    1.285   .     A
O448   C456    1.285   .     A
O448   Cu458   1.928   .     S
O449   C456    1.285   .     A
O449   Cu457   1.928   .     S
O450   Cu458   1.928   .     S
O450   C455    1.285   .     A
C451   C465    1.411   .     A
C451   H485    1.081   .     S
C451   C481    1.407   .     A
C452   C482    1.407   .     A
C452   H486    1.081   .     S
C452   C466    1.411   .     A
C453   C465    1.411   .     A
C453   H487    1.081   .     S
C453   C483    1.407   .     A
C454   H488    1.081   .     S
C454   C466    1.411   .     A
C454   C484    1.407   .     A
C455   C467    1.404   .     S
C456   C468    1.404   .     S
Cu457  N464    2.009   .     S
Cu457  Cu458   2.674   .     S
Cu458  N463    2.009   .     S
H459   C481    1.081   .     S
H460   C482    1.081   .     S
H461   C483    1.081   .     S
H462   C484    1.081   .     S
N463   C483    1.364   .     A
N463   C481    1.364   .     A
N464   C482    1.364   .     A
N464   C484    1.364   .     A
C465   C642    1.516   1_545 S
C466   C641    1.516   .     S
C468   C819    1.188   .     S
C469   O489    1.387   .     S
C469   C473    1.398   .     A
C469   C479    1.413   .     A
C470   O494    1.387   .     S
C470   C474    1.397   .     A
C470   C480    1.413   .     A
C471   C480    1.413   .     A
C471   O499    1.387   .     S
C471   C475    1.398   .     A
C472   C476    1.397   .     A
C472   C479    1.413   .     A
C472   O504    1.387   .     S
C473   O509    1.385   .     S
C473   C477    1.412   .     A
C474   O514    1.385   .     S
C474   C478    1.412   .     A
C475   C478    1.412   .     A
C475   O519    1.385   .     S
C476   C477    1.412   .     A
C476   O524    1.385   .     S
C480   C391    1.465   1_655 S
O489   C490    1.413   .     S
C490   H492    1.113   .     S
C490   H493    1.109   .     S
H491   C402    1.109   1_655 S
O494   C495    1.413   .     S
C495   H497    1.114   .     S
C495   H498    1.109   .     S
C495   H408    1.109   1_655 S
O499   C500    1.413   .     S
C500   H503    1.109   .     S
C500   H502    1.113   .     S
C500   H413    1.109   1_655 S
O504   C505    1.413   .     S
C505   H507    1.114   .     S
C505   H508    1.109   .     S
H506   C417    1.109   1_655 S
O509   C510    1.412   .     S
C510   H511    1.113   .     S
C510   H513    1.109   .     S
C510   H512    1.109   .     S
O514   C515    1.412   .     S
C515   H516    1.114   .     S
C515   H517    1.110   .     S
C515   H518    1.109   .     S
O519   C520    1.412   .     S
C520   H523    1.110   .     S
C520   H521    1.113   .     S
C520   H522    1.109   .     S
O524   C525    1.412   .     S
C525   H526    1.114   .     S
C525   H527    1.109   .     S
C525   H528    1.109   .     S
O529   C533    1.293   .     A
O529   Cu545   1.959   .     S
O530   Cu546   1.959   .     S
O530   C534    1.292   .     A
O531   C534    1.293   .     A
O531   Cu545   1.959   .     S
O532   Cu546   1.959   .     S
O532   C533    1.292   .     A
C533   C565    1.466   .     S
C534   C566    1.466   .     S
O535   Cu545   1.928   .     S
O535   C543    1.285   .     A
O536   C544    1.285   .     A
O536   Cu546   1.928   .     S
O537   C544    1.285   .     A
O537   Cu545   1.928   .     S
O538   Cu546   1.928   .     S
O538   C543    1.285   .     A
C539   C553    1.411   .     A
C539   H573    1.081   .     S
C539   C569    1.407   .     A
C540   C570    1.407   .     A
C540   H574    1.081   .     S
C540   C554    1.411   .     A
C541   C553    1.411   .     A
C541   H575    1.081   .     S
C541   C571    1.407   .     A
C542   H576    1.081   .     S
C542   C554    1.411   .     A
C542   C572    1.407   .     A
C543   C555    1.404   .     S
C544   C556    1.404   .     S
Cu545  N552    2.009   .     S
Cu545  Cu546   2.674   .     S
Cu546  N551    2.009   .     S
H547   C569    1.081   .     S
H548   C570    1.081   .     S
H549   C571    1.081   .     S
H550   C572    1.081   .     S
N551   C571    1.364   .     A
N551   C569    1.364   .     A
N552   C570    1.364   .     A
N552   C572    1.364   .     A
C554   C377    1.516   1_565 S
C556   C907    1.188   .     S
C557   O577    1.387   .     S
C557   C561    1.398   .     A
C557   C567    1.413   .     A
C558   O582    1.387   .     S
C558   C562    1.397   .     A
C558   C568    1.413   .     A
C559   C568    1.413   .     A
C559   O587    1.387   .     S
C559   C563    1.398   .     A
C560   C564    1.397   .     A
C560   C567    1.413   .     A
C560   O592    1.387   .     S
C561   O597    1.385   .     S
C561   C565    1.412   .     A
C562   O602    1.385   .     S
C562   C566    1.412   .     A
C563   C566    1.412   .     A
C563   O607    1.385   .     S
C564   C565    1.412   .     A
C564   O612    1.385   .     S
C567   C656    1.465   1_455 S
C568   C655    1.465   .     S
O577   C578    1.413   .     S
C578   H580    1.113   .     S
C578   H581    1.109   .     S
C578   H667    1.109   1_455 S
H579   C666    1.109   .     S
O582   C583    1.413   .     S
C583   H585    1.114   .     S
C583   H586    1.109   .     S
C583   H672    1.109   .     S
H584   C671    1.109   1_455 S
O587   C588    1.413   .     S
C588   H591    1.109   .     S
C588   H590    1.113   .     S
C588   H677    1.109   .     S
H589   C676    1.109   1_455 S
O592   C593    1.413   .     S
C593   H595    1.114   .     S
C593   H596    1.109   .     S
C593   H682    1.109   1_455 S
H594   C681    1.109   .     S
O597   C598    1.412   .     S
C598   H599    1.113   .     S
C598   H601    1.109   .     S
C598   H600    1.109   .     S
O602   C603    1.412   .     S
C603   H604    1.114   .     S
C603   H605    1.110   .     S
C603   H606    1.109   .     S
O607   C608    1.412   .     S
C608   H611    1.110   .     S
C608   H609    1.113   .     S
C608   H610    1.109   .     S
O612   C613    1.412   .     S
C613   H614    1.114   .     S
C613   H615    1.109   .     S
C613   H616    1.109   .     S
O617   C621    1.293   .     A
O617   Cu633   1.959   .     S
O618   Cu634   1.959   .     S
O618   C622    1.292   .     A
O619   C622    1.293   .     A
O619   Cu633   1.959   .     S
O620   Cu634   1.959   .     S
O620   C621    1.292   .     A
C621   C653    1.466   .     S
C622   C654    1.466   .     S
O623   Cu633   1.928   .     S
O623   C631    1.285   .     A
O624   C632    1.285   .     A
O624   Cu634   1.928   .     S
O625   C632    1.285   .     A
O625   Cu633   1.928   .     S
O626   Cu634   1.928   .     S
O626   C631    1.285   .     A
C627   C641    1.411   .     A
C627   H661    1.081   .     S
C627   C657    1.407   .     A
C628   C658    1.407   .     A
C628   H662    1.081   .     S
C628   C642    1.411   .     A
C629   C641    1.411   .     A
C629   H663    1.081   .     S
C629   C659    1.407   .     A
C630   H664    1.081   .     S
C630   C642    1.411   .     A
C630   C660    1.407   .     A
C631   C643    1.404   .     S
C632   C644    1.404   .     S
Cu633  N640    2.009   .     S
Cu633  Cu634   2.674   .     S
Cu634  N639    2.009   .     S
H635   C657    1.081   .     S
H636   C658    1.081   .     S
H637   C659    1.081   .     S
H638   C660    1.081   .     S
N639   C659    1.364   .     A
N639   C657    1.364   .     A
N640   C658    1.364   .     A
N640   C660    1.364   .     A
C642   C465    1.516   1_565 S
C644   C995    1.188   .     S
C645   O665    1.387   .     S
C645   C649    1.398   .     A
C645   C655    1.413   .     A
C646   O670    1.387   .     S
C646   C650    1.397   .     A
C646   C656    1.413   .     A
C647   C656    1.413   .     A
C647   O675    1.387   .     S
C647   C651    1.398   .     A
C648   C652    1.397   .     A
C648   C655    1.413   .     A
C648   O680    1.387   .     S
C649   O685    1.385   .     S
C649   C653    1.412   .     A
C650   O690    1.385   .     S
C650   C654    1.412   .     A
C651   C654    1.412   .     A
C651   O695    1.385   .     S
C652   C653    1.412   .     A
C652   O700    1.385   .     S
C656   C567    1.465   1_655 S
O665   C666    1.413   .     S
C666   H668    1.113   .     S
C666   H669    1.109   .     S
H667   C578    1.109   1_655 S
O670   C671    1.413   .     S
C671   H673    1.114   .     S
C671   H674    1.109   .     S
C671   H584    1.109   1_655 S
O675   C676    1.413   .     S
C676   H679    1.109   .     S
C676   H678    1.113   .     S
C676   H589    1.109   1_655 S
O680   C681    1.413   .     S
C681   H683    1.114   .     S
C681   H684    1.109   .     S
H682   C593    1.109   1_655 S
O685   C686    1.412   .     S
C686   H687    1.113   .     S
C686   H689    1.109   .     S
C686   H688    1.109   .     S
O690   C691    1.412   .     S
C691   H692    1.114   .     S
C691   H693    1.110   .     S
C691   H694    1.109   .     S
O695   C696    1.412   .     S
C696   H699    1.110   .     S
C696   H697    1.113   .     S
C696   H698    1.109   .     S
O700   C701    1.412   .     S
C701   H702    1.114   .     S
C701   H703    1.109   .     S
C701   H704    1.109   .     S
O705   C709    1.293   .     A
O705   Cu721   1.959   .     S
O706   Cu722   1.959   .     S
O706   C710    1.292   .     A
O707   C710    1.293   .     A
O707   Cu721   1.959   .     S
O708   Cu722   1.959   .     S
O708   C709    1.292   .     A
C709   C741    1.466   .     S
C710   C742    1.466   .     S
O711   Cu721   1.928   .     S
O711   C719    1.285   .     A
O712   C720    1.285   .     A
O712   Cu722   1.928   .     S
O713   C720    1.285   .     A
O713   Cu721   1.928   .     S
O714   Cu722   1.928   .     S
O714   C719    1.285   .     A
C715   C729    1.411   .     A
C715   H749    1.081   .     S
C715   C745    1.407   .     A
C716   C746    1.407   .     A
C716   H750    1.081   .     S
C716   C730    1.411   .     A
C717   C729    1.411   .     A
C717   H751    1.081   .     S
C717   C747    1.407   .     A
C718   H752    1.081   .     S
C718   C730    1.411   .     A
C718   C748    1.407   .     A
C719   C731    1.404   .     S
C720   C732    1.404   .     S
Cu721  N728    2.009   .     S
Cu721  Cu722   2.674   .     S
Cu722  N727    2.009   .     S
H723   C745    1.081   .     S
H724   C746    1.081   .     S
H725   C747    1.081   .     S
H726   C748    1.081   .     S
N727   C747    1.364   .     A
N727   C745    1.364   .     A
N728   C746    1.364   .     A
N728   C748    1.364   .     A
C729   C906    1.516   1_545 S
C730   C905    1.516   .     S
C732   C27     1.188   1_556 S
C733   O753    1.387   .     S
C733   C737    1.398   .     A
C733   C743    1.413   .     A
C734   O758    1.387   .     S
C734   C738    1.397   .     A
C734   C744    1.413   .     A
C735   C744    1.413   .     A
C735   O763    1.387   .     S
C735   C739    1.398   .     A
C736   C740    1.397   .     A
C736   C743    1.413   .     A
C736   O768    1.387   .     S
C737   O773    1.385   .     S
C737   C741    1.412   .     A
C738   O778    1.385   .     S
C738   C742    1.412   .     A
C739   C742    1.412   .     A
C739   O783    1.385   .     S
C740   C741    1.412   .     A
C740   O788    1.385   .     S
C743   C832    1.465   1_455 S
C744   C831    1.465   .     S
O753   C754    1.413   .     S
C754   H756    1.113   .     S
C754   H757    1.109   .     S
C754   H843    1.109   1_455 S
H755   C842    1.109   .     S
O758   C759    1.413   .     S
C759   H761    1.114   .     S
C759   H762    1.109   .     S
C759   H848    1.109   .     S
H760   C847    1.109   1_455 S
O763   C764    1.413   .     S
C764   H767    1.109   .     S
C764   H766    1.113   .     S
C764   H853    1.109   .     S
H765   C852    1.109   1_455 S
O768   C769    1.413   .     S
C769   H771    1.114   .     S
C769   H772    1.109   .     S
C769   H858    1.109   1_455 S
H770   C857    1.109   .     S
O773   C774    1.412   .     S
C774   H775    1.113   .     S
C774   H777    1.109   .     S
C774   H776    1.109   .     S
O778   C779    1.412   .     S
C779   H780    1.114   .     S
C779   H781    1.110   .     S
C779   H782    1.109   .     S
O783   C784    1.412   .     S
C784   H787    1.110   .     S
C784   H785    1.113   .     S
C784   H786    1.109   .     S
O788   C789    1.412   .     S
C789   H790    1.114   .     S
C789   H791    1.109   .     S
C789   H792    1.109   .     S
O793   C797    1.293   .     A
O793   Cu809   1.959   .     S
O794   Cu810   1.959   .     S
O794   C798    1.292   .     A
O795   C798    1.293   .     A
O795   Cu809   1.959   .     S
O796   Cu810   1.959   .     S
O796   C797    1.292   .     A
C797   C829    1.466   .     S
C798   C830    1.466   .     S
O799   Cu809   1.928   .     S
O799   C807    1.285   .     A
O800   C808    1.285   .     A
O800   Cu810   1.928   .     S
O801   C808    1.285   .     A
O801   Cu809   1.928   .     S
O802   Cu810   1.928   .     S
O802   C807    1.285   .     A
C803   C817    1.411   .     A
C803   H837    1.081   .     S
C803   C833    1.407   .     A
C804   C834    1.407   .     A
C804   H838    1.081   .     S
C804   C818    1.411   .     A
C805   C817    1.411   .     A
C805   H839    1.081   .     S
C805   C835    1.407   .     A
C806   H840    1.081   .     S
C806   C818    1.411   .     A
C806   C836    1.407   .     A
C807   C819    1.404   .     S
C808   C820    1.404   .     S
Cu809  N816    2.009   .     S
Cu809  Cu810   2.674   .     S
Cu810  N815    2.009   .     S
H811   C833    1.081   .     S
H812   C834    1.081   .     S
H813   C835    1.081   .     S
H814   C836    1.081   .     S
N815   C835    1.364   .     A
N815   C833    1.364   .     A
N816   C834    1.364   .     A
N816   C836    1.364   .     A
C817   C994    1.516   1_545 S
C818   C993    1.516   .     S
C820   C115    1.188   1_556 S
C821   O841    1.387   .     S
C821   C825    1.398   .     A
C821   C831    1.413   .     A
C822   O846    1.387   .     S
C822   C826    1.397   .     A
C822   C832    1.413   .     A
C823   C832    1.413   .     A
C823   O851    1.387   .     S
C823   C827    1.398   .     A
C824   C828    1.397   .     A
C824   C831    1.413   .     A
C824   O856    1.387   .     S
C825   O861    1.385   .     S
C825   C829    1.412   .     A
C826   O866    1.385   .     S
C826   C830    1.412   .     A
C827   C830    1.412   .     A
C827   O871    1.385   .     S
C828   C829    1.412   .     A
C828   O876    1.385   .     S
C832   C743    1.465   1_655 S
O841   C842    1.413   .     S
C842   H844    1.113   .     S
C842   H845    1.109   .     S
H843   C754    1.109   1_655 S
O846   C847    1.413   .     S
C847   H849    1.114   .     S
C847   H850    1.109   .     S
C847   H760    1.109   1_655 S
O851   C852    1.413   .     S
C852   H855    1.109   .     S
C852   H854    1.113   .     S
C852   H765    1.109   1_655 S
O856   C857    1.413   .     S
C857   H859    1.114   .     S
C857   H860    1.109   .     S
H858   C769    1.109   1_655 S
O861   C862    1.412   .     S
C862   H863    1.113   .     S
C862   H865    1.109   .     S
C862   H864    1.109   .     S
O866   C867    1.412   .     S
C867   H868    1.114   .     S
C867   H869    1.110   .     S
C867   H870    1.109   .     S
O871   C872    1.412   .     S
C872   H875    1.110   .     S
C872   H873    1.113   .     S
C872   H874    1.109   .     S
O876   C877    1.412   .     S
C877   H878    1.114   .     S
C877   H879    1.109   .     S
C877   H880    1.109   .     S
O881   C885    1.293   .     A
O881   Cu897   1.959   .     S
O882   Cu898   1.959   .     S
O882   C886    1.292   .     A
O883   C886    1.293   .     A
O883   Cu897   1.959   .     S
O884   Cu898   1.959   .     S
O884   C885    1.292   .     A
C885   C917    1.466   .     S
C886   C918    1.466   .     S
O887   Cu897   1.928   .     S
O887   C895    1.285   .     A
O888   C896    1.285   .     A
O888   Cu898   1.928   .     S
O889   C896    1.285   .     A
O889   Cu897   1.928   .     S
O890   Cu898   1.928   .     S
O890   C895    1.285   .     A
C891   C905    1.411   .     A
C891   H925    1.081   .     S
C891   C921    1.407   .     A
C892   C922    1.407   .     A
C892   H926    1.081   .     S
C892   C906    1.411   .     A
C893   C905    1.411   .     A
C893   H927    1.081   .     S
C893   C923    1.407   .     A
C894   H928    1.081   .     S
C894   C906    1.411   .     A
C894   C924    1.407   .     A
C895   C907    1.404   .     S
C896   C908    1.404   .     S
Cu897  N904    2.009   .     S
Cu897  Cu898   2.674   .     S
Cu898  N903    2.009   .     S
H899   C921    1.081   .     S
H900   C922    1.081   .     S
H901   C923    1.081   .     S
H902   C924    1.081   .     S
N903   C923    1.364   .     A
N903   C921    1.364   .     A
N904   C922    1.364   .     A
N904   C924    1.364   .     A
C906   C729    1.516   1_565 S
C908   C203    1.188   1_556 S
C909   O929    1.387   .     S
C909   C913    1.398   .     A
C909   C919    1.413   .     A
C910   O934    1.387   .     S
C910   C914    1.397   .     A
C910   C920    1.413   .     A
C911   C920    1.413   .     A
C911   O939    1.387   .     S
C911   C915    1.398   .     A
C912   C916    1.397   .     A
C912   C919    1.413   .     A
C912   O944    1.387   .     S
C913   O949    1.385   .     S
C913   C917    1.412   .     A
C914   O954    1.385   .     S
C914   C918    1.412   .     A
C915   C918    1.412   .     A
C915   O959    1.385   .     S
C916   C917    1.412   .     A
C916   O964    1.385   .     S
C919   C1008   1.465   1_455 S
C920   C1007   1.465   .     S
O929   C930    1.413   .     S
C930   H932    1.113   .     S
C930   H933    1.109   .     S
C930   H1019   1.109   1_455 S
H931   C1018   1.109   .     S
O934   C935    1.413   .     S
C935   H937    1.114   .     S
C935   H938    1.109   .     S
C935   H1024   1.109   .     S
H936   C1023   1.109   1_455 S
O939   C940    1.413   .     S
C940   H943    1.109   .     S
C940   H942    1.113   .     S
C940   H1029   1.109   .     S
H941   C1028   1.109   1_455 S
O944   C945    1.413   .     S
C945   H947    1.114   .     S
C945   H948    1.109   .     S
C945   H1034   1.109   1_455 S
H946   C1033   1.109   .     S
O949   C950    1.412   .     S
C950   H951    1.113   .     S
C950   H953    1.109   .     S
C950   H952    1.109   .     S
O954   C955    1.412   .     S
C955   H956    1.114   .     S
C955   H957    1.110   .     S
C955   H958    1.109   .     S
O959   C960    1.412   .     S
C960   H963    1.110   .     S
C960   H961    1.113   .     S
C960   H962    1.109   .     S
O964   C965    1.412   .     S
C965   H966    1.114   .     S
C965   H967    1.109   .     S
C965   H968    1.109   .     S
O969   C973    1.293   .     A
O969   Cu985   1.959   .     S
O970   Cu986   1.959   .     S
O970   C974    1.292   .     A
O971   C974    1.293   .     A
O971   Cu985   1.959   .     S
O972   Cu986   1.959   .     S
O972   C973    1.292   .     A
C973   C1005   1.466   .     S
C974   C1006   1.466   .     S
O975   Cu985   1.928   .     S
O975   C983    1.285   .     A
O976   C984    1.285   .     A
O976   Cu986   1.928   .     S
O977   C984    1.285   .     A
O977   Cu985   1.928   .     S
O978   Cu986   1.928   .     S
O978   C983    1.285   .     A
C979   C993    1.411   .     A
C979   H1013   1.081   .     S
C979   C1009   1.407   .     A
C980   C1010   1.407   .     A
C980   H1014   1.081   .     S
C980   C994    1.411   .     A
C981   C993    1.411   .     A
C981   H1015   1.081   .     S
C981   C1011   1.407   .     A
C982   H1016   1.081   .     S
C982   C994    1.411   .     A
C982   C1012   1.407   .     A
C983   C995    1.404   .     S
C984   C996    1.404   .     S
Cu985  N992    2.009   .     S
Cu985  Cu986   2.674   .     S
Cu986  N991    2.009   .     S
H987   C1009   1.081   .     S
H988   C1010   1.081   .     S
H989   C1011   1.081   .     S
H990   C1012   1.081   .     S
N991   C1011   1.364   .     A
N991   C1009   1.364   .     A
N992   C1010   1.364   .     A
N992   C1012   1.364   .     A
C994   C817    1.516   1_565 S
C996   C291    1.188   1_556 S
C997   O1017   1.387   .     S
C997   C1001   1.398   .     A
C997   C1007   1.413   .     A
C998   O1022   1.387   .     S
C998   C1002   1.397   .     A
C998   C1008   1.413   .     A
C999   C1008   1.413   .     A
C999   O1027   1.387   .     S
C999   C1003   1.398   .     A
C1000  C1004   1.397   .     A
C1000  C1007   1.413   .     A
C1000  O1032   1.387   .     S
C1001  O1037   1.385   .     S
C1001  C1005   1.412   .     A
C1002  O1042   1.385   .     S
C1002  C1006   1.412   .     A
C1003  C1006   1.412   .     A
C1003  O1047   1.385   .     S
C1004  C1005   1.412   .     A
C1004  O1052   1.385   .     S
C1008  C919    1.465   1_655 S
O1017  C1018   1.413   .     S
C1018  H1020   1.113   .     S
C1018  H1021   1.109   .     S
H1019  C930    1.109   1_655 S
O1022  C1023   1.413   .     S
C1023  H1025   1.114   .     S
C1023  H1026   1.109   .     S
C1023  H936    1.109   1_655 S
O1027  C1028   1.413   .     S
C1028  H1031   1.109   .     S
C1028  H1030   1.113   .     S
C1028  H941    1.109   1_655 S
O1032  C1033   1.413   .     S
C1033  H1035   1.114   .     S
C1033  H1036   1.109   .     S
H1034  C945    1.109   1_655 S
O1037  C1038   1.412   .     S
C1038  H1039   1.113   .     S
C1038  H1041   1.109   .     S
C1038  H1040   1.109   .     S
O1042  C1043   1.412   .     S
C1043  H1044   1.114   .     S
C1043  H1045   1.110   .     S
C1043  H1046   1.109   .     S
O1047  C1048   1.412   .     S
C1048  H1051   1.110   .     S
C1048  H1049   1.113   .     S
C1048  H1050   1.109   .     S
O1052  C1053   1.412   .     S
C1053  H1054   1.114   .     S
C1053  H1055   1.109   .     S
C1053  H1056   1.109   .     S
