data_str_m3_o1_o2_pcu_sym.22
_audit_creation_date              2020-01-03
_audit_creation_method            'Materials Studio'
_symmetry_space_group_name_H-M    'P1'
_symmetry_Int_Tables_number       1
_symmetry_cell_setting            triclinic
loop_
_symmetry_equiv_pos_as_xyz
  x,y,z
_cell_length_a                    32.0873
_cell_length_b                    29.5366
_cell_length_c                    30.2433
_cell_angle_alpha                 89.9525
_cell_angle_beta                  90.6069
_cell_angle_gamma                 90.2427
loop_
_atom_site_label
_atom_site_type_symbol
_atom_site_fract_x
_atom_site_fract_y
_atom_site_fract_z
_atom_site_U_iso_or_equiv
_atom_site_adp_type
_atom_site_occupancy
C1     C     0.08664   0.16660   0.24962   0.00000  Uiso   1.00
C2     C     0.31206   0.20690   0.23983   0.00000  Uiso   1.00
C3     C     0.31193   0.12616   0.25714   0.00000  Uiso   1.00
C4     C     0.02140   0.20682   0.23977   0.00000  Uiso   1.00
C5     C     0.15058   0.20927   0.04984   0.00000  Uiso   1.00
C6     C     0.17879   0.13398   0.45602   0.00000  Uiso   1.00
C7     C     0.13984   0.20392   0.44976   0.00000  Uiso   1.00
C8     C     0.14500   0.12726   0.04774   0.00000  Uiso   1.00
C9     C     0.14482   0.20691   0.09513   0.00000  Uiso   1.00
C10    C     0.17574   0.12935   0.41021   0.00000  Uiso   1.00
C11    C     0.15388   0.20800   0.40660   0.00000  Uiso   1.00
C12    C     0.24669   0.16671   0.24968   0.00000  Uiso   1.00
C13    C     0.15560   0.12572   0.09251   0.00000  Uiso   1.00
C14    C     0.15529   0.16633   0.11683   0.00000  Uiso   1.00
C15    C     0.16631   0.16802   0.38468   0.00000  Uiso   1.00
C16    C     0.14938   0.16871   0.02487   0.00000  Uiso   1.00
C17    C     0.15567   0.16877   0.47653   0.00000  Uiso   1.00
C18    C     0.29083   0.16664   0.24888   0.00000  Uiso   1.00
C19    C     0.04249   0.16649   0.24875   0.00000  Uiso   1.00
C20    C     0.19809   0.26229   0.02787   0.00000  Uiso   1.00
C21    C     0.21863   0.27337   0.07259   0.00000  Uiso   1.00
C22    C     0.26188   0.29370   0.06614   0.00000  Uiso   1.00
C23    C     0.16421   0.16656   0.16403   0.00000  Uiso   1.00
C24    C     0.23845   0.11879   0.49535   0.00000  Uiso   1.00
C25    C     0.27130   0.11916   0.45883   0.00000  Uiso   1.00
C26    C     0.31460   0.12948   0.47773   0.00000  Uiso   1.00
C27    C     0.06983   0.20857   0.45895   0.00000  Uiso   1.00
C28    C     0.03468   0.24197   0.44897   0.00000  Uiso   1.00
C29    C     0.02487   0.27135   0.48884   0.00000  Uiso   1.00
C30    C     0.08755   0.08354   0.03389   0.00000  Uiso   1.00
C31    C     0.07926   0.04360   0.06490   0.00000  Uiso   1.00
C32    C     0.03257   0.03615   0.07095   0.00000  Uiso   1.00
C33    C     0.09236   0.23938   0.13506   0.00000  Uiso   1.00
C34    C     0.16718   0.16682   0.33633   0.00000  Uiso   1.00
C35    C     0.05824   0.23674   0.09918   0.00000  Uiso   1.00
C36    C     0.01543   0.23003   0.11975   0.00000  Uiso   1.00
C37    C     0.14606   0.06402   0.38302   0.00000  Uiso   1.00
C38    C     0.12199   0.05192   0.42500   0.00000  Uiso   1.00
C39    C     0.08699   0.01832   0.41510   0.00000  Uiso   1.00
C40    C     0.18870   0.26904   0.37699   0.00000  Uiso   1.00
C41    C     0.20782   0.29055   0.41825   0.00000  Uiso   1.00
C42    C     0.24529   0.32034   0.40729   0.00000  Uiso   1.00
C43    C     0.20911   0.07750   0.10784   0.00000  Uiso   1.00
C44    C     0.22568   0.05056   0.14759   0.00000  Uiso   1.00
C45    C     0.20125   0.02409   0.26313   0.00000  Uiso   1.00
C46    C     0.27322   0.05100   0.14962   0.00000  Uiso   1.00
C47    C     0.13193   0.30927   0.23748   0.00000  Uiso   1.00
C48    C     0.13202   0.02383   0.23713   0.00000  Uiso   1.00
C49    C     0.20138   0.30952   0.26272   0.00000  Uiso   1.00
C50    C     0.02123   0.12610   0.25708   0.00000  Uiso   1.00
H51    H     0.22890   0.04221   0.27380   0.00000  Uiso   1.00
H52    H     0.21566   0.23496   0.01097   0.00000  Uiso   1.00
H53    H     0.19889   0.29776   0.09062   0.00000  Uiso   1.00
H54    H     0.22204   0.24208   0.09265   0.00000  Uiso   1.00
H55    H     0.28073   0.27121   0.04499   0.00000  Uiso   1.00
H56    H     0.27777   0.29719   0.09869   0.00000  Uiso   1.00
H57    H     0.25964   0.32750   0.05019   0.00000  Uiso   1.00
H58    H     0.24972   0.09622   0.02219   0.00000  Uiso   1.00
H59    H     0.23537   0.15310   0.01024   0.00000  Uiso   1.00
H60    H     0.27184   0.08561   0.44228   0.00000  Uiso   1.00
H61    H     0.26324   0.14529   0.43374   0.00000  Uiso   1.00
H62    H     0.10396   0.29118   0.22793   0.00000  Uiso   1.00
H63    H     0.31479   0.16284   0.49467   0.00000  Uiso   1.00
H64    H     0.00424   0.13031   0.45055   0.00000  Uiso   1.00
H65    H     0.32409   0.10287   0.00170   0.00000  Uiso   1.00
H66    H     0.06313   0.18975   0.48997   0.00000  Uiso   1.00
H67    H     0.06963   0.18359   0.43116   0.00000  Uiso   1.00
H68    H     0.04342   0.26373   0.42056   0.00000  Uiso   1.00
H69    H     0.00607   0.22290   0.43933   0.00000  Uiso   1.00
H70    H     0.01299   0.24977   0.01596   0.00000  Uiso   1.00
H71    H     0.00054   0.29641   0.47972   0.00000  Uiso   1.00
H72    H     0.05320   0.28968   0.00041   0.00000  Uiso   1.00
H73    H     0.10428   0.04174   0.22673   0.00000  Uiso   1.00
H74    H     0.07203   0.07634   0.00176   0.00000  Uiso   1.00
H75    H     0.07198   0.11459   0.04691   0.00000  Uiso   1.00
H76    H     0.09336   0.01239   0.05113   0.00000  Uiso   1.00
H77    H     0.09361   0.05033   0.09778   0.00000  Uiso   1.00
H78    H     0.01801   0.06737   0.08406   0.00000  Uiso   1.00
H79    H     0.02727   0.00823   0.09485   0.00000  Uiso   1.00
H80    H     0.01743   0.02714   0.03895   0.00000  Uiso   1.00
H81    H     0.08566   0.26905   0.15623   0.00000  Uiso   1.00
H82    H     0.09062   0.20905   0.15676   0.00000  Uiso   1.00
H83    H     0.05855   0.26846   0.07958   0.00000  Uiso   1.00
H84    H     0.22912   0.29161   0.27313   0.00000  Uiso   1.00
H85    H     0.06401   0.20784   0.07662   0.00000  Uiso   1.00
H86    H     0.01508   0.19890   0.14039   0.00000  Uiso   1.00
H87    H     0.32492   0.22601   0.09324   0.00000  Uiso   1.00
H88    H     0.00732   0.25965   0.14052   0.00000  Uiso   1.00
H89    H     0.15389   0.03250   0.36516   0.00000  Uiso   1.00
H90    H     0.12472   0.08332   0.36091   0.00000  Uiso   1.00
H91    H     0.14319   0.03771   0.45059   0.00000  Uiso   1.00
H92    H     0.10776   0.08328   0.43802   0.00000  Uiso   1.00
H93    H     0.06576   0.03185   0.38907   0.00000  Uiso   1.00
H94    H     0.06872   0.01254   0.44549   0.00000  Uiso   1.00
H95    H     0.03739   0.09472   0.26410   0.00000  Uiso   1.00
H96    H     0.10007   0.31894   0.40396   0.00000  Uiso   1.00
H97    H     0.18413   0.29551   0.35146   0.00000  Uiso   1.00
H98    H     0.21180   0.24474   0.36361   0.00000  Uiso   1.00
H99    H     0.18401   0.31097   0.43519   0.00000  Uiso   1.00
H100   H     0.21871   0.26296   0.44023   0.00000  Uiso   1.00
H101   H     0.26978   0.29998   0.39101   0.00000  Uiso   1.00
H102   H     0.25849   0.00150   0.43830   0.00000  Uiso   1.00
H103   H     0.23587   0.01515   0.38504   0.00000  Uiso   1.00
H104   H     0.22751   0.10971   0.10574   0.00000  Uiso   1.00
H105   H     0.21448   0.05753   0.07736   0.00000  Uiso   1.00
H106   H     0.29585   0.23823   0.23275   0.00000  Uiso   1.00
H107   H     0.21436   0.06540   0.17871   0.00000  Uiso   1.00
H108   H     0.21415   0.01515   0.14598   0.00000  Uiso   1.00
H109   H     0.28622   0.04043   0.11750   0.00000  Uiso   1.00
H110   H     0.28427   0.02744   0.17583   0.00000  Uiso   1.00
H111   H     0.28479   0.08560   0.15753   0.00000  Uiso   1.00
H112   H     0.29566   0.09479   0.26414   0.00000  Uiso   1.00
H113   H     0.03772   0.23812   0.23260   0.00000  Uiso   1.00
H114   H     0.20028   0.29335   0.00754   0.00000  Uiso   1.00
N115   N     0.16667   0.28573   0.25000   0.00000  Uiso   1.00
N116   N     0.16667   0.04760   0.25000   0.00000  Uiso   1.00
O117   O     0.10559   0.20487   0.25000   0.00000  Uiso   1.00
O118   O     0.19991   0.10107   0.47985   0.00000  Uiso   1.00
O119   O     0.10827   0.23212   0.46357   0.00000  Uiso   1.00
O120   O     0.13101   0.08850   0.02662   0.00000  Uiso   1.00
O121   O     0.13275   0.24574   0.11724   0.00000  Uiso   1.00
O122   O     0.18409   0.08763   0.39156   0.00000  Uiso   1.00
O123   O     0.14899   0.24921   0.38526   0.00000  Uiso   1.00
O124   O     0.16567   0.08473   0.11211   0.00000  Uiso   1.00
O125   O     0.22774   0.12846   0.25001   0.00000  Uiso   1.00
O126   O     0.22774   0.20487   0.25001   0.00000  Uiso   1.00
O127   O     0.10559   0.12846   0.25000   0.00000  Uiso   1.00
O128   O     0.16666   0.20489   0.18453   0.00000  Uiso   1.00
O129   O     0.16667   0.12845   0.31547   0.00000  Uiso   1.00
O130   O     0.16667   0.20489   0.31547   0.00000  Uiso   1.00
O131   O     0.16666   0.12845   0.18453   0.00000  Uiso   1.00
O132   O     0.15519   0.25163   0.03110   0.00000  Uiso   1.00
Zn133  Zn    0.16667   0.21771   0.25000   0.00000  Uiso   1.00
Zn134  Zn    0.16667   0.11563   0.25000   0.00000  Uiso   1.00
C135   C     0.41997   0.16660   0.24962   0.00000  Uiso   1.00
C136   C     0.64540   0.20690   0.23983   0.00000  Uiso   1.00
C137   C     0.64526   0.12616   0.25714   0.00000  Uiso   1.00
C138   C     0.35473   0.20682   0.23977   0.00000  Uiso   1.00
C139   C     0.48391   0.20927   0.04984   0.00000  Uiso   1.00
C140   C     0.51212   0.13398   0.45602   0.00000  Uiso   1.00
C141   C     0.47317   0.20392   0.44976   0.00000  Uiso   1.00
C142   C     0.47833   0.12726   0.04774   0.00000  Uiso   1.00
C143   C     0.47816   0.20691   0.09513   0.00000  Uiso   1.00
C144   C     0.50907   0.12935   0.41021   0.00000  Uiso   1.00
C145   C     0.48722   0.20800   0.40660   0.00000  Uiso   1.00
C146   C     0.58002   0.16671   0.24968   0.00000  Uiso   1.00
C147   C     0.48893   0.12572   0.09251   0.00000  Uiso   1.00
C148   C     0.48862   0.16633   0.11683   0.00000  Uiso   1.00
C149   C     0.49965   0.16802   0.38468   0.00000  Uiso   1.00
C150   C     0.48271   0.16871   0.02487   0.00000  Uiso   1.00
C151   C     0.48901   0.16877   0.47653   0.00000  Uiso   1.00
C152   C     0.62416   0.16664   0.24888   0.00000  Uiso   1.00
C153   C     0.37582   0.16649   0.24875   0.00000  Uiso   1.00
C154   C     0.53143   0.26229   0.02787   0.00000  Uiso   1.00
C155   C     0.55197   0.27337   0.07259   0.00000  Uiso   1.00
C156   C     0.59522   0.29370   0.06614   0.00000  Uiso   1.00
C157   C     0.49755   0.16656   0.16403   0.00000  Uiso   1.00
C158   C     0.57178   0.11879   0.49535   0.00000  Uiso   1.00
C159   C     0.60463   0.11916   0.45883   0.00000  Uiso   1.00
C160   C     0.64793   0.12948   0.47773   0.00000  Uiso   1.00
C161   C     0.40316   0.20857   0.45895   0.00000  Uiso   1.00
C162   C     0.36801   0.24197   0.44897   0.00000  Uiso   1.00
C163   C     0.35820   0.27135   0.48884   0.00000  Uiso   1.00
C164   C     0.42088   0.08354   0.03389   0.00000  Uiso   1.00
C165   C     0.41259   0.04360   0.06490   0.00000  Uiso   1.00
C166   C     0.36590   0.03615   0.07095   0.00000  Uiso   1.00
C167   C     0.42569   0.23938   0.13506   0.00000  Uiso   1.00
C168   C     0.50051   0.16682   0.33633   0.00000  Uiso   1.00
C169   C     0.39158   0.23674   0.09918   0.00000  Uiso   1.00
C170   C     0.34877   0.23003   0.11975   0.00000  Uiso   1.00
C171   C     0.47939   0.06402   0.38302   0.00000  Uiso   1.00
C172   C     0.45532   0.05192   0.42500   0.00000  Uiso   1.00
C173   C     0.42032   0.01832   0.41510   0.00000  Uiso   1.00
C174   C     0.52203   0.26904   0.37699   0.00000  Uiso   1.00
C175   C     0.54116   0.29055   0.41825   0.00000  Uiso   1.00
C176   C     0.57862   0.32034   0.40729   0.00000  Uiso   1.00
C177   C     0.54245   0.07750   0.10784   0.00000  Uiso   1.00
C178   C     0.55901   0.05056   0.14759   0.00000  Uiso   1.00
C179   C     0.53458   0.02409   0.26313   0.00000  Uiso   1.00
C180   C     0.60655   0.05100   0.14962   0.00000  Uiso   1.00
C181   C     0.46526   0.30927   0.23748   0.00000  Uiso   1.00
C182   C     0.46535   0.02383   0.23713   0.00000  Uiso   1.00
C183   C     0.53471   0.30952   0.26272   0.00000  Uiso   1.00
C184   C     0.35456   0.12610   0.25708   0.00000  Uiso   1.00
H185   H     0.56224   0.04221   0.27380   0.00000  Uiso   1.00
H186   H     0.54899   0.23496   0.01097   0.00000  Uiso   1.00
H187   H     0.53222   0.29776   0.09062   0.00000  Uiso   1.00
H188   H     0.55537   0.24208   0.09265   0.00000  Uiso   1.00
H189   H     0.61406   0.27121   0.04499   0.00000  Uiso   1.00
H190   H     0.61110   0.29719   0.09869   0.00000  Uiso   1.00
H191   H     0.59298   0.32750   0.05019   0.00000  Uiso   1.00
H192   H     0.58305   0.09622   0.02219   0.00000  Uiso   1.00
H193   H     0.56870   0.15310   0.01024   0.00000  Uiso   1.00
H194   H     0.60517   0.08561   0.44228   0.00000  Uiso   1.00
H195   H     0.59658   0.14529   0.43374   0.00000  Uiso   1.00
H196   H     0.43729   0.29118   0.22793   0.00000  Uiso   1.00
H197   H     0.64812   0.16284   0.49467   0.00000  Uiso   1.00
H198   H     0.33758   0.13031   0.45055   0.00000  Uiso   1.00
H199   H     0.65742   0.10287   0.00170   0.00000  Uiso   1.00
H200   H     0.39647   0.18975   0.48997   0.00000  Uiso   1.00
H201   H     0.40296   0.18359   0.43116   0.00000  Uiso   1.00
H202   H     0.37676   0.26373   0.42056   0.00000  Uiso   1.00
H203   H     0.33941   0.22290   0.43933   0.00000  Uiso   1.00
H204   H     0.34633   0.24977   0.01596   0.00000  Uiso   1.00
H205   H     0.33388   0.29641   0.47972   0.00000  Uiso   1.00
H206   H     0.38653   0.28968   0.00041   0.00000  Uiso   1.00
H207   H     0.43761   0.04174   0.22673   0.00000  Uiso   1.00
H208   H     0.40537   0.07634   0.00176   0.00000  Uiso   1.00
H209   H     0.40531   0.11459   0.04691   0.00000  Uiso   1.00
H210   H     0.42670   0.01239   0.05113   0.00000  Uiso   1.00
H211   H     0.42694   0.05033   0.09778   0.00000  Uiso   1.00
H212   H     0.35134   0.06737   0.08406   0.00000  Uiso   1.00
H213   H     0.36061   0.00823   0.09485   0.00000  Uiso   1.00
H214   H     0.35076   0.02714   0.03895   0.00000  Uiso   1.00
H215   H     0.41900   0.26905   0.15623   0.00000  Uiso   1.00
H216   H     0.42396   0.20905   0.15676   0.00000  Uiso   1.00
H217   H     0.39189   0.26846   0.07958   0.00000  Uiso   1.00
H218   H     0.56245   0.29161   0.27313   0.00000  Uiso   1.00
H219   H     0.39735   0.20784   0.07662   0.00000  Uiso   1.00
H220   H     0.34841   0.19890   0.14039   0.00000  Uiso   1.00
H221   H     0.65825   0.22601   0.09324   0.00000  Uiso   1.00
H222   H     0.34065   0.25965   0.14052   0.00000  Uiso   1.00
H223   H     0.48722   0.03250   0.36516   0.00000  Uiso   1.00
H224   H     0.45806   0.08332   0.36091   0.00000  Uiso   1.00
H225   H     0.47653   0.03771   0.45059   0.00000  Uiso   1.00
H226   H     0.44110   0.08328   0.43802   0.00000  Uiso   1.00
H227   H     0.39909   0.03185   0.38907   0.00000  Uiso   1.00
H228   H     0.40205   0.01254   0.44549   0.00000  Uiso   1.00
H229   H     0.37073   0.09472   0.26410   0.00000  Uiso   1.00
H230   H     0.43340   0.31894   0.40396   0.00000  Uiso   1.00
H231   H     0.51746   0.29551   0.35146   0.00000  Uiso   1.00
H232   H     0.54513   0.24474   0.36361   0.00000  Uiso   1.00
H233   H     0.51734   0.31097   0.43519   0.00000  Uiso   1.00
H234   H     0.55204   0.26296   0.44023   0.00000  Uiso   1.00
H235   H     0.60311   0.29998   0.39101   0.00000  Uiso   1.00
H236   H     0.59182   0.00150   0.43830   0.00000  Uiso   1.00
H237   H     0.56921   0.01515   0.38504   0.00000  Uiso   1.00
H238   H     0.56084   0.10971   0.10574   0.00000  Uiso   1.00
H239   H     0.54781   0.05753   0.07736   0.00000  Uiso   1.00
H240   H     0.62918   0.23823   0.23275   0.00000  Uiso   1.00
H241   H     0.54769   0.06540   0.17871   0.00000  Uiso   1.00
H242   H     0.54748   0.01515   0.14598   0.00000  Uiso   1.00
H243   H     0.61956   0.04043   0.11750   0.00000  Uiso   1.00
H244   H     0.61760   0.02744   0.17583   0.00000  Uiso   1.00
H245   H     0.61812   0.08560   0.15753   0.00000  Uiso   1.00
H246   H     0.62899   0.09479   0.26414   0.00000  Uiso   1.00
H247   H     0.37106   0.23812   0.23260   0.00000  Uiso   1.00
H248   H     0.53362   0.29335   0.00754   0.00000  Uiso   1.00
N249   N     0.50000   0.28573   0.25000   0.00000  Uiso   1.00
N250   N     0.50000   0.04760   0.25000   0.00000  Uiso   1.00
O251   O     0.43892   0.20487   0.25000   0.00000  Uiso   1.00
O252   O     0.53324   0.10107   0.47985   0.00000  Uiso   1.00
O253   O     0.44160   0.23212   0.46357   0.00000  Uiso   1.00
O254   O     0.46434   0.08850   0.02662   0.00000  Uiso   1.00
O255   O     0.46608   0.24574   0.11724   0.00000  Uiso   1.00
O256   O     0.51742   0.08763   0.39156   0.00000  Uiso   1.00
O257   O     0.48232   0.24921   0.38526   0.00000  Uiso   1.00
O258   O     0.49901   0.08473   0.11211   0.00000  Uiso   1.00
O259   O     0.56108   0.12846   0.25001   0.00000  Uiso   1.00
O260   O     0.56108   0.20487   0.25001   0.00000  Uiso   1.00
O261   O     0.43892   0.12846   0.25000   0.00000  Uiso   1.00
O262   O     0.50000   0.20489   0.18453   0.00000  Uiso   1.00
O263   O     0.50000   0.12845   0.31547   0.00000  Uiso   1.00
O264   O     0.50000   0.20489   0.31547   0.00000  Uiso   1.00
O265   O     0.50000   0.12845   0.18453   0.00000  Uiso   1.00
O266   O     0.48853   0.25163   0.03110   0.00000  Uiso   1.00
Zn267  Zn    0.50000   0.21771   0.25000   0.00000  Uiso   1.00
Zn268  Zn    0.50000   0.11563   0.25000   0.00000  Uiso   1.00
C269   C     0.75330   0.16660   0.24962   0.00000  Uiso   1.00
C270   C     0.97873   0.20690   0.23983   0.00000  Uiso   1.00
C271   C     0.97860   0.12616   0.25714   0.00000  Uiso   1.00
C272   C     0.68807   0.20682   0.23977   0.00000  Uiso   1.00
C273   C     0.81725   0.20927   0.04984   0.00000  Uiso   1.00
C274   C     0.84546   0.13398   0.45602   0.00000  Uiso   1.00
C275   C     0.80651   0.20392   0.44976   0.00000  Uiso   1.00
C276   C     0.81166   0.12726   0.04774   0.00000  Uiso   1.00
C277   C     0.81149   0.20691   0.09513   0.00000  Uiso   1.00
C278   C     0.84240   0.12935   0.41021   0.00000  Uiso   1.00
C279   C     0.82055   0.20800   0.40660   0.00000  Uiso   1.00
C280   C     0.91336   0.16671   0.24968   0.00000  Uiso   1.00
C281   C     0.82227   0.12572   0.09251   0.00000  Uiso   1.00
C282   C     0.82196   0.16633   0.11683   0.00000  Uiso   1.00
C283   C     0.83298   0.16802   0.38468   0.00000  Uiso   1.00
C284   C     0.81604   0.16871   0.02487   0.00000  Uiso   1.00
C285   C     0.82234   0.16877   0.47653   0.00000  Uiso   1.00
C286   C     0.95750   0.16664   0.24888   0.00000  Uiso   1.00
C287   C     0.70915   0.16649   0.24875   0.00000  Uiso   1.00
C288   C     0.86476   0.26229   0.02787   0.00000  Uiso   1.00
C289   C     0.88530   0.27337   0.07259   0.00000  Uiso   1.00
C290   C     0.92855   0.29370   0.06614   0.00000  Uiso   1.00
C291   C     0.83088   0.16656   0.16403   0.00000  Uiso   1.00
C292   C     0.90511   0.11879   0.49535   0.00000  Uiso   1.00
C293   C     0.93796   0.11916   0.45883   0.00000  Uiso   1.00
C294   C     0.98127   0.12948   0.47773   0.00000  Uiso   1.00
C295   C     0.73650   0.20857   0.45895   0.00000  Uiso   1.00
C296   C     0.70135   0.24197   0.44897   0.00000  Uiso   1.00
C297   C     0.69154   0.27135   0.48884   0.00000  Uiso   1.00
C298   C     0.75421   0.08354   0.03389   0.00000  Uiso   1.00
C299   C     0.74592   0.04360   0.06490   0.00000  Uiso   1.00
C300   C     0.69923   0.03615   0.07095   0.00000  Uiso   1.00
C301   C     0.75903   0.23938   0.13506   0.00000  Uiso   1.00
C302   C     0.83385   0.16682   0.33633   0.00000  Uiso   1.00
C303   C     0.72491   0.23674   0.09918   0.00000  Uiso   1.00
C304   C     0.68210   0.23003   0.11975   0.00000  Uiso   1.00
C305   C     0.81273   0.06402   0.38302   0.00000  Uiso   1.00
C306   C     0.78866   0.05192   0.42500   0.00000  Uiso   1.00
C307   C     0.75366   0.01832   0.41510   0.00000  Uiso   1.00
C308   C     0.85537   0.26904   0.37699   0.00000  Uiso   1.00
C309   C     0.87449   0.29055   0.41825   0.00000  Uiso   1.00
C310   C     0.91196   0.32034   0.40729   0.00000  Uiso   1.00
C311   C     0.87578   0.07750   0.10784   0.00000  Uiso   1.00
C312   C     0.89235   0.05056   0.14759   0.00000  Uiso   1.00
C313   C     0.86792   0.02409   0.26313   0.00000  Uiso   1.00
C314   C     0.93988   0.05100   0.14962   0.00000  Uiso   1.00
C315   C     0.79859   0.30927   0.23748   0.00000  Uiso   1.00
C316   C     0.79868   0.02383   0.23713   0.00000  Uiso   1.00
C317   C     0.86804   0.30952   0.26272   0.00000  Uiso   1.00
C318   C     0.68789   0.12610   0.25708   0.00000  Uiso   1.00
H319   H     0.89557   0.04221   0.27380   0.00000  Uiso   1.00
H320   H     0.88233   0.23496   0.01097   0.00000  Uiso   1.00
H321   H     0.86556   0.29776   0.09062   0.00000  Uiso   1.00
H322   H     0.88870   0.24208   0.09265   0.00000  Uiso   1.00
H323   H     0.94740   0.27121   0.04499   0.00000  Uiso   1.00
H324   H     0.94444   0.29719   0.09869   0.00000  Uiso   1.00
H325   H     0.92631   0.32750   0.05019   0.00000  Uiso   1.00
H326   H     0.91638   0.09622   0.02219   0.00000  Uiso   1.00
H327   H     0.90204   0.15310   0.01024   0.00000  Uiso   1.00
H328   H     0.93850   0.08561   0.44228   0.00000  Uiso   1.00
H329   H     0.92991   0.14529   0.43374   0.00000  Uiso   1.00
H330   H     0.77063   0.29118   0.22793   0.00000  Uiso   1.00
H331   H     0.98146   0.16284   0.49467   0.00000  Uiso   1.00
H332   H     0.67091   0.13031   0.45055   0.00000  Uiso   1.00
H333   H     0.99076   0.10287   0.00170   0.00000  Uiso   1.00
H334   H     0.72980   0.18975   0.48997   0.00000  Uiso   1.00
H335   H     0.73629   0.18359   0.43116   0.00000  Uiso   1.00
H336   H     0.71009   0.26373   0.42056   0.00000  Uiso   1.00
H337   H     0.67274   0.22290   0.43933   0.00000  Uiso   1.00
H338   H     0.67966   0.24977   0.01596   0.00000  Uiso   1.00
H339   H     0.66721   0.29641   0.47972   0.00000  Uiso   1.00
H340   H     0.71986   0.28968   0.00041   0.00000  Uiso   1.00
H341   H     0.77094   0.04174   0.22673   0.00000  Uiso   1.00
H342   H     0.73870   0.07634   0.00176   0.00000  Uiso   1.00
H343   H     0.73865   0.11459   0.04691   0.00000  Uiso   1.00
H344   H     0.76003   0.01239   0.05113   0.00000  Uiso   1.00
H345   H     0.76028   0.05033   0.09778   0.00000  Uiso   1.00
H346   H     0.68468   0.06737   0.08406   0.00000  Uiso   1.00
H347   H     0.69394   0.00823   0.09485   0.00000  Uiso   1.00
H348   H     0.68410   0.02714   0.03895   0.00000  Uiso   1.00
H349   H     0.75233   0.26905   0.15623   0.00000  Uiso   1.00
H350   H     0.75729   0.20905   0.15676   0.00000  Uiso   1.00
H351   H     0.72522   0.26846   0.07958   0.00000  Uiso   1.00
H352   H     0.89578   0.29161   0.27313   0.00000  Uiso   1.00
H353   H     0.73068   0.20784   0.07662   0.00000  Uiso   1.00
H354   H     0.68175   0.19890   0.14039   0.00000  Uiso   1.00
H355   H     0.99159   0.22601   0.09324   0.00000  Uiso   1.00
H356   H     0.67399   0.25965   0.14052   0.00000  Uiso   1.00
H357   H     0.82056   0.03250   0.36516   0.00000  Uiso   1.00
H358   H     0.79139   0.08332   0.36091   0.00000  Uiso   1.00
H359   H     0.80986   0.03771   0.45059   0.00000  Uiso   1.00
H360   H     0.77443   0.08328   0.43802   0.00000  Uiso   1.00
H361   H     0.73242   0.03185   0.38907   0.00000  Uiso   1.00
H362   H     0.73538   0.01254   0.44549   0.00000  Uiso   1.00
H363   H     0.70406   0.09472   0.26410   0.00000  Uiso   1.00
H364   H     0.76673   0.31894   0.40396   0.00000  Uiso   1.00
H365   H     0.85079   0.29551   0.35146   0.00000  Uiso   1.00
H366   H     0.87847   0.24474   0.36361   0.00000  Uiso   1.00
H367   H     0.85067   0.31097   0.43519   0.00000  Uiso   1.00
H368   H     0.88538   0.26296   0.44023   0.00000  Uiso   1.00
H369   H     0.93645   0.29998   0.39101   0.00000  Uiso   1.00
H370   H     0.92515   0.00150   0.43830   0.00000  Uiso   1.00
H371   H     0.90254   0.01515   0.38504   0.00000  Uiso   1.00
H372   H     0.89417   0.10971   0.10574   0.00000  Uiso   1.00
H373   H     0.88114   0.05753   0.07736   0.00000  Uiso   1.00
H374   H     0.96251   0.23823   0.23275   0.00000  Uiso   1.00
H375   H     0.88103   0.06540   0.17871   0.00000  Uiso   1.00
H376   H     0.88082   0.01515   0.14598   0.00000  Uiso   1.00
H377   H     0.95289   0.04043   0.11750   0.00000  Uiso   1.00
H378   H     0.95094   0.02744   0.17583   0.00000  Uiso   1.00
H379   H     0.95145   0.08560   0.15753   0.00000  Uiso   1.00
H380   H     0.96233   0.09479   0.26414   0.00000  Uiso   1.00
H381   H     0.70439   0.23812   0.23260   0.00000  Uiso   1.00
H382   H     0.86695   0.29335   0.00754   0.00000  Uiso   1.00
N383   N     0.83333   0.28573   0.25000   0.00000  Uiso   1.00
N384   N     0.83333   0.04760   0.25000   0.00000  Uiso   1.00
O385   O     0.77226   0.20487   0.25000   0.00000  Uiso   1.00
O386   O     0.86658   0.10107   0.47985   0.00000  Uiso   1.00
O387   O     0.77494   0.23212   0.46357   0.00000  Uiso   1.00
O388   O     0.79768   0.08850   0.02662   0.00000  Uiso   1.00
O389   O     0.79942   0.24574   0.11724   0.00000  Uiso   1.00
O390   O     0.85076   0.08763   0.39156   0.00000  Uiso   1.00
O391   O     0.81566   0.24921   0.38526   0.00000  Uiso   1.00
O392   O     0.83234   0.08473   0.11211   0.00000  Uiso   1.00
O393   O     0.89441   0.12846   0.25001   0.00000  Uiso   1.00
O394   O     0.89441   0.20487   0.25001   0.00000  Uiso   1.00
O395   O     0.77226   0.12846   0.25000   0.00000  Uiso   1.00
O396   O     0.83333   0.20489   0.18453   0.00000  Uiso   1.00
O397   O     0.83334   0.12845   0.31547   0.00000  Uiso   1.00
O398   O     0.83334   0.20489   0.31547   0.00000  Uiso   1.00
O399   O     0.83333   0.12845   0.18453   0.00000  Uiso   1.00
O400   O     0.82186   0.25163   0.03110   0.00000  Uiso   1.00
Zn401  Zn    0.83333   0.21771   0.25000   0.00000  Uiso   1.00
Zn402  Zn    0.83333   0.11563   0.25000   0.00000  Uiso   1.00
C403   C     0.08664   0.49993   0.24962   0.00000  Uiso   1.00
C404   C     0.31206   0.54023   0.23983   0.00000  Uiso   1.00
C405   C     0.31193   0.45950   0.25714   0.00000  Uiso   1.00
C406   C     0.02140   0.54016   0.23977   0.00000  Uiso   1.00
C407   C     0.15058   0.54260   0.04984   0.00000  Uiso   1.00
C408   C     0.17879   0.46731   0.45602   0.00000  Uiso   1.00
C409   C     0.13984   0.53725   0.44976   0.00000  Uiso   1.00
C410   C     0.14500   0.46060   0.04774   0.00000  Uiso   1.00
C411   C     0.14482   0.54024   0.09513   0.00000  Uiso   1.00
C412   C     0.17574   0.46269   0.41021   0.00000  Uiso   1.00
C413   C     0.15388   0.54133   0.40660   0.00000  Uiso   1.00
C414   C     0.24669   0.50004   0.24968   0.00000  Uiso   1.00
C415   C     0.15560   0.45905   0.09251   0.00000  Uiso   1.00
C416   C     0.15529   0.49966   0.11683   0.00000  Uiso   1.00
C417   C     0.16631   0.50135   0.38468   0.00000  Uiso   1.00
C418   C     0.14938   0.50204   0.02487   0.00000  Uiso   1.00
C419   C     0.15567   0.50210   0.47653   0.00000  Uiso   1.00
C420   C     0.29083   0.49997   0.24888   0.00000  Uiso   1.00
C421   C     0.04249   0.49983   0.24875   0.00000  Uiso   1.00
C422   C     0.19809   0.59562   0.02787   0.00000  Uiso   1.00
C423   C     0.21863   0.60671   0.07259   0.00000  Uiso   1.00
C424   C     0.26188   0.62703   0.06614   0.00000  Uiso   1.00
C425   C     0.16421   0.49989   0.16403   0.00000  Uiso   1.00
C426   C     0.23845   0.45212   0.49535   0.00000  Uiso   1.00
C427   C     0.27130   0.45249   0.45883   0.00000  Uiso   1.00
C428   C     0.31460   0.46282   0.47773   0.00000  Uiso   1.00
C429   C     0.06983   0.54191   0.45895   0.00000  Uiso   1.00
C430   C     0.03468   0.57531   0.44897   0.00000  Uiso   1.00
C431   C     0.02487   0.60468   0.48884   0.00000  Uiso   1.00
C432   C     0.08755   0.41687   0.03389   0.00000  Uiso   1.00
C433   C     0.07926   0.37693   0.06490   0.00000  Uiso   1.00
C434   C     0.03257   0.36948   0.07095   0.00000  Uiso   1.00
C435   C     0.09236   0.57272   0.13506   0.00000  Uiso   1.00
C436   C     0.16718   0.50015   0.33633   0.00000  Uiso   1.00
C437   C     0.05824   0.57007   0.09918   0.00000  Uiso   1.00
C438   C     0.01543   0.56336   0.11975   0.00000  Uiso   1.00
C439   C     0.14606   0.39736   0.38302   0.00000  Uiso   1.00
C440   C     0.12199   0.38526   0.42500   0.00000  Uiso   1.00
C441   C     0.08699   0.35165   0.41510   0.00000  Uiso   1.00
C442   C     0.18870   0.60237   0.37699   0.00000  Uiso   1.00
C443   C     0.20782   0.62389   0.41825   0.00000  Uiso   1.00
C444   C     0.24529   0.65367   0.40729   0.00000  Uiso   1.00
C445   C     0.20911   0.41083   0.10784   0.00000  Uiso   1.00
C446   C     0.22568   0.38389   0.14759   0.00000  Uiso   1.00
C447   C     0.20125   0.35742   0.26313   0.00000  Uiso   1.00
C448   C     0.27322   0.38433   0.14962   0.00000  Uiso   1.00
C449   C     0.13193   0.64260   0.23748   0.00000  Uiso   1.00
C450   C     0.13202   0.35716   0.23713   0.00000  Uiso   1.00
C451   C     0.20138   0.64286   0.26272   0.00000  Uiso   1.00
C452   C     0.02123   0.45943   0.25708   0.00000  Uiso   1.00
H453   H     0.22890   0.37555   0.27380   0.00000  Uiso   1.00
H454   H     0.21566   0.56830   0.01097   0.00000  Uiso   1.00
H455   H     0.19889   0.63109   0.09062   0.00000  Uiso   1.00
H456   H     0.22204   0.57541   0.09265   0.00000  Uiso   1.00
H457   H     0.28073   0.60454   0.04499   0.00000  Uiso   1.00
H458   H     0.27777   0.63053   0.09869   0.00000  Uiso   1.00
H459   H     0.25964   0.66083   0.05019   0.00000  Uiso   1.00
H460   H     0.24972   0.42955   0.02219   0.00000  Uiso   1.00
H461   H     0.23537   0.48643   0.01024   0.00000  Uiso   1.00
H462   H     0.27184   0.41895   0.44228   0.00000  Uiso   1.00
H463   H     0.26324   0.47862   0.43374   0.00000  Uiso   1.00
H464   H     0.10396   0.62452   0.22793   0.00000  Uiso   1.00
H465   H     0.31479   0.49618   0.49467   0.00000  Uiso   1.00
H466   H     0.00424   0.46365   0.45055   0.00000  Uiso   1.00
H467   H     0.32409   0.43620   0.00170   0.00000  Uiso   1.00
H468   H     0.06313   0.52308   0.48997   0.00000  Uiso   1.00
H469   H     0.06963   0.51692   0.43116   0.00000  Uiso   1.00
H470   H     0.04342   0.59706   0.42056   0.00000  Uiso   1.00
H471   H     0.00607   0.55623   0.43933   0.00000  Uiso   1.00
H472   H     0.01299   0.58310   0.01596   0.00000  Uiso   1.00
H473   H     0.00054   0.62974   0.47972   0.00000  Uiso   1.00
H474   H     0.05320   0.62301   0.00041   0.00000  Uiso   1.00
H475   H     0.10428   0.37507   0.22673   0.00000  Uiso   1.00
H476   H     0.07203   0.40967   0.00176   0.00000  Uiso   1.00
H477   H     0.07198   0.44792   0.04691   0.00000  Uiso   1.00
H478   H     0.09336   0.34573   0.05113   0.00000  Uiso   1.00
H479   H     0.09361   0.38366   0.09778   0.00000  Uiso   1.00
H480   H     0.01801   0.40070   0.08406   0.00000  Uiso   1.00
H481   H     0.02727   0.34157   0.09485   0.00000  Uiso   1.00
H482   H     0.01743   0.36047   0.03895   0.00000  Uiso   1.00
H483   H     0.08566   0.60238   0.15623   0.00000  Uiso   1.00
H484   H     0.09062   0.54238   0.15676   0.00000  Uiso   1.00
H485   H     0.05855   0.60179   0.07958   0.00000  Uiso   1.00
H486   H     0.22912   0.62494   0.27313   0.00000  Uiso   1.00
H487   H     0.06401   0.54117   0.07662   0.00000  Uiso   1.00
H488   H     0.01508   0.53223   0.14039   0.00000  Uiso   1.00
H489   H     0.32492   0.55934   0.09324   0.00000  Uiso   1.00
H490   H     0.00732   0.59298   0.14052   0.00000  Uiso   1.00
H491   H     0.15389   0.36583   0.36516   0.00000  Uiso   1.00
H492   H     0.12472   0.41665   0.36091   0.00000  Uiso   1.00
H493   H     0.14319   0.37104   0.45059   0.00000  Uiso   1.00
H494   H     0.10776   0.41662   0.43802   0.00000  Uiso   1.00
H495   H     0.06576   0.36518   0.38907   0.00000  Uiso   1.00
H496   H     0.06872   0.34587   0.44549   0.00000  Uiso   1.00
H497   H     0.03739   0.42805   0.26410   0.00000  Uiso   1.00
H498   H     0.10007   0.65228   0.40396   0.00000  Uiso   1.00
H499   H     0.18413   0.62885   0.35146   0.00000  Uiso   1.00
H500   H     0.21180   0.57807   0.36361   0.00000  Uiso   1.00
H501   H     0.18401   0.64431   0.43519   0.00000  Uiso   1.00
H502   H     0.21871   0.59629   0.44023   0.00000  Uiso   1.00
H503   H     0.26978   0.63331   0.39101   0.00000  Uiso   1.00
H504   H     0.25849   0.33484   0.43830   0.00000  Uiso   1.00
H505   H     0.23587   0.34849   0.38504   0.00000  Uiso   1.00
H506   H     0.22751   0.44304   0.10574   0.00000  Uiso   1.00
H507   H     0.21448   0.39086   0.07736   0.00000  Uiso   1.00
H508   H     0.29585   0.57156   0.23275   0.00000  Uiso   1.00
H509   H     0.21436   0.39874   0.17871   0.00000  Uiso   1.00
H510   H     0.21415   0.34849   0.14598   0.00000  Uiso   1.00
H511   H     0.28622   0.37376   0.11750   0.00000  Uiso   1.00
H512   H     0.28427   0.36077   0.17583   0.00000  Uiso   1.00
H513   H     0.28479   0.41893   0.15753   0.00000  Uiso   1.00
H514   H     0.29566   0.42812   0.26414   0.00000  Uiso   1.00
H515   H     0.03772   0.57146   0.23260   0.00000  Uiso   1.00
H516   H     0.20028   0.62668   0.00754   0.00000  Uiso   1.00
N517   N     0.16667   0.61907   0.25000   0.00000  Uiso   1.00
N518   N     0.16667   0.38093   0.25000   0.00000  Uiso   1.00
O519   O     0.10559   0.53821   0.25000   0.00000  Uiso   1.00
O520   O     0.19991   0.43440   0.47985   0.00000  Uiso   1.00
O521   O     0.10827   0.56545   0.46357   0.00000  Uiso   1.00
O522   O     0.13101   0.42184   0.02662   0.00000  Uiso   1.00
O523   O     0.13275   0.57908   0.11724   0.00000  Uiso   1.00
O524   O     0.18409   0.42096   0.39156   0.00000  Uiso   1.00
O525   O     0.14899   0.58254   0.38526   0.00000  Uiso   1.00
O526   O     0.16567   0.41806   0.11211   0.00000  Uiso   1.00
O527   O     0.22774   0.46179   0.25001   0.00000  Uiso   1.00
O528   O     0.22774   0.53821   0.25001   0.00000  Uiso   1.00
O529   O     0.10559   0.46179   0.25000   0.00000  Uiso   1.00
O530   O     0.16666   0.53822   0.18453   0.00000  Uiso   1.00
O531   O     0.16667   0.46178   0.31547   0.00000  Uiso   1.00
O532   O     0.16667   0.53822   0.31547   0.00000  Uiso   1.00
O533   O     0.16666   0.46178   0.18453   0.00000  Uiso   1.00
O534   O     0.15519   0.58497   0.03110   0.00000  Uiso   1.00
Zn535  Zn    0.16667   0.55104   0.25000   0.00000  Uiso   1.00
Zn536  Zn    0.16667   0.44896   0.25000   0.00000  Uiso   1.00
C537   C     0.41997   0.49993   0.24962   0.00000  Uiso   1.00
C538   C     0.64540   0.54023   0.23983   0.00000  Uiso   1.00
C539   C     0.64526   0.45950   0.25714   0.00000  Uiso   1.00
C540   C     0.35473   0.54016   0.23977   0.00000  Uiso   1.00
C541   C     0.48391   0.54260   0.04984   0.00000  Uiso   1.00
C542   C     0.51212   0.46731   0.45602   0.00000  Uiso   1.00
C543   C     0.47317   0.53725   0.44976   0.00000  Uiso   1.00
C544   C     0.47833   0.46060   0.04774   0.00000  Uiso   1.00
C545   C     0.47816   0.54024   0.09513   0.00000  Uiso   1.00
C546   C     0.50907   0.46269   0.41021   0.00000  Uiso   1.00
C547   C     0.48722   0.54133   0.40660   0.00000  Uiso   1.00
C548   C     0.58002   0.50004   0.24968   0.00000  Uiso   1.00
C549   C     0.48893   0.45905   0.09251   0.00000  Uiso   1.00
C550   C     0.48862   0.49966   0.11683   0.00000  Uiso   1.00
C551   C     0.49965   0.50135   0.38468   0.00000  Uiso   1.00
C552   C     0.48271   0.50204   0.02487   0.00000  Uiso   1.00
C553   C     0.48901   0.50210   0.47653   0.00000  Uiso   1.00
C554   C     0.62416   0.49997   0.24888   0.00000  Uiso   1.00
C555   C     0.37582   0.49983   0.24875   0.00000  Uiso   1.00
C556   C     0.53143   0.59562   0.02787   0.00000  Uiso   1.00
C557   C     0.55197   0.60671   0.07259   0.00000  Uiso   1.00
C558   C     0.59522   0.62703   0.06614   0.00000  Uiso   1.00
C559   C     0.49755   0.49989   0.16403   0.00000  Uiso   1.00
C560   C     0.57178   0.45212   0.49535   0.00000  Uiso   1.00
C561   C     0.60463   0.45249   0.45883   0.00000  Uiso   1.00
C562   C     0.64793   0.46282   0.47773   0.00000  Uiso   1.00
C563   C     0.40316   0.54191   0.45895   0.00000  Uiso   1.00
C564   C     0.36801   0.57531   0.44897   0.00000  Uiso   1.00
C565   C     0.35820   0.60468   0.48884   0.00000  Uiso   1.00
C566   C     0.42088   0.41687   0.03389   0.00000  Uiso   1.00
C567   C     0.41259   0.37693   0.06490   0.00000  Uiso   1.00
C568   C     0.36590   0.36948   0.07095   0.00000  Uiso   1.00
C569   C     0.42569   0.57272   0.13506   0.00000  Uiso   1.00
C570   C     0.50051   0.50015   0.33633   0.00000  Uiso   1.00
C571   C     0.39158   0.57007   0.09918   0.00000  Uiso   1.00
C572   C     0.34877   0.56336   0.11975   0.00000  Uiso   1.00
C573   C     0.47939   0.39736   0.38302   0.00000  Uiso   1.00
C574   C     0.45532   0.38526   0.42500   0.00000  Uiso   1.00
C575   C     0.42032   0.35165   0.41510   0.00000  Uiso   1.00
C576   C     0.52203   0.60237   0.37699   0.00000  Uiso   1.00
C577   C     0.54116   0.62389   0.41825   0.00000  Uiso   1.00
C578   C     0.57862   0.65367   0.40729   0.00000  Uiso   1.00
C579   C     0.54245   0.41083   0.10784   0.00000  Uiso   1.00
C580   C     0.55901   0.38389   0.14759   0.00000  Uiso   1.00
C581   C     0.53458   0.35742   0.26313   0.00000  Uiso   1.00
C582   C     0.60655   0.38433   0.14962   0.00000  Uiso   1.00
C583   C     0.46526   0.64260   0.23748   0.00000  Uiso   1.00
C584   C     0.46535   0.35716   0.23713   0.00000  Uiso   1.00
C585   C     0.53471   0.64286   0.26272   0.00000  Uiso   1.00
C586   C     0.35456   0.45943   0.25708   0.00000  Uiso   1.00
H587   H     0.56224   0.37555   0.27380   0.00000  Uiso   1.00
H588   H     0.54899   0.56830   0.01097   0.00000  Uiso   1.00
H589   H     0.53222   0.63109   0.09062   0.00000  Uiso   1.00
H590   H     0.55537   0.57541   0.09265   0.00000  Uiso   1.00
H591   H     0.61406   0.60454   0.04499   0.00000  Uiso   1.00
H592   H     0.61110   0.63053   0.09869   0.00000  Uiso   1.00
H593   H     0.59298   0.66083   0.05019   0.00000  Uiso   1.00
H594   H     0.58305   0.42955   0.02219   0.00000  Uiso   1.00
H595   H     0.56870   0.48643   0.01024   0.00000  Uiso   1.00
H596   H     0.60517   0.41895   0.44228   0.00000  Uiso   1.00
H597   H     0.59658   0.47862   0.43374   0.00000  Uiso   1.00
H598   H     0.43729   0.62452   0.22793   0.00000  Uiso   1.00
H599   H     0.64812   0.49618   0.49467   0.00000  Uiso   1.00
H600   H     0.33758   0.46365   0.45055   0.00000  Uiso   1.00
H601   H     0.65742   0.43620   0.00170   0.00000  Uiso   1.00
H602   H     0.39647   0.52308   0.48997   0.00000  Uiso   1.00
H603   H     0.40296   0.51692   0.43116   0.00000  Uiso   1.00
H604   H     0.37676   0.59706   0.42056   0.00000  Uiso   1.00
H605   H     0.33941   0.55623   0.43933   0.00000  Uiso   1.00
H606   H     0.34633   0.58310   0.01596   0.00000  Uiso   1.00
H607   H     0.33388   0.62974   0.47972   0.00000  Uiso   1.00
H608   H     0.38653   0.62301   0.00041   0.00000  Uiso   1.00
H609   H     0.43761   0.37507   0.22673   0.00000  Uiso   1.00
H610   H     0.40537   0.40967   0.00176   0.00000  Uiso   1.00
H611   H     0.40531   0.44792   0.04691   0.00000  Uiso   1.00
H612   H     0.42670   0.34573   0.05113   0.00000  Uiso   1.00
H613   H     0.42694   0.38366   0.09778   0.00000  Uiso   1.00
H614   H     0.35134   0.40070   0.08406   0.00000  Uiso   1.00
H615   H     0.36061   0.34157   0.09485   0.00000  Uiso   1.00
H616   H     0.35076   0.36047   0.03895   0.00000  Uiso   1.00
H617   H     0.41900   0.60238   0.15623   0.00000  Uiso   1.00
H618   H     0.42396   0.54238   0.15676   0.00000  Uiso   1.00
H619   H     0.39189   0.60179   0.07958   0.00000  Uiso   1.00
H620   H     0.56245   0.62494   0.27313   0.00000  Uiso   1.00
H621   H     0.39735   0.54117   0.07662   0.00000  Uiso   1.00
H622   H     0.34841   0.53223   0.14039   0.00000  Uiso   1.00
H623   H     0.65825   0.55934   0.09324   0.00000  Uiso   1.00
H624   H     0.34065   0.59298   0.14052   0.00000  Uiso   1.00
H625   H     0.48722   0.36583   0.36516   0.00000  Uiso   1.00
H626   H     0.45806   0.41665   0.36091   0.00000  Uiso   1.00
H627   H     0.47653   0.37104   0.45059   0.00000  Uiso   1.00
H628   H     0.44110   0.41662   0.43802   0.00000  Uiso   1.00
H629   H     0.39909   0.36518   0.38907   0.00000  Uiso   1.00
H630   H     0.40205   0.34587   0.44549   0.00000  Uiso   1.00
H631   H     0.37073   0.42805   0.26410   0.00000  Uiso   1.00
H632   H     0.43340   0.65228   0.40396   0.00000  Uiso   1.00
H633   H     0.51746   0.62885   0.35146   0.00000  Uiso   1.00
H634   H     0.54513   0.57807   0.36361   0.00000  Uiso   1.00
H635   H     0.51734   0.64431   0.43519   0.00000  Uiso   1.00
H636   H     0.55204   0.59629   0.44023   0.00000  Uiso   1.00
H637   H     0.60311   0.63331   0.39101   0.00000  Uiso   1.00
H638   H     0.59182   0.33484   0.43830   0.00000  Uiso   1.00
H639   H     0.56921   0.34849   0.38504   0.00000  Uiso   1.00
H640   H     0.56084   0.44304   0.10574   0.00000  Uiso   1.00
H641   H     0.54781   0.39086   0.07736   0.00000  Uiso   1.00
H642   H     0.62918   0.57156   0.23275   0.00000  Uiso   1.00
H643   H     0.54769   0.39874   0.17871   0.00000  Uiso   1.00
H644   H     0.54748   0.34849   0.14598   0.00000  Uiso   1.00
H645   H     0.61956   0.37376   0.11750   0.00000  Uiso   1.00
H646   H     0.61760   0.36077   0.17583   0.00000  Uiso   1.00
H647   H     0.61812   0.41893   0.15753   0.00000  Uiso   1.00
H648   H     0.62899   0.42812   0.26414   0.00000  Uiso   1.00
H649   H     0.37106   0.57146   0.23260   0.00000  Uiso   1.00
H650   H     0.53362   0.62668   0.00754   0.00000  Uiso   1.00
N651   N     0.50000   0.61907   0.25000   0.00000  Uiso   1.00
N652   N     0.50000   0.38093   0.25000   0.00000  Uiso   1.00
O653   O     0.43892   0.53821   0.25000   0.00000  Uiso   1.00
O654   O     0.53324   0.43440   0.47985   0.00000  Uiso   1.00
O655   O     0.44160   0.56545   0.46357   0.00000  Uiso   1.00
O656   O     0.46434   0.42184   0.02662   0.00000  Uiso   1.00
O657   O     0.46608   0.57908   0.11724   0.00000  Uiso   1.00
O658   O     0.51742   0.42096   0.39156   0.00000  Uiso   1.00
O659   O     0.48232   0.58254   0.38526   0.00000  Uiso   1.00
O660   O     0.49901   0.41806   0.11211   0.00000  Uiso   1.00
O661   O     0.56108   0.46179   0.25001   0.00000  Uiso   1.00
O662   O     0.56108   0.53821   0.25001   0.00000  Uiso   1.00
O663   O     0.43892   0.46179   0.25000   0.00000  Uiso   1.00
O664   O     0.50000   0.53822   0.18453   0.00000  Uiso   1.00
O665   O     0.50000   0.46178   0.31547   0.00000  Uiso   1.00
O666   O     0.50000   0.53822   0.31547   0.00000  Uiso   1.00
O667   O     0.50000   0.46178   0.18453   0.00000  Uiso   1.00
O668   O     0.48853   0.58497   0.03110   0.00000  Uiso   1.00
Zn669  Zn    0.50000   0.55104   0.25000   0.00000  Uiso   1.00
Zn670  Zn    0.50000   0.44896   0.25000   0.00000  Uiso   1.00
C671   C     0.75330   0.49993   0.24962   0.00000  Uiso   1.00
C672   C     0.97873   0.54023   0.23983   0.00000  Uiso   1.00
C673   C     0.97860   0.45950   0.25714   0.00000  Uiso   1.00
C674   C     0.68807   0.54016   0.23977   0.00000  Uiso   1.00
C675   C     0.81725   0.54260   0.04984   0.00000  Uiso   1.00
C676   C     0.84546   0.46731   0.45602   0.00000  Uiso   1.00
C677   C     0.80651   0.53725   0.44976   0.00000  Uiso   1.00
C678   C     0.81166   0.46060   0.04774   0.00000  Uiso   1.00
C679   C     0.81149   0.54024   0.09513   0.00000  Uiso   1.00
C680   C     0.84240   0.46269   0.41021   0.00000  Uiso   1.00
C681   C     0.82055   0.54133   0.40660   0.00000  Uiso   1.00
C682   C     0.91336   0.50004   0.24968   0.00000  Uiso   1.00
C683   C     0.82227   0.45905   0.09251   0.00000  Uiso   1.00
C684   C     0.82196   0.49966   0.11683   0.00000  Uiso   1.00
C685   C     0.83298   0.50135   0.38468   0.00000  Uiso   1.00
C686   C     0.81604   0.50204   0.02487   0.00000  Uiso   1.00
C687   C     0.82234   0.50210   0.47653   0.00000  Uiso   1.00
C688   C     0.95750   0.49997   0.24888   0.00000  Uiso   1.00
C689   C     0.70915   0.49983   0.24875   0.00000  Uiso   1.00
C690   C     0.86476   0.59562   0.02787   0.00000  Uiso   1.00
C691   C     0.88530   0.60671   0.07259   0.00000  Uiso   1.00
C692   C     0.92855   0.62703   0.06614   0.00000  Uiso   1.00
C693   C     0.83088   0.49989   0.16403   0.00000  Uiso   1.00
C694   C     0.90511   0.45212   0.49535   0.00000  Uiso   1.00
C695   C     0.93796   0.45249   0.45883   0.00000  Uiso   1.00
C696   C     0.98127   0.46282   0.47773   0.00000  Uiso   1.00
C697   C     0.73650   0.54191   0.45895   0.00000  Uiso   1.00
C698   C     0.70135   0.57531   0.44897   0.00000  Uiso   1.00
C699   C     0.69154   0.60468   0.48884   0.00000  Uiso   1.00
C700   C     0.75421   0.41687   0.03389   0.00000  Uiso   1.00
C701   C     0.74592   0.37693   0.06490   0.00000  Uiso   1.00
C702   C     0.69923   0.36948   0.07095   0.00000  Uiso   1.00
C703   C     0.75903   0.57272   0.13506   0.00000  Uiso   1.00
C704   C     0.83385   0.50015   0.33633   0.00000  Uiso   1.00
C705   C     0.72491   0.57007   0.09918   0.00000  Uiso   1.00
C706   C     0.68210   0.56336   0.11975   0.00000  Uiso   1.00
C707   C     0.81273   0.39736   0.38302   0.00000  Uiso   1.00
C708   C     0.78866   0.38526   0.42500   0.00000  Uiso   1.00
C709   C     0.75366   0.35165   0.41510   0.00000  Uiso   1.00
C710   C     0.85537   0.60237   0.37699   0.00000  Uiso   1.00
C711   C     0.87449   0.62389   0.41825   0.00000  Uiso   1.00
C712   C     0.91196   0.65367   0.40729   0.00000  Uiso   1.00
C713   C     0.87578   0.41083   0.10784   0.00000  Uiso   1.00
C714   C     0.89235   0.38389   0.14759   0.00000  Uiso   1.00
C715   C     0.86792   0.35742   0.26313   0.00000  Uiso   1.00
C716   C     0.93988   0.38433   0.14962   0.00000  Uiso   1.00
C717   C     0.79859   0.64260   0.23748   0.00000  Uiso   1.00
C718   C     0.79868   0.35716   0.23713   0.00000  Uiso   1.00
C719   C     0.86804   0.64286   0.26272   0.00000  Uiso   1.00
C720   C     0.68789   0.45943   0.25708   0.00000  Uiso   1.00
H721   H     0.89557   0.37555   0.27380   0.00000  Uiso   1.00
H722   H     0.88233   0.56830   0.01097   0.00000  Uiso   1.00
H723   H     0.86556   0.63109   0.09062   0.00000  Uiso   1.00
H724   H     0.88870   0.57541   0.09265   0.00000  Uiso   1.00
H725   H     0.94740   0.60454   0.04499   0.00000  Uiso   1.00
H726   H     0.94444   0.63053   0.09869   0.00000  Uiso   1.00
H727   H     0.92631   0.66083   0.05019   0.00000  Uiso   1.00
H728   H     0.91638   0.42955   0.02219   0.00000  Uiso   1.00
H729   H     0.90204   0.48643   0.01024   0.00000  Uiso   1.00
H730   H     0.93850   0.41895   0.44228   0.00000  Uiso   1.00
H731   H     0.92991   0.47862   0.43374   0.00000  Uiso   1.00
H732   H     0.77063   0.62452   0.22793   0.00000  Uiso   1.00
H733   H     0.98146   0.49618   0.49467   0.00000  Uiso   1.00
H734   H     0.67091   0.46365   0.45055   0.00000  Uiso   1.00
H735   H     0.99076   0.43620   0.00170   0.00000  Uiso   1.00
H736   H     0.72980   0.52308   0.48997   0.00000  Uiso   1.00
H737   H     0.73629   0.51692   0.43116   0.00000  Uiso   1.00
H738   H     0.71009   0.59706   0.42056   0.00000  Uiso   1.00
H739   H     0.67274   0.55623   0.43933   0.00000  Uiso   1.00
H740   H     0.67966   0.58310   0.01596   0.00000  Uiso   1.00
H741   H     0.66721   0.62974   0.47972   0.00000  Uiso   1.00
H742   H     0.71986   0.62301   0.00041   0.00000  Uiso   1.00
H743   H     0.77094   0.37507   0.22673   0.00000  Uiso   1.00
H744   H     0.73870   0.40967   0.00176   0.00000  Uiso   1.00
H745   H     0.73865   0.44792   0.04691   0.00000  Uiso   1.00
H746   H     0.76003   0.34573   0.05113   0.00000  Uiso   1.00
H747   H     0.76028   0.38366   0.09778   0.00000  Uiso   1.00
H748   H     0.68468   0.40070   0.08406   0.00000  Uiso   1.00
H749   H     0.69394   0.34157   0.09485   0.00000  Uiso   1.00
H750   H     0.68410   0.36047   0.03895   0.00000  Uiso   1.00
H751   H     0.75233   0.60238   0.15623   0.00000  Uiso   1.00
H752   H     0.75729   0.54238   0.15676   0.00000  Uiso   1.00
H753   H     0.72522   0.60179   0.07958   0.00000  Uiso   1.00
H754   H     0.89578   0.62494   0.27313   0.00000  Uiso   1.00
H755   H     0.73068   0.54117   0.07662   0.00000  Uiso   1.00
H756   H     0.68175   0.53223   0.14039   0.00000  Uiso   1.00
H757   H     0.99159   0.55934   0.09324   0.00000  Uiso   1.00
H758   H     0.67399   0.59298   0.14052   0.00000  Uiso   1.00
H759   H     0.82056   0.36583   0.36516   0.00000  Uiso   1.00
H760   H     0.79139   0.41665   0.36091   0.00000  Uiso   1.00
H761   H     0.80986   0.37104   0.45059   0.00000  Uiso   1.00
H762   H     0.77443   0.41662   0.43802   0.00000  Uiso   1.00
H763   H     0.73242   0.36518   0.38907   0.00000  Uiso   1.00
H764   H     0.73538   0.34587   0.44549   0.00000  Uiso   1.00
H765   H     0.70406   0.42805   0.26410   0.00000  Uiso   1.00
H766   H     0.76673   0.65228   0.40396   0.00000  Uiso   1.00
H767   H     0.85079   0.62885   0.35146   0.00000  Uiso   1.00
H768   H     0.87847   0.57807   0.36361   0.00000  Uiso   1.00
H769   H     0.85067   0.64431   0.43519   0.00000  Uiso   1.00
H770   H     0.88538   0.59629   0.44023   0.00000  Uiso   1.00
H771   H     0.93645   0.63331   0.39101   0.00000  Uiso   1.00
H772   H     0.92515   0.33484   0.43830   0.00000  Uiso   1.00
H773   H     0.90254   0.34849   0.38504   0.00000  Uiso   1.00
H774   H     0.89417   0.44304   0.10574   0.00000  Uiso   1.00
H775   H     0.88114   0.39086   0.07736   0.00000  Uiso   1.00
H776   H     0.96251   0.57156   0.23275   0.00000  Uiso   1.00
H777   H     0.88103   0.39874   0.17871   0.00000  Uiso   1.00
H778   H     0.88082   0.34849   0.14598   0.00000  Uiso   1.00
H779   H     0.95289   0.37376   0.11750   0.00000  Uiso   1.00
H780   H     0.95094   0.36077   0.17583   0.00000  Uiso   1.00
H781   H     0.95145   0.41893   0.15753   0.00000  Uiso   1.00
H782   H     0.96233   0.42812   0.26414   0.00000  Uiso   1.00
H783   H     0.70439   0.57146   0.23260   0.00000  Uiso   1.00
H784   H     0.86695   0.62668   0.00754   0.00000  Uiso   1.00
N785   N     0.83333   0.61907   0.25000   0.00000  Uiso   1.00
N786   N     0.83333   0.38093   0.25000   0.00000  Uiso   1.00
O787   O     0.77226   0.53821   0.25000   0.00000  Uiso   1.00
O788   O     0.86658   0.43440   0.47985   0.00000  Uiso   1.00
O789   O     0.77494   0.56545   0.46357   0.00000  Uiso   1.00
O790   O     0.79768   0.42184   0.02662   0.00000  Uiso   1.00
O791   O     0.79942   0.57908   0.11724   0.00000  Uiso   1.00
O792   O     0.85076   0.42096   0.39156   0.00000  Uiso   1.00
O793   O     0.81566   0.58254   0.38526   0.00000  Uiso   1.00
O794   O     0.83234   0.41806   0.11211   0.00000  Uiso   1.00
O795   O     0.89441   0.46179   0.25001   0.00000  Uiso   1.00
O796   O     0.89441   0.53821   0.25001   0.00000  Uiso   1.00
O797   O     0.77226   0.46179   0.25000   0.00000  Uiso   1.00
O798   O     0.83333   0.53822   0.18453   0.00000  Uiso   1.00
O799   O     0.83334   0.46178   0.31547   0.00000  Uiso   1.00
O800   O     0.83334   0.53822   0.31547   0.00000  Uiso   1.00
O801   O     0.83333   0.46178   0.18453   0.00000  Uiso   1.00
O802   O     0.82186   0.58497   0.03110   0.00000  Uiso   1.00
Zn803  Zn    0.83333   0.55104   0.25000   0.00000  Uiso   1.00
Zn804  Zn    0.83333   0.44896   0.25000   0.00000  Uiso   1.00
C805   C     0.08664   0.83327   0.24962   0.00000  Uiso   1.00
C806   C     0.31206   0.87356   0.23983   0.00000  Uiso   1.00
C807   C     0.31193   0.79283   0.25714   0.00000  Uiso   1.00
C808   C     0.02140   0.87349   0.23977   0.00000  Uiso   1.00
C809   C     0.15058   0.87593   0.04984   0.00000  Uiso   1.00
C810   C     0.17879   0.80065   0.45602   0.00000  Uiso   1.00
C811   C     0.13984   0.87058   0.44976   0.00000  Uiso   1.00
C812   C     0.14500   0.79393   0.04774   0.00000  Uiso   1.00
C813   C     0.14482   0.87358   0.09513   0.00000  Uiso   1.00
C814   C     0.17574   0.79602   0.41021   0.00000  Uiso   1.00
C815   C     0.15388   0.87466   0.40660   0.00000  Uiso   1.00
C816   C     0.24669   0.83338   0.24968   0.00000  Uiso   1.00
C817   C     0.15560   0.79238   0.09251   0.00000  Uiso   1.00
C818   C     0.15529   0.83300   0.11683   0.00000  Uiso   1.00
C819   C     0.16631   0.83468   0.38468   0.00000  Uiso   1.00
C820   C     0.14938   0.83538   0.02487   0.00000  Uiso   1.00
C821   C     0.15567   0.83543   0.47653   0.00000  Uiso   1.00
C822   C     0.29083   0.83330   0.24888   0.00000  Uiso   1.00
C823   C     0.04249   0.83316   0.24875   0.00000  Uiso   1.00
C824   C     0.19809   0.92895   0.02787   0.00000  Uiso   1.00
C825   C     0.21863   0.94004   0.07259   0.00000  Uiso   1.00
C826   C     0.26188   0.96036   0.06614   0.00000  Uiso   1.00
C827   C     0.16421   0.83323   0.16403   0.00000  Uiso   1.00
C828   C     0.23845   0.78545   0.49535   0.00000  Uiso   1.00
C829   C     0.27130   0.78582   0.45883   0.00000  Uiso   1.00
C830   C     0.31460   0.79615   0.47773   0.00000  Uiso   1.00
C831   C     0.06983   0.87524   0.45895   0.00000  Uiso   1.00
C832   C     0.03468   0.90864   0.44897   0.00000  Uiso   1.00
C833   C     0.02487   0.93801   0.48884   0.00000  Uiso   1.00
C834   C     0.08755   0.75020   0.03389   0.00000  Uiso   1.00
C835   C     0.07926   0.71026   0.06490   0.00000  Uiso   1.00
C836   C     0.03257   0.70282   0.07095   0.00000  Uiso   1.00
C837   C     0.09236   0.90605   0.13506   0.00000  Uiso   1.00
C838   C     0.16718   0.83349   0.33633   0.00000  Uiso   1.00
C839   C     0.05824   0.90341   0.09918   0.00000  Uiso   1.00
C840   C     0.01543   0.89669   0.11975   0.00000  Uiso   1.00
C841   C     0.14606   0.73069   0.38302   0.00000  Uiso   1.00
C842   C     0.12199   0.71859   0.42500   0.00000  Uiso   1.00
C843   C     0.08699   0.68498   0.41510   0.00000  Uiso   1.00
C844   C     0.18870   0.93571   0.37699   0.00000  Uiso   1.00
C845   C     0.20782   0.95722   0.41825   0.00000  Uiso   1.00
C846   C     0.24529   0.98701   0.40729   0.00000  Uiso   1.00
C847   C     0.20911   0.74417   0.10784   0.00000  Uiso   1.00
C848   C     0.22568   0.71722   0.14759   0.00000  Uiso   1.00
C849   C     0.20125   0.69075   0.26313   0.00000  Uiso   1.00
C850   C     0.27322   0.71766   0.14962   0.00000  Uiso   1.00
C851   C     0.13193   0.97593   0.23748   0.00000  Uiso   1.00
C852   C     0.13202   0.69049   0.23713   0.00000  Uiso   1.00
C853   C     0.20138   0.97619   0.26272   0.00000  Uiso   1.00
C854   C     0.02123   0.79276   0.25708   0.00000  Uiso   1.00
H855   H     0.22890   0.70888   0.27380   0.00000  Uiso   1.00
H856   H     0.21566   0.90163   0.01097   0.00000  Uiso   1.00
H857   H     0.19889   0.96442   0.09062   0.00000  Uiso   1.00
H858   H     0.22204   0.90874   0.09265   0.00000  Uiso   1.00
H859   H     0.28073   0.93787   0.04499   0.00000  Uiso   1.00
H860   H     0.27777   0.96386   0.09869   0.00000  Uiso   1.00
H861   H     0.25964   0.99416   0.05019   0.00000  Uiso   1.00
H862   H     0.24972   0.76289   0.02219   0.00000  Uiso   1.00
H863   H     0.23537   0.81976   0.01024   0.00000  Uiso   1.00
H864   H     0.27184   0.75228   0.44228   0.00000  Uiso   1.00
H865   H     0.26324   0.81196   0.43374   0.00000  Uiso   1.00
H866   H     0.10396   0.95785   0.22793   0.00000  Uiso   1.00
H867   H     0.31479   0.82951   0.49467   0.00000  Uiso   1.00
H868   H     0.00424   0.79698   0.45055   0.00000  Uiso   1.00
H869   H     0.32409   0.76954   0.00170   0.00000  Uiso   1.00
H870   H     0.06313   0.85641   0.48997   0.00000  Uiso   1.00
H871   H     0.06963   0.85025   0.43116   0.00000  Uiso   1.00
H872   H     0.04342   0.93039   0.42056   0.00000  Uiso   1.00
H873   H     0.00607   0.88956   0.43933   0.00000  Uiso   1.00
H874   H     0.01299   0.91644   0.01596   0.00000  Uiso   1.00
H875   H     0.00054   0.96307   0.47972   0.00000  Uiso   1.00
H876   H     0.05320   0.95634   0.00041   0.00000  Uiso   1.00
H877   H     0.10428   0.70840   0.22673   0.00000  Uiso   1.00
H878   H     0.07203   0.74300   0.00176   0.00000  Uiso   1.00
H879   H     0.07198   0.78125   0.04691   0.00000  Uiso   1.00
H880   H     0.09336   0.67906   0.05113   0.00000  Uiso   1.00
H881   H     0.09361   0.71699   0.09778   0.00000  Uiso   1.00
H882   H     0.01801   0.73403   0.08406   0.00000  Uiso   1.00
H883   H     0.02727   0.67490   0.09485   0.00000  Uiso   1.00
H884   H     0.01743   0.69381   0.03895   0.00000  Uiso   1.00
H885   H     0.08566   0.93571   0.15623   0.00000  Uiso   1.00
H886   H     0.09062   0.87571   0.15676   0.00000  Uiso   1.00
H887   H     0.05855   0.93512   0.07958   0.00000  Uiso   1.00
H888   H     0.22912   0.95828   0.27313   0.00000  Uiso   1.00
H889   H     0.06401   0.87450   0.07662   0.00000  Uiso   1.00
H890   H     0.01508   0.86557   0.14039   0.00000  Uiso   1.00
H891   H     0.32492   0.89267   0.09324   0.00000  Uiso   1.00
H892   H     0.00732   0.92631   0.14052   0.00000  Uiso   1.00
H893   H     0.15389   0.69916   0.36516   0.00000  Uiso   1.00
H894   H     0.12472   0.74998   0.36091   0.00000  Uiso   1.00
H895   H     0.14319   0.70437   0.45059   0.00000  Uiso   1.00
H896   H     0.10776   0.74995   0.43802   0.00000  Uiso   1.00
H897   H     0.06576   0.69851   0.38907   0.00000  Uiso   1.00
H898   H     0.06872   0.67920   0.44549   0.00000  Uiso   1.00
H899   H     0.03739   0.76139   0.26410   0.00000  Uiso   1.00
H900   H     0.10007   0.98561   0.40396   0.00000  Uiso   1.00
H901   H     0.18413   0.96218   0.35146   0.00000  Uiso   1.00
H902   H     0.21180   0.91141   0.36361   0.00000  Uiso   1.00
H903   H     0.18401   0.97764   0.43519   0.00000  Uiso   1.00
H904   H     0.21871   0.92962   0.44023   0.00000  Uiso   1.00
H905   H     0.26978   0.96665   0.39101   0.00000  Uiso   1.00
H906   H     0.25849   0.66817   0.43830   0.00000  Uiso   1.00
H907   H     0.23587   0.68182   0.38504   0.00000  Uiso   1.00
H908   H     0.22751   0.77637   0.10574   0.00000  Uiso   1.00
H909   H     0.21448   0.72420   0.07736   0.00000  Uiso   1.00
H910   H     0.29585   0.90490   0.23275   0.00000  Uiso   1.00
H911   H     0.21436   0.73207   0.17871   0.00000  Uiso   1.00
H912   H     0.21415   0.68182   0.14598   0.00000  Uiso   1.00
H913   H     0.28622   0.70709   0.11750   0.00000  Uiso   1.00
H914   H     0.28427   0.69411   0.17583   0.00000  Uiso   1.00
H915   H     0.28479   0.75227   0.15753   0.00000  Uiso   1.00
H916   H     0.29566   0.76146   0.26414   0.00000  Uiso   1.00
H917   H     0.03772   0.90479   0.23260   0.00000  Uiso   1.00
H918   H     0.20028   0.96002   0.00754   0.00000  Uiso   1.00
N919   N     0.16667   0.95240   0.25000   0.00000  Uiso   1.00
N920   N     0.16667   0.71427   0.25000   0.00000  Uiso   1.00
O921   O     0.10559   0.87154   0.25000   0.00000  Uiso   1.00
O922   O     0.19991   0.76773   0.47985   0.00000  Uiso   1.00
O923   O     0.10827   0.89879   0.46357   0.00000  Uiso   1.00
O924   O     0.13101   0.75517   0.02662   0.00000  Uiso   1.00
O925   O     0.13275   0.91241   0.11724   0.00000  Uiso   1.00
O926   O     0.18409   0.75429   0.39156   0.00000  Uiso   1.00
O927   O     0.14899   0.91587   0.38526   0.00000  Uiso   1.00
O928   O     0.16567   0.75139   0.11211   0.00000  Uiso   1.00
O929   O     0.22774   0.79513   0.25001   0.00000  Uiso   1.00
O930   O     0.22774   0.87154   0.25001   0.00000  Uiso   1.00
O931   O     0.10559   0.79513   0.25000   0.00000  Uiso   1.00
O932   O     0.16666   0.87155   0.18453   0.00000  Uiso   1.00
O933   O     0.16667   0.79511   0.31547   0.00000  Uiso   1.00
O934   O     0.16667   0.87155   0.31547   0.00000  Uiso   1.00
O935   O     0.16666   0.79511   0.18453   0.00000  Uiso   1.00
O936   O     0.15519   0.91830   0.03110   0.00000  Uiso   1.00
Zn937  Zn    0.16667   0.88437   0.25000   0.00000  Uiso   1.00
Zn938  Zn    0.16667   0.78229   0.25000   0.00000  Uiso   1.00
C939   C     0.41997   0.83327   0.24962   0.00000  Uiso   1.00
C940   C     0.64540   0.87356   0.23983   0.00000  Uiso   1.00
C941   C     0.64526   0.79283   0.25714   0.00000  Uiso   1.00
C942   C     0.35473   0.87349   0.23977   0.00000  Uiso   1.00
C943   C     0.48391   0.87593   0.04984   0.00000  Uiso   1.00
C944   C     0.51212   0.80065   0.45602   0.00000  Uiso   1.00
C945   C     0.47317   0.87058   0.44976   0.00000  Uiso   1.00
C946   C     0.47833   0.79393   0.04774   0.00000  Uiso   1.00
C947   C     0.47816   0.87358   0.09513   0.00000  Uiso   1.00
C948   C     0.50907   0.79602   0.41021   0.00000  Uiso   1.00
C949   C     0.48722   0.87466   0.40660   0.00000  Uiso   1.00
C950   C     0.58002   0.83338   0.24968   0.00000  Uiso   1.00
C951   C     0.48893   0.79238   0.09251   0.00000  Uiso   1.00
C952   C     0.48862   0.83300   0.11683   0.00000  Uiso   1.00
C953   C     0.49965   0.83468   0.38468   0.00000  Uiso   1.00
C954   C     0.48271   0.83538   0.02487   0.00000  Uiso   1.00
C955   C     0.48901   0.83543   0.47653   0.00000  Uiso   1.00
C956   C     0.62416   0.83330   0.24888   0.00000  Uiso   1.00
C957   C     0.37582   0.83316   0.24875   0.00000  Uiso   1.00
C958   C     0.53143   0.92895   0.02787   0.00000  Uiso   1.00
C959   C     0.55197   0.94004   0.07259   0.00000  Uiso   1.00
C960   C     0.59522   0.96036   0.06614   0.00000  Uiso   1.00
C961   C     0.49755   0.83323   0.16403   0.00000  Uiso   1.00
C962   C     0.57178   0.78545   0.49535   0.00000  Uiso   1.00
C963   C     0.60463   0.78582   0.45883   0.00000  Uiso   1.00
C964   C     0.64793   0.79615   0.47773   0.00000  Uiso   1.00
C965   C     0.40316   0.87524   0.45895   0.00000  Uiso   1.00
C966   C     0.36801   0.90864   0.44897   0.00000  Uiso   1.00
C967   C     0.35820   0.93801   0.48884   0.00000  Uiso   1.00
C968   C     0.42088   0.75020   0.03389   0.00000  Uiso   1.00
C969   C     0.41259   0.71026   0.06490   0.00000  Uiso   1.00
C970   C     0.36590   0.70282   0.07095   0.00000  Uiso   1.00
C971   C     0.42569   0.90605   0.13506   0.00000  Uiso   1.00
C972   C     0.50051   0.83349   0.33633   0.00000  Uiso   1.00
C973   C     0.39158   0.90341   0.09918   0.00000  Uiso   1.00
C974   C     0.34877   0.89669   0.11975   0.00000  Uiso   1.00
C975   C     0.47939   0.73069   0.38302   0.00000  Uiso   1.00
C976   C     0.45532   0.71859   0.42500   0.00000  Uiso   1.00
C977   C     0.42032   0.68498   0.41510   0.00000  Uiso   1.00
C978   C     0.52203   0.93571   0.37699   0.00000  Uiso   1.00
C979   C     0.54116   0.95722   0.41825   0.00000  Uiso   1.00
C980   C     0.57862   0.98701   0.40729   0.00000  Uiso   1.00
C981   C     0.54245   0.74417   0.10784   0.00000  Uiso   1.00
C982   C     0.55901   0.71722   0.14759   0.00000  Uiso   1.00
C983   C     0.53458   0.69075   0.26313   0.00000  Uiso   1.00
C984   C     0.60655   0.71766   0.14962   0.00000  Uiso   1.00
C985   C     0.46526   0.97593   0.23748   0.00000  Uiso   1.00
C986   C     0.46535   0.69049   0.23713   0.00000  Uiso   1.00
C987   C     0.53471   0.97619   0.26272   0.00000  Uiso   1.00
C988   C     0.35456   0.79276   0.25708   0.00000  Uiso   1.00
H989   H     0.56224   0.70888   0.27380   0.00000  Uiso   1.00
H990   H     0.54899   0.90163   0.01097   0.00000  Uiso   1.00
H991   H     0.53222   0.96442   0.09062   0.00000  Uiso   1.00
H992   H     0.55537   0.90874   0.09265   0.00000  Uiso   1.00
H993   H     0.61406   0.93787   0.04499   0.00000  Uiso   1.00
H994   H     0.61110   0.96386   0.09869   0.00000  Uiso   1.00
H995   H     0.59298   0.99416   0.05019   0.00000  Uiso   1.00
H996   H     0.58305   0.76289   0.02219   0.00000  Uiso   1.00
H997   H     0.56870   0.81976   0.01024   0.00000  Uiso   1.00
H998   H     0.60517   0.75228   0.44228   0.00000  Uiso   1.00
H999   H     0.59658   0.81196   0.43374   0.00000  Uiso   1.00
H1000  H     0.43729   0.95785   0.22793   0.00000  Uiso   1.00
H1001  H     0.64812   0.82951   0.49467   0.00000  Uiso   1.00
H1002  H     0.33758   0.79698   0.45055   0.00000  Uiso   1.00
H1003  H     0.65742   0.76954   0.00170   0.00000  Uiso   1.00
H1004  H     0.39647   0.85641   0.48997   0.00000  Uiso   1.00
H1005  H     0.40296   0.85025   0.43116   0.00000  Uiso   1.00
H1006  H     0.37676   0.93039   0.42056   0.00000  Uiso   1.00
H1007  H     0.33941   0.88956   0.43933   0.00000  Uiso   1.00
H1008  H     0.34633   0.91644   0.01596   0.00000  Uiso   1.00
H1009  H     0.33388   0.96307   0.47972   0.00000  Uiso   1.00
H1010  H     0.38653   0.95634   0.00041   0.00000  Uiso   1.00
H1011  H     0.43761   0.70840   0.22673   0.00000  Uiso   1.00
H1012  H     0.40537   0.74300   0.00176   0.00000  Uiso   1.00
H1013  H     0.40531   0.78125   0.04691   0.00000  Uiso   1.00
H1014  H     0.42670   0.67906   0.05113   0.00000  Uiso   1.00
H1015  H     0.42694   0.71699   0.09778   0.00000  Uiso   1.00
H1016  H     0.35134   0.73403   0.08406   0.00000  Uiso   1.00
H1017  H     0.36061   0.67490   0.09485   0.00000  Uiso   1.00
H1018  H     0.35076   0.69381   0.03895   0.00000  Uiso   1.00
H1019  H     0.41900   0.93571   0.15623   0.00000  Uiso   1.00
H1020  H     0.42396   0.87571   0.15676   0.00000  Uiso   1.00
H1021  H     0.39189   0.93512   0.07958   0.00000  Uiso   1.00
H1022  H     0.56245   0.95828   0.27313   0.00000  Uiso   1.00
H1023  H     0.39735   0.87450   0.07662   0.00000  Uiso   1.00
H1024  H     0.34841   0.86557   0.14039   0.00000  Uiso   1.00
H1025  H     0.65825   0.89267   0.09324   0.00000  Uiso   1.00
H1026  H     0.34065   0.92631   0.14052   0.00000  Uiso   1.00
H1027  H     0.48722   0.69916   0.36516   0.00000  Uiso   1.00
H1028  H     0.45806   0.74998   0.36091   0.00000  Uiso   1.00
H1029  H     0.47653   0.70437   0.45059   0.00000  Uiso   1.00
H1030  H     0.44110   0.74995   0.43802   0.00000  Uiso   1.00
H1031  H     0.39909   0.69851   0.38907   0.00000  Uiso   1.00
H1032  H     0.40205   0.67920   0.44549   0.00000  Uiso   1.00
H1033  H     0.37073   0.76139   0.26410   0.00000  Uiso   1.00
H1034  H     0.43340   0.98561   0.40396   0.00000  Uiso   1.00
H1035  H     0.51746   0.96218   0.35146   0.00000  Uiso   1.00
H1036  H     0.54513   0.91141   0.36361   0.00000  Uiso   1.00
H1037  H     0.51734   0.97764   0.43519   0.00000  Uiso   1.00
H1038  H     0.55204   0.92962   0.44023   0.00000  Uiso   1.00
H1039  H     0.60311   0.96665   0.39101   0.00000  Uiso   1.00
H1040  H     0.59182   0.66817   0.43830   0.00000  Uiso   1.00
H1041  H     0.56921   0.68182   0.38504   0.00000  Uiso   1.00
H1042  H     0.56084   0.77637   0.10574   0.00000  Uiso   1.00
H1043  H     0.54781   0.72420   0.07736   0.00000  Uiso   1.00
H1044  H     0.62918   0.90490   0.23275   0.00000  Uiso   1.00
H1045  H     0.54769   0.73207   0.17871   0.00000  Uiso   1.00
H1046  H     0.54748   0.68182   0.14598   0.00000  Uiso   1.00
H1047  H     0.61956   0.70709   0.11750   0.00000  Uiso   1.00
H1048  H     0.61760   0.69411   0.17583   0.00000  Uiso   1.00
H1049  H     0.61812   0.75227   0.15753   0.00000  Uiso   1.00
H1050  H     0.62899   0.76146   0.26414   0.00000  Uiso   1.00
H1051  H     0.37106   0.90479   0.23260   0.00000  Uiso   1.00
H1052  H     0.53362   0.96002   0.00754   0.00000  Uiso   1.00
N1053  N     0.50000   0.95240   0.25000   0.00000  Uiso   1.00
N1054  N     0.50000   0.71427   0.25000   0.00000  Uiso   1.00
O1055  O     0.43892   0.87154   0.25000   0.00000  Uiso   1.00
O1056  O     0.53324   0.76773   0.47985   0.00000  Uiso   1.00
O1057  O     0.44160   0.89879   0.46357   0.00000  Uiso   1.00
O1058  O     0.46434   0.75517   0.02662   0.00000  Uiso   1.00
O1059  O     0.46608   0.91241   0.11724   0.00000  Uiso   1.00
O1060  O     0.51742   0.75429   0.39156   0.00000  Uiso   1.00
O1061  O     0.48232   0.91587   0.38526   0.00000  Uiso   1.00
O1062  O     0.49901   0.75139   0.11211   0.00000  Uiso   1.00
O1063  O     0.56108   0.79513   0.25001   0.00000  Uiso   1.00
O1064  O     0.56108   0.87154   0.25001   0.00000  Uiso   1.00
O1065  O     0.43892   0.79513   0.25000   0.00000  Uiso   1.00
O1066  O     0.50000   0.87155   0.18453   0.00000  Uiso   1.00
O1067  O     0.50000   0.79511   0.31547   0.00000  Uiso   1.00
O1068  O     0.50000   0.87155   0.31547   0.00000  Uiso   1.00
O1069  O     0.50000   0.79511   0.18453   0.00000  Uiso   1.00
O1070  O     0.48853   0.91830   0.03110   0.00000  Uiso   1.00
Zn1071 Zn    0.50000   0.88437   0.25000   0.00000  Uiso   1.00
Zn1072 Zn    0.50000   0.78229   0.25000   0.00000  Uiso   1.00
C1073  C     0.75330   0.83327   0.24962   0.00000  Uiso   1.00
C1074  C     0.97873   0.87356   0.23983   0.00000  Uiso   1.00
C1075  C     0.97860   0.79283   0.25714   0.00000  Uiso   1.00
C1076  C     0.68807   0.87349   0.23977   0.00000  Uiso   1.00
C1077  C     0.81725   0.87593   0.04984   0.00000  Uiso   1.00
C1078  C     0.84546   0.80065   0.45602   0.00000  Uiso   1.00
C1079  C     0.80651   0.87058   0.44976   0.00000  Uiso   1.00
C1080  C     0.81166   0.79393   0.04774   0.00000  Uiso   1.00
C1081  C     0.81149   0.87358   0.09513   0.00000  Uiso   1.00
C1082  C     0.84240   0.79602   0.41021   0.00000  Uiso   1.00
C1083  C     0.82055   0.87466   0.40660   0.00000  Uiso   1.00
C1084  C     0.91336   0.83338   0.24968   0.00000  Uiso   1.00
C1085  C     0.82227   0.79238   0.09251   0.00000  Uiso   1.00
C1086  C     0.82196   0.83300   0.11683   0.00000  Uiso   1.00
C1087  C     0.83298   0.83468   0.38468   0.00000  Uiso   1.00
C1088  C     0.81604   0.83538   0.02487   0.00000  Uiso   1.00
C1089  C     0.82234   0.83543   0.47653   0.00000  Uiso   1.00
C1090  C     0.95750   0.83330   0.24888   0.00000  Uiso   1.00
C1091  C     0.70915   0.83316   0.24875   0.00000  Uiso   1.00
C1092  C     0.86476   0.92895   0.02787   0.00000  Uiso   1.00
C1093  C     0.88530   0.94004   0.07259   0.00000  Uiso   1.00
C1094  C     0.92855   0.96036   0.06614   0.00000  Uiso   1.00
C1095  C     0.83088   0.83323   0.16403   0.00000  Uiso   1.00
C1096  C     0.90511   0.78545   0.49535   0.00000  Uiso   1.00
C1097  C     0.93796   0.78582   0.45883   0.00000  Uiso   1.00
C1098  C     0.98127   0.79615   0.47773   0.00000  Uiso   1.00
C1099  C     0.73650   0.87524   0.45895   0.00000  Uiso   1.00
C1100  C     0.70135   0.90864   0.44897   0.00000  Uiso   1.00
C1101  C     0.69154   0.93801   0.48884   0.00000  Uiso   1.00
C1102  C     0.75421   0.75020   0.03389   0.00000  Uiso   1.00
C1103  C     0.74592   0.71026   0.06490   0.00000  Uiso   1.00
C1104  C     0.69923   0.70282   0.07095   0.00000  Uiso   1.00
C1105  C     0.75903   0.90605   0.13506   0.00000  Uiso   1.00
C1106  C     0.83385   0.83349   0.33633   0.00000  Uiso   1.00
C1107  C     0.72491   0.90341   0.09918   0.00000  Uiso   1.00
C1108  C     0.68210   0.89669   0.11975   0.00000  Uiso   1.00
C1109  C     0.81273   0.73069   0.38302   0.00000  Uiso   1.00
C1110  C     0.78866   0.71859   0.42500   0.00000  Uiso   1.00
C1111  C     0.75366   0.68498   0.41510   0.00000  Uiso   1.00
C1112  C     0.85537   0.93571   0.37699   0.00000  Uiso   1.00
C1113  C     0.87449   0.95722   0.41825   0.00000  Uiso   1.00
C1114  C     0.91196   0.98701   0.40729   0.00000  Uiso   1.00
C1115  C     0.87578   0.74417   0.10784   0.00000  Uiso   1.00
C1116  C     0.89235   0.71722   0.14759   0.00000  Uiso   1.00
C1117  C     0.86792   0.69075   0.26313   0.00000  Uiso   1.00
C1118  C     0.93988   0.71766   0.14962   0.00000  Uiso   1.00
C1119  C     0.79859   0.97593   0.23748   0.00000  Uiso   1.00
C1120  C     0.79868   0.69049   0.23713   0.00000  Uiso   1.00
C1121  C     0.86804   0.97619   0.26272   0.00000  Uiso   1.00
C1122  C     0.68789   0.79276   0.25708   0.00000  Uiso   1.00
H1123  H     0.89557   0.70888   0.27380   0.00000  Uiso   1.00
H1124  H     0.88233   0.90163   0.01097   0.00000  Uiso   1.00
H1125  H     0.86556   0.96442   0.09062   0.00000  Uiso   1.00
H1126  H     0.88870   0.90874   0.09265   0.00000  Uiso   1.00
H1127  H     0.94740   0.93787   0.04499   0.00000  Uiso   1.00
H1128  H     0.94444   0.96386   0.09869   0.00000  Uiso   1.00
H1129  H     0.92631   0.99416   0.05019   0.00000  Uiso   1.00
H1130  H     0.91638   0.76289   0.02219   0.00000  Uiso   1.00
H1131  H     0.90204   0.81976   0.01024   0.00000  Uiso   1.00
H1132  H     0.93850   0.75228   0.44228   0.00000  Uiso   1.00
H1133  H     0.92991   0.81196   0.43374   0.00000  Uiso   1.00
H1134  H     0.77063   0.95785   0.22793   0.00000  Uiso   1.00
H1135  H     0.98146   0.82951   0.49467   0.00000  Uiso   1.00
H1136  H     0.67091   0.79698   0.45055   0.00000  Uiso   1.00
H1137  H     0.99076   0.76954   0.00170   0.00000  Uiso   1.00
H1138  H     0.72980   0.85641   0.48997   0.00000  Uiso   1.00
H1139  H     0.73629   0.85025   0.43116   0.00000  Uiso   1.00
H1140  H     0.71009   0.93039   0.42056   0.00000  Uiso   1.00
H1141  H     0.67274   0.88956   0.43933   0.00000  Uiso   1.00
H1142  H     0.67966   0.91644   0.01596   0.00000  Uiso   1.00
H1143  H     0.66721   0.96307   0.47972   0.00000  Uiso   1.00
H1144  H     0.71986   0.95634   0.00041   0.00000  Uiso   1.00
H1145  H     0.77094   0.70840   0.22673   0.00000  Uiso   1.00
H1146  H     0.73870   0.74300   0.00176   0.00000  Uiso   1.00
H1147  H     0.73865   0.78125   0.04691   0.00000  Uiso   1.00
H1148  H     0.76003   0.67906   0.05113   0.00000  Uiso   1.00
H1149  H     0.76028   0.71699   0.09778   0.00000  Uiso   1.00
H1150  H     0.68468   0.73403   0.08406   0.00000  Uiso   1.00
H1151  H     0.69394   0.67490   0.09485   0.00000  Uiso   1.00
H1152  H     0.68410   0.69381   0.03895   0.00000  Uiso   1.00
H1153  H     0.75233   0.93571   0.15623   0.00000  Uiso   1.00
H1154  H     0.75729   0.87571   0.15676   0.00000  Uiso   1.00
H1155  H     0.72522   0.93512   0.07958   0.00000  Uiso   1.00
H1156  H     0.89578   0.95828   0.27313   0.00000  Uiso   1.00
H1157  H     0.73068   0.87450   0.07662   0.00000  Uiso   1.00
H1158  H     0.68175   0.86557   0.14039   0.00000  Uiso   1.00
H1159  H     0.99159   0.89267   0.09324   0.00000  Uiso   1.00
H1160  H     0.67399   0.92631   0.14052   0.00000  Uiso   1.00
H1161  H     0.82056   0.69916   0.36516   0.00000  Uiso   1.00
H1162  H     0.79139   0.74998   0.36091   0.00000  Uiso   1.00
H1163  H     0.80986   0.70437   0.45059   0.00000  Uiso   1.00
H1164  H     0.77443   0.74995   0.43802   0.00000  Uiso   1.00
H1165  H     0.73242   0.69851   0.38907   0.00000  Uiso   1.00
H1166  H     0.73538   0.67920   0.44549   0.00000  Uiso   1.00
H1167  H     0.70406   0.76139   0.26410   0.00000  Uiso   1.00
H1168  H     0.76673   0.98561   0.40396   0.00000  Uiso   1.00
H1169  H     0.85079   0.96218   0.35146   0.00000  Uiso   1.00
H1170  H     0.87847   0.91141   0.36361   0.00000  Uiso   1.00
H1171  H     0.85067   0.97764   0.43519   0.00000  Uiso   1.00
H1172  H     0.88538   0.92962   0.44023   0.00000  Uiso   1.00
H1173  H     0.93645   0.96665   0.39101   0.00000  Uiso   1.00
H1174  H     0.92515   0.66817   0.43830   0.00000  Uiso   1.00
H1175  H     0.90254   0.68182   0.38504   0.00000  Uiso   1.00
H1176  H     0.89417   0.77637   0.10574   0.00000  Uiso   1.00
H1177  H     0.88114   0.72420   0.07736   0.00000  Uiso   1.00
H1178  H     0.96251   0.90490   0.23275   0.00000  Uiso   1.00
H1179  H     0.88103   0.73207   0.17871   0.00000  Uiso   1.00
H1180  H     0.88082   0.68182   0.14598   0.00000  Uiso   1.00
H1181  H     0.95289   0.70709   0.11750   0.00000  Uiso   1.00
H1182  H     0.95094   0.69411   0.17583   0.00000  Uiso   1.00
H1183  H     0.95145   0.75227   0.15753   0.00000  Uiso   1.00
H1184  H     0.96233   0.76146   0.26414   0.00000  Uiso   1.00
H1185  H     0.70439   0.90479   0.23260   0.00000  Uiso   1.00
H1186  H     0.86695   0.96002   0.00754   0.00000  Uiso   1.00
N1187  N     0.83333   0.95240   0.25000   0.00000  Uiso   1.00
N1188  N     0.83333   0.71427   0.25000   0.00000  Uiso   1.00
O1189  O     0.77226   0.87154   0.25000   0.00000  Uiso   1.00
O1190  O     0.86658   0.76773   0.47985   0.00000  Uiso   1.00
O1191  O     0.77494   0.89879   0.46357   0.00000  Uiso   1.00
O1192  O     0.79768   0.75517   0.02662   0.00000  Uiso   1.00
O1193  O     0.79942   0.91241   0.11724   0.00000  Uiso   1.00
O1194  O     0.85076   0.75429   0.39156   0.00000  Uiso   1.00
O1195  O     0.81566   0.91587   0.38526   0.00000  Uiso   1.00
O1196  O     0.83234   0.75139   0.11211   0.00000  Uiso   1.00
O1197  O     0.89441   0.79513   0.25001   0.00000  Uiso   1.00
O1198  O     0.89441   0.87154   0.25001   0.00000  Uiso   1.00
O1199  O     0.77226   0.79513   0.25000   0.00000  Uiso   1.00
O1200  O     0.83333   0.87155   0.18453   0.00000  Uiso   1.00
O1201  O     0.83334   0.79511   0.31547   0.00000  Uiso   1.00
O1202  O     0.83334   0.87155   0.31547   0.00000  Uiso   1.00
O1203  O     0.83333   0.79511   0.18453   0.00000  Uiso   1.00
O1204  O     0.82186   0.91830   0.03110   0.00000  Uiso   1.00
Zn1205 Zn    0.83333   0.88437   0.25000   0.00000  Uiso   1.00
Zn1206 Zn    0.83333   0.78229   0.25000   0.00000  Uiso   1.00
C1207  C     0.08664   0.16660   0.74962   0.00000  Uiso   1.00
C1208  C     0.31206   0.20690   0.73983   0.00000  Uiso   1.00
C1209  C     0.31193   0.12616   0.75714   0.00000  Uiso   1.00
C1210  C     0.02140   0.20682   0.73977   0.00000  Uiso   1.00
C1211  C     0.15058   0.20927   0.54984   0.00000  Uiso   1.00
C1212  C     0.17879   0.13398   0.95602   0.00000  Uiso   1.00
C1213  C     0.13984   0.20392   0.94976   0.00000  Uiso   1.00
C1214  C     0.14500   0.12726   0.54774   0.00000  Uiso   1.00
C1215  C     0.14482   0.20691   0.59513   0.00000  Uiso   1.00
C1216  C     0.17574   0.12935   0.91021   0.00000  Uiso   1.00
C1217  C     0.15388   0.20800   0.90660   0.00000  Uiso   1.00
C1218  C     0.24669   0.16671   0.74968   0.00000  Uiso   1.00
C1219  C     0.15560   0.12572   0.59251   0.00000  Uiso   1.00
C1220  C     0.15529   0.16633   0.61683   0.00000  Uiso   1.00
C1221  C     0.16631   0.16802   0.88468   0.00000  Uiso   1.00
C1222  C     0.14938   0.16871   0.52487   0.00000  Uiso   1.00
C1223  C     0.15567   0.16877   0.97653   0.00000  Uiso   1.00
C1224  C     0.29083   0.16664   0.74888   0.00000  Uiso   1.00
C1225  C     0.04249   0.16649   0.74875   0.00000  Uiso   1.00
C1226  C     0.19809   0.26229   0.52787   0.00000  Uiso   1.00
C1227  C     0.21863   0.27337   0.57259   0.00000  Uiso   1.00
C1228  C     0.26188   0.29370   0.56614   0.00000  Uiso   1.00
C1229  C     0.16421   0.16656   0.66403   0.00000  Uiso   1.00
C1230  C     0.23845   0.11879   0.99535   0.00000  Uiso   1.00
C1231  C     0.27130   0.11916   0.95883   0.00000  Uiso   1.00
C1232  C     0.31460   0.12948   0.97773   0.00000  Uiso   1.00
C1233  C     0.06983   0.20857   0.95895   0.00000  Uiso   1.00
C1234  C     0.03468   0.24197   0.94897   0.00000  Uiso   1.00
C1235  C     0.02487   0.27135   0.98884   0.00000  Uiso   1.00
C1236  C     0.08755   0.08354   0.53389   0.00000  Uiso   1.00
C1237  C     0.07926   0.04360   0.56490   0.00000  Uiso   1.00
C1238  C     0.03257   0.03615   0.57095   0.00000  Uiso   1.00
C1239  C     0.09236   0.23938   0.63506   0.00000  Uiso   1.00
C1240  C     0.16718   0.16682   0.83633   0.00000  Uiso   1.00
C1241  C     0.05824   0.23674   0.59918   0.00000  Uiso   1.00
C1242  C     0.01543   0.23003   0.61975   0.00000  Uiso   1.00
C1243  C     0.14606   0.06402   0.88302   0.00000  Uiso   1.00
C1244  C     0.12199   0.05192   0.92500   0.00000  Uiso   1.00
C1245  C     0.08699   0.01832   0.91510   0.00000  Uiso   1.00
C1246  C     0.18870   0.26904   0.87699   0.00000  Uiso   1.00
C1247  C     0.20782   0.29055   0.91825   0.00000  Uiso   1.00
C1248  C     0.24529   0.32034   0.90729   0.00000  Uiso   1.00
C1249  C     0.20911   0.07750   0.60784   0.00000  Uiso   1.00
C1250  C     0.22568   0.05056   0.64759   0.00000  Uiso   1.00
C1251  C     0.20125   0.02409   0.76313   0.00000  Uiso   1.00
C1252  C     0.27322   0.05100   0.64962   0.00000  Uiso   1.00
C1253  C     0.13193   0.30927   0.73748   0.00000  Uiso   1.00
C1254  C     0.13202   0.02383   0.73713   0.00000  Uiso   1.00
C1255  C     0.20138   0.30952   0.76272   0.00000  Uiso   1.00
C1256  C     0.02123   0.12610   0.75708   0.00000  Uiso   1.00
H1257  H     0.22890   0.04221   0.77380   0.00000  Uiso   1.00
H1258  H     0.21566   0.23496   0.51097   0.00000  Uiso   1.00
H1259  H     0.19889   0.29776   0.59062   0.00000  Uiso   1.00
H1260  H     0.22204   0.24208   0.59265   0.00000  Uiso   1.00
H1261  H     0.28073   0.27121   0.54499   0.00000  Uiso   1.00
H1262  H     0.27777   0.29719   0.59869   0.00000  Uiso   1.00
H1263  H     0.25964   0.32750   0.55019   0.00000  Uiso   1.00
H1264  H     0.24972   0.09622   0.52219   0.00000  Uiso   1.00
H1265  H     0.23537   0.15310   0.51024   0.00000  Uiso   1.00
H1266  H     0.27184   0.08561   0.94228   0.00000  Uiso   1.00
H1267  H     0.26324   0.14529   0.93374   0.00000  Uiso   1.00
H1268  H     0.10396   0.29118   0.72793   0.00000  Uiso   1.00
H1269  H     0.31479   0.16284   0.99467   0.00000  Uiso   1.00
H1270  H     0.00424   0.13031   0.95055   0.00000  Uiso   1.00
H1271  H     0.32409   0.10287   0.50170   0.00000  Uiso   1.00
H1272  H     0.06313   0.18975   0.98997   0.00000  Uiso   1.00
H1273  H     0.06963   0.18359   0.93116   0.00000  Uiso   1.00
H1274  H     0.04342   0.26373   0.92056   0.00000  Uiso   1.00
H1275  H     0.00607   0.22290   0.93933   0.00000  Uiso   1.00
H1276  H     0.01299   0.24977   0.51596   0.00000  Uiso   1.00
H1277  H     0.00054   0.29641   0.97972   0.00000  Uiso   1.00
H1278  H     0.05320   0.28968   0.50041   0.00000  Uiso   1.00
H1279  H     0.10428   0.04174   0.72673   0.00000  Uiso   1.00
H1280  H     0.07203   0.07634   0.50176   0.00000  Uiso   1.00
H1281  H     0.07198   0.11459   0.54691   0.00000  Uiso   1.00
H1282  H     0.09336   0.01239   0.55113   0.00000  Uiso   1.00
H1283  H     0.09361   0.05033   0.59778   0.00000  Uiso   1.00
H1284  H     0.01801   0.06737   0.58406   0.00000  Uiso   1.00
H1285  H     0.02727   0.00823   0.59485   0.00000  Uiso   1.00
H1286  H     0.01743   0.02714   0.53895   0.00000  Uiso   1.00
H1287  H     0.08566   0.26905   0.65623   0.00000  Uiso   1.00
H1288  H     0.09062   0.20905   0.65676   0.00000  Uiso   1.00
H1289  H     0.05855   0.26846   0.57958   0.00000  Uiso   1.00
H1290  H     0.22912   0.29161   0.77313   0.00000  Uiso   1.00
H1291  H     0.06401   0.20784   0.57662   0.00000  Uiso   1.00
H1292  H     0.01508   0.19890   0.64039   0.00000  Uiso   1.00
H1293  H     0.32492   0.22601   0.59324   0.00000  Uiso   1.00
H1294  H     0.00732   0.25965   0.64052   0.00000  Uiso   1.00
H1295  H     0.15389   0.03250   0.86516   0.00000  Uiso   1.00
H1296  H     0.12472   0.08332   0.86091   0.00000  Uiso   1.00
H1297  H     0.14319   0.03771   0.95059   0.00000  Uiso   1.00
H1298  H     0.10776   0.08328   0.93802   0.00000  Uiso   1.00
H1299  H     0.06576   0.03185   0.88907   0.00000  Uiso   1.00
H1300  H     0.06872   0.01254   0.94549   0.00000  Uiso   1.00
H1301  H     0.03739   0.09472   0.76410   0.00000  Uiso   1.00
H1302  H     0.10007   0.31894   0.90396   0.00000  Uiso   1.00
H1303  H     0.18413   0.29551   0.85146   0.00000  Uiso   1.00
H1304  H     0.21180   0.24474   0.86361   0.00000  Uiso   1.00
H1305  H     0.18401   0.31097   0.93519   0.00000  Uiso   1.00
H1306  H     0.21871   0.26296   0.94023   0.00000  Uiso   1.00
H1307  H     0.26978   0.29998   0.89101   0.00000  Uiso   1.00
H1308  H     0.25849   0.00150   0.93830   0.00000  Uiso   1.00
H1309  H     0.23587   0.01515   0.88504   0.00000  Uiso   1.00
H1310  H     0.22751   0.10971   0.60574   0.00000  Uiso   1.00
H1311  H     0.21448   0.05753   0.57736   0.00000  Uiso   1.00
H1312  H     0.29585   0.23823   0.73275   0.00000  Uiso   1.00
H1313  H     0.21436   0.06540   0.67871   0.00000  Uiso   1.00
H1314  H     0.21415   0.01515   0.64598   0.00000  Uiso   1.00
H1315  H     0.28622   0.04043   0.61750   0.00000  Uiso   1.00
H1316  H     0.28427   0.02744   0.67583   0.00000  Uiso   1.00
H1317  H     0.28479   0.08560   0.65753   0.00000  Uiso   1.00
H1318  H     0.29566   0.09479   0.76414   0.00000  Uiso   1.00
H1319  H     0.03772   0.23812   0.73260   0.00000  Uiso   1.00
H1320  H     0.20028   0.29335   0.50754   0.00000  Uiso   1.00
N1321  N     0.16667   0.28573   0.75000   0.00000  Uiso   1.00
N1322  N     0.16667   0.04760   0.75000   0.00000  Uiso   1.00
O1323  O     0.10559   0.20487   0.75000   0.00000  Uiso   1.00
O1324  O     0.19991   0.10107   0.97985   0.00000  Uiso   1.00
O1325  O     0.10827   0.23212   0.96357   0.00000  Uiso   1.00
O1326  O     0.13101   0.08850   0.52662   0.00000  Uiso   1.00
O1327  O     0.13275   0.24574   0.61724   0.00000  Uiso   1.00
O1328  O     0.18409   0.08763   0.89156   0.00000  Uiso   1.00
O1329  O     0.14899   0.24921   0.88526   0.00000  Uiso   1.00
O1330  O     0.16567   0.08473   0.61211   0.00000  Uiso   1.00
O1331  O     0.22774   0.12846   0.75001   0.00000  Uiso   1.00
O1332  O     0.22774   0.20487   0.75001   0.00000  Uiso   1.00
O1333  O     0.10559   0.12846   0.75000   0.00000  Uiso   1.00
O1334  O     0.16666   0.20489   0.68453   0.00000  Uiso   1.00
O1335  O     0.16667   0.12845   0.81547   0.00000  Uiso   1.00
O1336  O     0.16667   0.20489   0.81547   0.00000  Uiso   1.00
O1337  O     0.16666   0.12845   0.68453   0.00000  Uiso   1.00
O1338  O     0.15519   0.25163   0.53110   0.00000  Uiso   1.00
Zn1339 Zn    0.16667   0.21771   0.75000   0.00000  Uiso   1.00
Zn1340 Zn    0.16667   0.11563   0.75000   0.00000  Uiso   1.00
C1341  C     0.41997   0.16660   0.74962   0.00000  Uiso   1.00
C1342  C     0.64540   0.20690   0.73983   0.00000  Uiso   1.00
C1343  C     0.64526   0.12616   0.75714   0.00000  Uiso   1.00
C1344  C     0.35473   0.20682   0.73977   0.00000  Uiso   1.00
C1345  C     0.48391   0.20927   0.54984   0.00000  Uiso   1.00
C1346  C     0.51212   0.13398   0.95602   0.00000  Uiso   1.00
C1347  C     0.47317   0.20392   0.94976   0.00000  Uiso   1.00
C1348  C     0.47833   0.12726   0.54774   0.00000  Uiso   1.00
C1349  C     0.47816   0.20691   0.59513   0.00000  Uiso   1.00
C1350  C     0.50907   0.12935   0.91021   0.00000  Uiso   1.00
C1351  C     0.48722   0.20800   0.90660   0.00000  Uiso   1.00
C1352  C     0.58002   0.16671   0.74968   0.00000  Uiso   1.00
C1353  C     0.48893   0.12572   0.59251   0.00000  Uiso   1.00
C1354  C     0.48862   0.16633   0.61683   0.00000  Uiso   1.00
C1355  C     0.49965   0.16802   0.88468   0.00000  Uiso   1.00
C1356  C     0.48271   0.16871   0.52487   0.00000  Uiso   1.00
C1357  C     0.48901   0.16877   0.97653   0.00000  Uiso   1.00
C1358  C     0.62416   0.16664   0.74888   0.00000  Uiso   1.00
C1359  C     0.37582   0.16649   0.74875   0.00000  Uiso   1.00
C1360  C     0.53143   0.26229   0.52787   0.00000  Uiso   1.00
C1361  C     0.55197   0.27337   0.57259   0.00000  Uiso   1.00
C1362  C     0.59522   0.29370   0.56614   0.00000  Uiso   1.00
C1363  C     0.49755   0.16656   0.66403   0.00000  Uiso   1.00
C1364  C     0.57178   0.11879   0.99535   0.00000  Uiso   1.00
C1365  C     0.60463   0.11916   0.95883   0.00000  Uiso   1.00
C1366  C     0.64793   0.12948   0.97773   0.00000  Uiso   1.00
C1367  C     0.40316   0.20857   0.95895   0.00000  Uiso   1.00
C1368  C     0.36801   0.24197   0.94897   0.00000  Uiso   1.00
C1369  C     0.35820   0.27135   0.98884   0.00000  Uiso   1.00
C1370  C     0.42088   0.08354   0.53389   0.00000  Uiso   1.00
C1371  C     0.41259   0.04360   0.56490   0.00000  Uiso   1.00
C1372  C     0.36590   0.03615   0.57095   0.00000  Uiso   1.00
C1373  C     0.42569   0.23938   0.63506   0.00000  Uiso   1.00
C1374  C     0.50051   0.16682   0.83633   0.00000  Uiso   1.00
C1375  C     0.39158   0.23674   0.59918   0.00000  Uiso   1.00
C1376  C     0.34877   0.23003   0.61975   0.00000  Uiso   1.00
C1377  C     0.47939   0.06402   0.88302   0.00000  Uiso   1.00
C1378  C     0.45532   0.05192   0.92500   0.00000  Uiso   1.00
C1379  C     0.42032   0.01832   0.91510   0.00000  Uiso   1.00
C1380  C     0.52203   0.26904   0.87699   0.00000  Uiso   1.00
C1381  C     0.54116   0.29055   0.91825   0.00000  Uiso   1.00
C1382  C     0.57862   0.32034   0.90729   0.00000  Uiso   1.00
C1383  C     0.54245   0.07750   0.60784   0.00000  Uiso   1.00
C1384  C     0.55901   0.05056   0.64759   0.00000  Uiso   1.00
C1385  C     0.53458   0.02409   0.76313   0.00000  Uiso   1.00
C1386  C     0.60655   0.05100   0.64962   0.00000  Uiso   1.00
C1387  C     0.46526   0.30927   0.73748   0.00000  Uiso   1.00
C1388  C     0.46535   0.02383   0.73713   0.00000  Uiso   1.00
C1389  C     0.53471   0.30952   0.76272   0.00000  Uiso   1.00
C1390  C     0.35456   0.12610   0.75708   0.00000  Uiso   1.00
H1391  H     0.56224   0.04221   0.77380   0.00000  Uiso   1.00
H1392  H     0.54899   0.23496   0.51097   0.00000  Uiso   1.00
H1393  H     0.53222   0.29776   0.59062   0.00000  Uiso   1.00
H1394  H     0.55537   0.24208   0.59265   0.00000  Uiso   1.00
H1395  H     0.61406   0.27121   0.54499   0.00000  Uiso   1.00
H1396  H     0.61110   0.29719   0.59869   0.00000  Uiso   1.00
H1397  H     0.59298   0.32750   0.55019   0.00000  Uiso   1.00
H1398  H     0.58305   0.09622   0.52219   0.00000  Uiso   1.00
H1399  H     0.56870   0.15310   0.51024   0.00000  Uiso   1.00
H1400  H     0.60517   0.08561   0.94228   0.00000  Uiso   1.00
H1401  H     0.59658   0.14529   0.93374   0.00000  Uiso   1.00
H1402  H     0.43729   0.29118   0.72793   0.00000  Uiso   1.00
H1403  H     0.64812   0.16284   0.99467   0.00000  Uiso   1.00
H1404  H     0.33758   0.13031   0.95055   0.00000  Uiso   1.00
H1405  H     0.65742   0.10287   0.50170   0.00000  Uiso   1.00
H1406  H     0.39647   0.18975   0.98997   0.00000  Uiso   1.00
H1407  H     0.40296   0.18359   0.93116   0.00000  Uiso   1.00
H1408  H     0.37676   0.26373   0.92056   0.00000  Uiso   1.00
H1409  H     0.33941   0.22290   0.93933   0.00000  Uiso   1.00
H1410  H     0.34633   0.24977   0.51596   0.00000  Uiso   1.00
H1411  H     0.33388   0.29641   0.97972   0.00000  Uiso   1.00
H1412  H     0.38653   0.28968   0.50041   0.00000  Uiso   1.00
H1413  H     0.43761   0.04174   0.72673   0.00000  Uiso   1.00
H1414  H     0.40537   0.07634   0.50176   0.00000  Uiso   1.00
H1415  H     0.40531   0.11459   0.54691   0.00000  Uiso   1.00
H1416  H     0.42670   0.01239   0.55113   0.00000  Uiso   1.00
H1417  H     0.42694   0.05033   0.59778   0.00000  Uiso   1.00
H1418  H     0.35134   0.06737   0.58406   0.00000  Uiso   1.00
H1419  H     0.36061   0.00823   0.59485   0.00000  Uiso   1.00
H1420  H     0.35076   0.02714   0.53895   0.00000  Uiso   1.00
H1421  H     0.41900   0.26905   0.65623   0.00000  Uiso   1.00
H1422  H     0.42396   0.20905   0.65676   0.00000  Uiso   1.00
H1423  H     0.39189   0.26846   0.57958   0.00000  Uiso   1.00
H1424  H     0.56245   0.29161   0.77313   0.00000  Uiso   1.00
H1425  H     0.39735   0.20784   0.57662   0.00000  Uiso   1.00
H1426  H     0.34841   0.19890   0.64039   0.00000  Uiso   1.00
H1427  H     0.65825   0.22601   0.59324   0.00000  Uiso   1.00
H1428  H     0.34065   0.25965   0.64052   0.00000  Uiso   1.00
H1429  H     0.48722   0.03250   0.86516   0.00000  Uiso   1.00
H1430  H     0.45806   0.08332   0.86091   0.00000  Uiso   1.00
H1431  H     0.47653   0.03771   0.95059   0.00000  Uiso   1.00
H1432  H     0.44110   0.08328   0.93802   0.00000  Uiso   1.00
H1433  H     0.39909   0.03185   0.88907   0.00000  Uiso   1.00
H1434  H     0.40205   0.01254   0.94549   0.00000  Uiso   1.00
H1435  H     0.37073   0.09472   0.76410   0.00000  Uiso   1.00
H1436  H     0.43340   0.31894   0.90396   0.00000  Uiso   1.00
H1437  H     0.51746   0.29551   0.85146   0.00000  Uiso   1.00
H1438  H     0.54513   0.24474   0.86361   0.00000  Uiso   1.00
H1439  H     0.51734   0.31097   0.93519   0.00000  Uiso   1.00
H1440  H     0.55204   0.26296   0.94023   0.00000  Uiso   1.00
H1441  H     0.60311   0.29998   0.89101   0.00000  Uiso   1.00
H1442  H     0.59182   0.00150   0.93830   0.00000  Uiso   1.00
H1443  H     0.56921   0.01515   0.88504   0.00000  Uiso   1.00
H1444  H     0.56084   0.10971   0.60574   0.00000  Uiso   1.00
H1445  H     0.54781   0.05753   0.57736   0.00000  Uiso   1.00
H1446  H     0.62918   0.23823   0.73275   0.00000  Uiso   1.00
H1447  H     0.54769   0.06540   0.67871   0.00000  Uiso   1.00
H1448  H     0.54748   0.01515   0.64598   0.00000  Uiso   1.00
H1449  H     0.61956   0.04043   0.61750   0.00000  Uiso   1.00
H1450  H     0.61760   0.02744   0.67583   0.00000  Uiso   1.00
H1451  H     0.61812   0.08560   0.65753   0.00000  Uiso   1.00
H1452  H     0.62899   0.09479   0.76414   0.00000  Uiso   1.00
H1453  H     0.37106   0.23812   0.73260   0.00000  Uiso   1.00
H1454  H     0.53362   0.29335   0.50754   0.00000  Uiso   1.00
N1455  N     0.50000   0.28573   0.75000   0.00000  Uiso   1.00
N1456  N     0.50000   0.04760   0.75000   0.00000  Uiso   1.00
O1457  O     0.43892   0.20487   0.75000   0.00000  Uiso   1.00
O1458  O     0.53324   0.10107   0.97985   0.00000  Uiso   1.00
O1459  O     0.44160   0.23212   0.96357   0.00000  Uiso   1.00
O1460  O     0.46434   0.08850   0.52662   0.00000  Uiso   1.00
O1461  O     0.46608   0.24574   0.61724   0.00000  Uiso   1.00
O1462  O     0.51742   0.08763   0.89156   0.00000  Uiso   1.00
O1463  O     0.48232   0.24921   0.88526   0.00000  Uiso   1.00
O1464  O     0.49901   0.08473   0.61211   0.00000  Uiso   1.00
O1465  O     0.56108   0.12846   0.75001   0.00000  Uiso   1.00
O1466  O     0.56108   0.20487   0.75001   0.00000  Uiso   1.00
O1467  O     0.43892   0.12846   0.75000   0.00000  Uiso   1.00
O1468  O     0.50000   0.20489   0.68453   0.00000  Uiso   1.00
O1469  O     0.50000   0.12845   0.81547   0.00000  Uiso   1.00
O1470  O     0.50000   0.20489   0.81547   0.00000  Uiso   1.00
O1471  O     0.50000   0.12845   0.68453   0.00000  Uiso   1.00
O1472  O     0.48853   0.25163   0.53110   0.00000  Uiso   1.00
Zn1473 Zn    0.50000   0.21771   0.75000   0.00000  Uiso   1.00
Zn1474 Zn    0.50000   0.11563   0.75000   0.00000  Uiso   1.00
C1475  C     0.75330   0.16660   0.74962   0.00000  Uiso   1.00
C1476  C     0.97873   0.20690   0.73983   0.00000  Uiso   1.00
C1477  C     0.97860   0.12616   0.75714   0.00000  Uiso   1.00
C1478  C     0.68807   0.20682   0.73977   0.00000  Uiso   1.00
C1479  C     0.81725   0.20927   0.54984   0.00000  Uiso   1.00
C1480  C     0.84546   0.13398   0.95602   0.00000  Uiso   1.00
C1481  C     0.80651   0.20392   0.94976   0.00000  Uiso   1.00
C1482  C     0.81166   0.12726   0.54774   0.00000  Uiso   1.00
C1483  C     0.81149   0.20691   0.59513   0.00000  Uiso   1.00
C1484  C     0.84240   0.12935   0.91021   0.00000  Uiso   1.00
C1485  C     0.82055   0.20800   0.90660   0.00000  Uiso   1.00
C1486  C     0.91336   0.16671   0.74968   0.00000  Uiso   1.00
C1487  C     0.82227   0.12572   0.59251   0.00000  Uiso   1.00
C1488  C     0.82196   0.16633   0.61683   0.00000  Uiso   1.00
C1489  C     0.83298   0.16802   0.88468   0.00000  Uiso   1.00
C1490  C     0.81604   0.16871   0.52487   0.00000  Uiso   1.00
C1491  C     0.82234   0.16877   0.97653   0.00000  Uiso   1.00
C1492  C     0.95750   0.16664   0.74888   0.00000  Uiso   1.00
C1493  C     0.70915   0.16649   0.74875   0.00000  Uiso   1.00
C1494  C     0.86476   0.26229   0.52787   0.00000  Uiso   1.00
C1495  C     0.88530   0.27337   0.57259   0.00000  Uiso   1.00
C1496  C     0.92855   0.29370   0.56614   0.00000  Uiso   1.00
C1497  C     0.83088   0.16656   0.66403   0.00000  Uiso   1.00
C1498  C     0.90511   0.11879   0.99535   0.00000  Uiso   1.00
C1499  C     0.93796   0.11916   0.95883   0.00000  Uiso   1.00
C1500  C     0.98127   0.12948   0.97773   0.00000  Uiso   1.00
C1501  C     0.73650   0.20857   0.95895   0.00000  Uiso   1.00
C1502  C     0.70135   0.24197   0.94897   0.00000  Uiso   1.00
C1503  C     0.69154   0.27135   0.98884   0.00000  Uiso   1.00
C1504  C     0.75421   0.08354   0.53389   0.00000  Uiso   1.00
C1505  C     0.74592   0.04360   0.56490   0.00000  Uiso   1.00
C1506  C     0.69923   0.03615   0.57095   0.00000  Uiso   1.00
C1507  C     0.75903   0.23938   0.63506   0.00000  Uiso   1.00
C1508  C     0.83385   0.16682   0.83633   0.00000  Uiso   1.00
C1509  C     0.72491   0.23674   0.59918   0.00000  Uiso   1.00
C1510  C     0.68210   0.23003   0.61975   0.00000  Uiso   1.00
C1511  C     0.81273   0.06402   0.88302   0.00000  Uiso   1.00
C1512  C     0.78866   0.05192   0.92500   0.00000  Uiso   1.00
C1513  C     0.75366   0.01832   0.91510   0.00000  Uiso   1.00
C1514  C     0.85537   0.26904   0.87699   0.00000  Uiso   1.00
C1515  C     0.87449   0.29055   0.91825   0.00000  Uiso   1.00
C1516  C     0.91196   0.32034   0.90729   0.00000  Uiso   1.00
C1517  C     0.87578   0.07750   0.60784   0.00000  Uiso   1.00
C1518  C     0.89235   0.05056   0.64759   0.00000  Uiso   1.00
C1519  C     0.86792   0.02409   0.76313   0.00000  Uiso   1.00
C1520  C     0.93988   0.05100   0.64962   0.00000  Uiso   1.00
C1521  C     0.79859   0.30927   0.73748   0.00000  Uiso   1.00
C1522  C     0.79868   0.02383   0.73713   0.00000  Uiso   1.00
C1523  C     0.86804   0.30952   0.76272   0.00000  Uiso   1.00
C1524  C     0.68789   0.12610   0.75708   0.00000  Uiso   1.00
H1525  H     0.89557   0.04221   0.77380   0.00000  Uiso   1.00
H1526  H     0.88233   0.23496   0.51097   0.00000  Uiso   1.00
H1527  H     0.86556   0.29776   0.59062   0.00000  Uiso   1.00
H1528  H     0.88870   0.24208   0.59265   0.00000  Uiso   1.00
H1529  H     0.94740   0.27121   0.54499   0.00000  Uiso   1.00
H1530  H     0.94444   0.29719   0.59869   0.00000  Uiso   1.00
H1531  H     0.92631   0.32750   0.55019   0.00000  Uiso   1.00
H1532  H     0.91638   0.09622   0.52219   0.00000  Uiso   1.00
H1533  H     0.90204   0.15310   0.51024   0.00000  Uiso   1.00
H1534  H     0.93850   0.08561   0.94228   0.00000  Uiso   1.00
H1535  H     0.92991   0.14529   0.93374   0.00000  Uiso   1.00
H1536  H     0.77063   0.29118   0.72793   0.00000  Uiso   1.00
H1537  H     0.98146   0.16284   0.99467   0.00000  Uiso   1.00
H1538  H     0.67091   0.13031   0.95055   0.00000  Uiso   1.00
H1539  H     0.99076   0.10287   0.50170   0.00000  Uiso   1.00
H1540  H     0.72980   0.18975   0.98997   0.00000  Uiso   1.00
H1541  H     0.73629   0.18359   0.93116   0.00000  Uiso   1.00
H1542  H     0.71009   0.26373   0.92056   0.00000  Uiso   1.00
H1543  H     0.67274   0.22290   0.93933   0.00000  Uiso   1.00
H1544  H     0.67966   0.24977   0.51596   0.00000  Uiso   1.00
H1545  H     0.66721   0.29641   0.97972   0.00000  Uiso   1.00
H1546  H     0.71986   0.28968   0.50041   0.00000  Uiso   1.00
H1547  H     0.77094   0.04174   0.72673   0.00000  Uiso   1.00
H1548  H     0.73870   0.07634   0.50176   0.00000  Uiso   1.00
H1549  H     0.73865   0.11459   0.54691   0.00000  Uiso   1.00
H1550  H     0.76003   0.01239   0.55113   0.00000  Uiso   1.00
H1551  H     0.76028   0.05033   0.59778   0.00000  Uiso   1.00
H1552  H     0.68468   0.06737   0.58406   0.00000  Uiso   1.00
H1553  H     0.69394   0.00823   0.59485   0.00000  Uiso   1.00
H1554  H     0.68410   0.02714   0.53895   0.00000  Uiso   1.00
H1555  H     0.75233   0.26905   0.65623   0.00000  Uiso   1.00
H1556  H     0.75729   0.20905   0.65676   0.00000  Uiso   1.00
H1557  H     0.72522   0.26846   0.57958   0.00000  Uiso   1.00
H1558  H     0.89578   0.29161   0.77313   0.00000  Uiso   1.00
H1559  H     0.73068   0.20784   0.57662   0.00000  Uiso   1.00
H1560  H     0.68175   0.19890   0.64039   0.00000  Uiso   1.00
H1561  H     0.99159   0.22601   0.59324   0.00000  Uiso   1.00
H1562  H     0.67399   0.25965   0.64052   0.00000  Uiso   1.00
H1563  H     0.82056   0.03250   0.86516   0.00000  Uiso   1.00
H1564  H     0.79139   0.08332   0.86091   0.00000  Uiso   1.00
H1565  H     0.80986   0.03771   0.95059   0.00000  Uiso   1.00
H1566  H     0.77443   0.08328   0.93802   0.00000  Uiso   1.00
H1567  H     0.73242   0.03185   0.88907   0.00000  Uiso   1.00
H1568  H     0.73538   0.01254   0.94549   0.00000  Uiso   1.00
H1569  H     0.70406   0.09472   0.76410   0.00000  Uiso   1.00
H1570  H     0.76673   0.31894   0.90396   0.00000  Uiso   1.00
H1571  H     0.85079   0.29551   0.85146   0.00000  Uiso   1.00
H1572  H     0.87847   0.24474   0.86361   0.00000  Uiso   1.00
H1573  H     0.85067   0.31097   0.93519   0.00000  Uiso   1.00
H1574  H     0.88538   0.26296   0.94023   0.00000  Uiso   1.00
H1575  H     0.93645   0.29998   0.89101   0.00000  Uiso   1.00
H1576  H     0.92515   0.00150   0.93830   0.00000  Uiso   1.00
H1577  H     0.90254   0.01515   0.88504   0.00000  Uiso   1.00
H1578  H     0.89417   0.10971   0.60574   0.00000  Uiso   1.00
H1579  H     0.88114   0.05753   0.57736   0.00000  Uiso   1.00
H1580  H     0.96251   0.23823   0.73275   0.00000  Uiso   1.00
H1581  H     0.88103   0.06540   0.67871   0.00000  Uiso   1.00
H1582  H     0.88082   0.01515   0.64598   0.00000  Uiso   1.00
H1583  H     0.95289   0.04043   0.61750   0.00000  Uiso   1.00
H1584  H     0.95094   0.02744   0.67583   0.00000  Uiso   1.00
H1585  H     0.95145   0.08560   0.65753   0.00000  Uiso   1.00
H1586  H     0.96233   0.09479   0.76414   0.00000  Uiso   1.00
H1587  H     0.70439   0.23812   0.73260   0.00000  Uiso   1.00
H1588  H     0.86695   0.29335   0.50754   0.00000  Uiso   1.00
N1589  N     0.83333   0.28573   0.75000   0.00000  Uiso   1.00
N1590  N     0.83333   0.04760   0.75000   0.00000  Uiso   1.00
O1591  O     0.77226   0.20487   0.75000   0.00000  Uiso   1.00
O1592  O     0.86658   0.10107   0.97985   0.00000  Uiso   1.00
O1593  O     0.77494   0.23212   0.96357   0.00000  Uiso   1.00
O1594  O     0.79768   0.08850   0.52662   0.00000  Uiso   1.00
O1595  O     0.79942   0.24574   0.61724   0.00000  Uiso   1.00
O1596  O     0.85076   0.08763   0.89156   0.00000  Uiso   1.00
O1597  O     0.81566   0.24921   0.88526   0.00000  Uiso   1.00
O1598  O     0.83234   0.08473   0.61211   0.00000  Uiso   1.00
O1599  O     0.89441   0.12846   0.75001   0.00000  Uiso   1.00
O1600  O     0.89441   0.20487   0.75001   0.00000  Uiso   1.00
O1601  O     0.77226   0.12846   0.75000   0.00000  Uiso   1.00
O1602  O     0.83333   0.20489   0.68453   0.00000  Uiso   1.00
O1603  O     0.83334   0.12845   0.81547   0.00000  Uiso   1.00
O1604  O     0.83334   0.20489   0.81547   0.00000  Uiso   1.00
O1605  O     0.83333   0.12845   0.68453   0.00000  Uiso   1.00
O1606  O     0.82186   0.25163   0.53110   0.00000  Uiso   1.00
Zn1607 Zn    0.83333   0.21771   0.75000   0.00000  Uiso   1.00
Zn1608 Zn    0.83333   0.11563   0.75000   0.00000  Uiso   1.00
C1609  C     0.08664   0.49993   0.74962   0.00000  Uiso   1.00
C1610  C     0.31206   0.54023   0.73983   0.00000  Uiso   1.00
C1611  C     0.31193   0.45950   0.75714   0.00000  Uiso   1.00
C1612  C     0.02140   0.54016   0.73977   0.00000  Uiso   1.00
C1613  C     0.15058   0.54260   0.54984   0.00000  Uiso   1.00
C1614  C     0.17879   0.46731   0.95602   0.00000  Uiso   1.00
C1615  C     0.13984   0.53725   0.94976   0.00000  Uiso   1.00
C1616  C     0.14500   0.46060   0.54774   0.00000  Uiso   1.00
C1617  C     0.14482   0.54024   0.59513   0.00000  Uiso   1.00
C1618  C     0.17574   0.46269   0.91021   0.00000  Uiso   1.00
C1619  C     0.15388   0.54133   0.90660   0.00000  Uiso   1.00
C1620  C     0.24669   0.50004   0.74968   0.00000  Uiso   1.00
C1621  C     0.15560   0.45905   0.59251   0.00000  Uiso   1.00
C1622  C     0.15529   0.49966   0.61683   0.00000  Uiso   1.00
C1623  C     0.16631   0.50135   0.88468   0.00000  Uiso   1.00
C1624  C     0.14938   0.50204   0.52487   0.00000  Uiso   1.00
C1625  C     0.15567   0.50210   0.97653   0.00000  Uiso   1.00
C1626  C     0.29083   0.49997   0.74888   0.00000  Uiso   1.00
C1627  C     0.04249   0.49983   0.74875   0.00000  Uiso   1.00
C1628  C     0.19809   0.59562   0.52787   0.00000  Uiso   1.00
C1629  C     0.21863   0.60671   0.57259   0.00000  Uiso   1.00
C1630  C     0.26188   0.62703   0.56614   0.00000  Uiso   1.00
C1631  C     0.16421   0.49989   0.66403   0.00000  Uiso   1.00
C1632  C     0.23845   0.45212   0.99535   0.00000  Uiso   1.00
C1633  C     0.27130   0.45249   0.95883   0.00000  Uiso   1.00
C1634  C     0.31460   0.46282   0.97773   0.00000  Uiso   1.00
C1635  C     0.06983   0.54191   0.95895   0.00000  Uiso   1.00
C1636  C     0.03468   0.57531   0.94897   0.00000  Uiso   1.00
C1637  C     0.02487   0.60468   0.98884   0.00000  Uiso   1.00
C1638  C     0.08755   0.41687   0.53389   0.00000  Uiso   1.00
C1639  C     0.07926   0.37693   0.56490   0.00000  Uiso   1.00
C1640  C     0.03257   0.36948   0.57095   0.00000  Uiso   1.00
C1641  C     0.09236   0.57272   0.63506   0.00000  Uiso   1.00
C1642  C     0.16718   0.50015   0.83633   0.00000  Uiso   1.00
C1643  C     0.05824   0.57007   0.59918   0.00000  Uiso   1.00
C1644  C     0.01543   0.56336   0.61975   0.00000  Uiso   1.00
C1645  C     0.14606   0.39736   0.88302   0.00000  Uiso   1.00
C1646  C     0.12199   0.38526   0.92500   0.00000  Uiso   1.00
C1647  C     0.08699   0.35165   0.91510   0.00000  Uiso   1.00
C1648  C     0.18870   0.60237   0.87699   0.00000  Uiso   1.00
C1649  C     0.20782   0.62389   0.91825   0.00000  Uiso   1.00
C1650  C     0.24529   0.65367   0.90729   0.00000  Uiso   1.00
C1651  C     0.20911   0.41083   0.60784   0.00000  Uiso   1.00
C1652  C     0.22568   0.38389   0.64759   0.00000  Uiso   1.00
C1653  C     0.20125   0.35742   0.76313   0.00000  Uiso   1.00
C1654  C     0.27322   0.38433   0.64962   0.00000  Uiso   1.00
C1655  C     0.13193   0.64260   0.73748   0.00000  Uiso   1.00
C1656  C     0.13202   0.35716   0.73713   0.00000  Uiso   1.00
C1657  C     0.20138   0.64286   0.76272   0.00000  Uiso   1.00
C1658  C     0.02123   0.45943   0.75708   0.00000  Uiso   1.00
H1659  H     0.22890   0.37555   0.77380   0.00000  Uiso   1.00
H1660  H     0.21566   0.56830   0.51097   0.00000  Uiso   1.00
H1661  H     0.19889   0.63109   0.59062   0.00000  Uiso   1.00
H1662  H     0.22204   0.57541   0.59265   0.00000  Uiso   1.00
H1663  H     0.28073   0.60454   0.54499   0.00000  Uiso   1.00
H1664  H     0.27777   0.63053   0.59869   0.00000  Uiso   1.00
H1665  H     0.25964   0.66083   0.55019   0.00000  Uiso   1.00
H1666  H     0.24972   0.42955   0.52219   0.00000  Uiso   1.00
H1667  H     0.23537   0.48643   0.51024   0.00000  Uiso   1.00
H1668  H     0.27184   0.41895   0.94228   0.00000  Uiso   1.00
H1669  H     0.26324   0.47862   0.93374   0.00000  Uiso   1.00
H1670  H     0.10396   0.62452   0.72793   0.00000  Uiso   1.00
H1671  H     0.31479   0.49618   0.99467   0.00000  Uiso   1.00
H1672  H     0.00424   0.46365   0.95055   0.00000  Uiso   1.00
H1673  H     0.32409   0.43620   0.50170   0.00000  Uiso   1.00
H1674  H     0.06313   0.52308   0.98997   0.00000  Uiso   1.00
H1675  H     0.06963   0.51692   0.93116   0.00000  Uiso   1.00
H1676  H     0.04342   0.59706   0.92056   0.00000  Uiso   1.00
H1677  H     0.00607   0.55623   0.93933   0.00000  Uiso   1.00
H1678  H     0.01299   0.58310   0.51596   0.00000  Uiso   1.00
H1679  H     0.00054   0.62974   0.97972   0.00000  Uiso   1.00
H1680  H     0.05320   0.62301   0.50041   0.00000  Uiso   1.00
H1681  H     0.10428   0.37507   0.72673   0.00000  Uiso   1.00
H1682  H     0.07203   0.40967   0.50176   0.00000  Uiso   1.00
H1683  H     0.07198   0.44792   0.54691   0.00000  Uiso   1.00
H1684  H     0.09336   0.34573   0.55113   0.00000  Uiso   1.00
H1685  H     0.09361   0.38366   0.59778   0.00000  Uiso   1.00
H1686  H     0.01801   0.40070   0.58406   0.00000  Uiso   1.00
H1687  H     0.02727   0.34157   0.59485   0.00000  Uiso   1.00
H1688  H     0.01743   0.36047   0.53895   0.00000  Uiso   1.00
H1689  H     0.08566   0.60238   0.65623   0.00000  Uiso   1.00
H1690  H     0.09062   0.54238   0.65676   0.00000  Uiso   1.00
H1691  H     0.05855   0.60179   0.57958   0.00000  Uiso   1.00
H1692  H     0.22912   0.62494   0.77313   0.00000  Uiso   1.00
H1693  H     0.06401   0.54117   0.57662   0.00000  Uiso   1.00
H1694  H     0.01508   0.53223   0.64039   0.00000  Uiso   1.00
H1695  H     0.32492   0.55934   0.59324   0.00000  Uiso   1.00
H1696  H     0.00732   0.59298   0.64052   0.00000  Uiso   1.00
H1697  H     0.15389   0.36583   0.86516   0.00000  Uiso   1.00
H1698  H     0.12472   0.41665   0.86091   0.00000  Uiso   1.00
H1699  H     0.14319   0.37104   0.95059   0.00000  Uiso   1.00
H1700  H     0.10776   0.41662   0.93802   0.00000  Uiso   1.00
H1701  H     0.06576   0.36518   0.88907   0.00000  Uiso   1.00
H1702  H     0.06872   0.34587   0.94549   0.00000  Uiso   1.00
H1703  H     0.03739   0.42805   0.76410   0.00000  Uiso   1.00
H1704  H     0.10007   0.65228   0.90396   0.00000  Uiso   1.00
H1705  H     0.18413   0.62885   0.85146   0.00000  Uiso   1.00
H1706  H     0.21180   0.57807   0.86361   0.00000  Uiso   1.00
H1707  H     0.18401   0.64431   0.93519   0.00000  Uiso   1.00
H1708  H     0.21871   0.59629   0.94023   0.00000  Uiso   1.00
H1709  H     0.26978   0.63331   0.89101   0.00000  Uiso   1.00
H1710  H     0.25849   0.33484   0.93830   0.00000  Uiso   1.00
H1711  H     0.23587   0.34849   0.88504   0.00000  Uiso   1.00
H1712  H     0.22751   0.44304   0.60574   0.00000  Uiso   1.00
H1713  H     0.21448   0.39086   0.57736   0.00000  Uiso   1.00
H1714  H     0.29585   0.57156   0.73275   0.00000  Uiso   1.00
H1715  H     0.21436   0.39874   0.67871   0.00000  Uiso   1.00
H1716  H     0.21415   0.34849   0.64598   0.00000  Uiso   1.00
H1717  H     0.28622   0.37376   0.61750   0.00000  Uiso   1.00
H1718  H     0.28427   0.36077   0.67583   0.00000  Uiso   1.00
H1719  H     0.28479   0.41893   0.65753   0.00000  Uiso   1.00
H1720  H     0.29566   0.42812   0.76414   0.00000  Uiso   1.00
H1721  H     0.03772   0.57146   0.73260   0.00000  Uiso   1.00
H1722  H     0.20028   0.62668   0.50754   0.00000  Uiso   1.00
N1723  N     0.16667   0.61907   0.75000   0.00000  Uiso   1.00
N1724  N     0.16667   0.38093   0.75000   0.00000  Uiso   1.00
O1725  O     0.10559   0.53821   0.75000   0.00000  Uiso   1.00
O1726  O     0.19991   0.43440   0.97985   0.00000  Uiso   1.00
O1727  O     0.10827   0.56545   0.96357   0.00000  Uiso   1.00
O1728  O     0.13101   0.42184   0.52662   0.00000  Uiso   1.00
O1729  O     0.13275   0.57908   0.61724   0.00000  Uiso   1.00
O1730  O     0.18409   0.42096   0.89156   0.00000  Uiso   1.00
O1731  O     0.14899   0.58254   0.88526   0.00000  Uiso   1.00
O1732  O     0.16567   0.41806   0.61211   0.00000  Uiso   1.00
O1733  O     0.22774   0.46179   0.75001   0.00000  Uiso   1.00
O1734  O     0.22774   0.53821   0.75001   0.00000  Uiso   1.00
O1735  O     0.10559   0.46179   0.75000   0.00000  Uiso   1.00
O1736  O     0.16666   0.53822   0.68453   0.00000  Uiso   1.00
O1737  O     0.16667   0.46178   0.81547   0.00000  Uiso   1.00
O1738  O     0.16667   0.53822   0.81547   0.00000  Uiso   1.00
O1739  O     0.16666   0.46178   0.68453   0.00000  Uiso   1.00
O1740  O     0.15519   0.58497   0.53110   0.00000  Uiso   1.00
Zn1741 Zn    0.16667   0.55104   0.75000   0.00000  Uiso   1.00
Zn1742 Zn    0.16667   0.44896   0.75000   0.00000  Uiso   1.00
C1743  C     0.41997   0.49993   0.74962   0.00000  Uiso   1.00
C1744  C     0.64540   0.54023   0.73983   0.00000  Uiso   1.00
C1745  C     0.64526   0.45950   0.75714   0.00000  Uiso   1.00
C1746  C     0.35473   0.54016   0.73977   0.00000  Uiso   1.00
C1747  C     0.48391   0.54260   0.54984   0.00000  Uiso   1.00
C1748  C     0.51212   0.46731   0.95602   0.00000  Uiso   1.00
C1749  C     0.47317   0.53725   0.94976   0.00000  Uiso   1.00
C1750  C     0.47833   0.46060   0.54774   0.00000  Uiso   1.00
C1751  C     0.47816   0.54024   0.59513   0.00000  Uiso   1.00
C1752  C     0.50907   0.46269   0.91021   0.00000  Uiso   1.00
C1753  C     0.48722   0.54133   0.90660   0.00000  Uiso   1.00
C1754  C     0.58002   0.50004   0.74968   0.00000  Uiso   1.00
C1755  C     0.48893   0.45905   0.59251   0.00000  Uiso   1.00
C1756  C     0.48862   0.49966   0.61683   0.00000  Uiso   1.00
C1757  C     0.49965   0.50135   0.88468   0.00000  Uiso   1.00
C1758  C     0.48271   0.50204   0.52487   0.00000  Uiso   1.00
C1759  C     0.48901   0.50210   0.97653   0.00000  Uiso   1.00
C1760  C     0.62416   0.49997   0.74888   0.00000  Uiso   1.00
C1761  C     0.37582   0.49983   0.74875   0.00000  Uiso   1.00
C1762  C     0.53143   0.59562   0.52787   0.00000  Uiso   1.00
C1763  C     0.55197   0.60671   0.57259   0.00000  Uiso   1.00
C1764  C     0.59522   0.62703   0.56614   0.00000  Uiso   1.00
C1765  C     0.49755   0.49989   0.66403   0.00000  Uiso   1.00
C1766  C     0.57178   0.45212   0.99535   0.00000  Uiso   1.00
C1767  C     0.60463   0.45249   0.95883   0.00000  Uiso   1.00
C1768  C     0.64793   0.46282   0.97773   0.00000  Uiso   1.00
C1769  C     0.40316   0.54191   0.95895   0.00000  Uiso   1.00
C1770  C     0.36801   0.57531   0.94897   0.00000  Uiso   1.00
C1771  C     0.35820   0.60468   0.98884   0.00000  Uiso   1.00
C1772  C     0.42088   0.41687   0.53389   0.00000  Uiso   1.00
C1773  C     0.41259   0.37693   0.56490   0.00000  Uiso   1.00
C1774  C     0.36590   0.36948   0.57095   0.00000  Uiso   1.00
C1775  C     0.42569   0.57272   0.63506   0.00000  Uiso   1.00
C1776  C     0.50051   0.50015   0.83633   0.00000  Uiso   1.00
C1777  C     0.39158   0.57007   0.59918   0.00000  Uiso   1.00
C1778  C     0.34877   0.56336   0.61975   0.00000  Uiso   1.00
C1779  C     0.47939   0.39736   0.88302   0.00000  Uiso   1.00
C1780  C     0.45532   0.38526   0.92500   0.00000  Uiso   1.00
C1781  C     0.42032   0.35165   0.91510   0.00000  Uiso   1.00
C1782  C     0.52203   0.60237   0.87699   0.00000  Uiso   1.00
C1783  C     0.54116   0.62389   0.91825   0.00000  Uiso   1.00
C1784  C     0.57862   0.65367   0.90729   0.00000  Uiso   1.00
C1785  C     0.54245   0.41083   0.60784   0.00000  Uiso   1.00
C1786  C     0.55901   0.38389   0.64759   0.00000  Uiso   1.00
C1787  C     0.53458   0.35742   0.76313   0.00000  Uiso   1.00
C1788  C     0.60655   0.38433   0.64962   0.00000  Uiso   1.00
C1789  C     0.46526   0.64260   0.73748   0.00000  Uiso   1.00
C1790  C     0.46535   0.35716   0.73713   0.00000  Uiso   1.00
C1791  C     0.53471   0.64286   0.76272   0.00000  Uiso   1.00
C1792  C     0.35456   0.45943   0.75708   0.00000  Uiso   1.00
H1793  H     0.56224   0.37555   0.77380   0.00000  Uiso   1.00
H1794  H     0.54899   0.56830   0.51097   0.00000  Uiso   1.00
H1795  H     0.53222   0.63109   0.59062   0.00000  Uiso   1.00
H1796  H     0.55537   0.57541   0.59265   0.00000  Uiso   1.00
H1797  H     0.61406   0.60454   0.54499   0.00000  Uiso   1.00
H1798  H     0.61110   0.63053   0.59869   0.00000  Uiso   1.00
H1799  H     0.59298   0.66083   0.55019   0.00000  Uiso   1.00
H1800  H     0.58305   0.42955   0.52219   0.00000  Uiso   1.00
H1801  H     0.56870   0.48643   0.51024   0.00000  Uiso   1.00
H1802  H     0.60517   0.41895   0.94228   0.00000  Uiso   1.00
H1803  H     0.59658   0.47862   0.93374   0.00000  Uiso   1.00
H1804  H     0.43729   0.62452   0.72793   0.00000  Uiso   1.00
H1805  H     0.64812   0.49618   0.99467   0.00000  Uiso   1.00
H1806  H     0.33758   0.46365   0.95055   0.00000  Uiso   1.00
H1807  H     0.65742   0.43620   0.50170   0.00000  Uiso   1.00
H1808  H     0.39647   0.52308   0.98997   0.00000  Uiso   1.00
H1809  H     0.40296   0.51692   0.93116   0.00000  Uiso   1.00
H1810  H     0.37676   0.59706   0.92056   0.00000  Uiso   1.00
H1811  H     0.33941   0.55623   0.93933   0.00000  Uiso   1.00
H1812  H     0.34633   0.58310   0.51596   0.00000  Uiso   1.00
H1813  H     0.33388   0.62974   0.97972   0.00000  Uiso   1.00
H1814  H     0.38653   0.62301   0.50041   0.00000  Uiso   1.00
H1815  H     0.43761   0.37507   0.72673   0.00000  Uiso   1.00
H1816  H     0.40537   0.40967   0.50176   0.00000  Uiso   1.00
H1817  H     0.40531   0.44792   0.54691   0.00000  Uiso   1.00
H1818  H     0.42670   0.34573   0.55113   0.00000  Uiso   1.00
H1819  H     0.42694   0.38366   0.59778   0.00000  Uiso   1.00
H1820  H     0.35134   0.40070   0.58406   0.00000  Uiso   1.00
H1821  H     0.36061   0.34157   0.59485   0.00000  Uiso   1.00
H1822  H     0.35076   0.36047   0.53895   0.00000  Uiso   1.00
H1823  H     0.41900   0.60238   0.65623   0.00000  Uiso   1.00
H1824  H     0.42396   0.54238   0.65676   0.00000  Uiso   1.00
H1825  H     0.39189   0.60179   0.57958   0.00000  Uiso   1.00
H1826  H     0.56245   0.62494   0.77313   0.00000  Uiso   1.00
H1827  H     0.39735   0.54117   0.57662   0.00000  Uiso   1.00
H1828  H     0.34841   0.53223   0.64039   0.00000  Uiso   1.00
H1829  H     0.65825   0.55934   0.59324   0.00000  Uiso   1.00
H1830  H     0.34065   0.59298   0.64052   0.00000  Uiso   1.00
H1831  H     0.48722   0.36583   0.86516   0.00000  Uiso   1.00
H1832  H     0.45806   0.41665   0.86091   0.00000  Uiso   1.00
H1833  H     0.47653   0.37104   0.95059   0.00000  Uiso   1.00
H1834  H     0.44110   0.41662   0.93802   0.00000  Uiso   1.00
H1835  H     0.39909   0.36518   0.88907   0.00000  Uiso   1.00
H1836  H     0.40205   0.34587   0.94549   0.00000  Uiso   1.00
H1837  H     0.37073   0.42805   0.76410   0.00000  Uiso   1.00
H1838  H     0.43340   0.65228   0.90396   0.00000  Uiso   1.00
H1839  H     0.51746   0.62885   0.85146   0.00000  Uiso   1.00
H1840  H     0.54513   0.57807   0.86361   0.00000  Uiso   1.00
H1841  H     0.51734   0.64431   0.93519   0.00000  Uiso   1.00
H1842  H     0.55204   0.59629   0.94023   0.00000  Uiso   1.00
H1843  H     0.60311   0.63331   0.89101   0.00000  Uiso   1.00
H1844  H     0.59182   0.33484   0.93830   0.00000  Uiso   1.00
H1845  H     0.56921   0.34849   0.88504   0.00000  Uiso   1.00
H1846  H     0.56084   0.44304   0.60574   0.00000  Uiso   1.00
H1847  H     0.54781   0.39086   0.57736   0.00000  Uiso   1.00
H1848  H     0.62918   0.57156   0.73275   0.00000  Uiso   1.00
H1849  H     0.54769   0.39874   0.67871   0.00000  Uiso   1.00
H1850  H     0.54748   0.34849   0.64598   0.00000  Uiso   1.00
H1851  H     0.61956   0.37376   0.61750   0.00000  Uiso   1.00
H1852  H     0.61760   0.36077   0.67583   0.00000  Uiso   1.00
H1853  H     0.61812   0.41893   0.65753   0.00000  Uiso   1.00
H1854  H     0.62899   0.42812   0.76414   0.00000  Uiso   1.00
H1855  H     0.37106   0.57146   0.73260   0.00000  Uiso   1.00
H1856  H     0.53362   0.62668   0.50754   0.00000  Uiso   1.00
N1857  N     0.50000   0.61907   0.75000   0.00000  Uiso   1.00
N1858  N     0.50000   0.38093   0.75000   0.00000  Uiso   1.00
O1859  O     0.43892   0.53821   0.75000   0.00000  Uiso   1.00
O1860  O     0.53324   0.43440   0.97985   0.00000  Uiso   1.00
O1861  O     0.44160   0.56545   0.96357   0.00000  Uiso   1.00
O1862  O     0.46434   0.42184   0.52662   0.00000  Uiso   1.00
O1863  O     0.46608   0.57908   0.61724   0.00000  Uiso   1.00
O1864  O     0.51742   0.42096   0.89156   0.00000  Uiso   1.00
O1865  O     0.48232   0.58254   0.88526   0.00000  Uiso   1.00
O1866  O     0.49901   0.41806   0.61211   0.00000  Uiso   1.00
O1867  O     0.56108   0.46179   0.75001   0.00000  Uiso   1.00
O1868  O     0.56108   0.53821   0.75001   0.00000  Uiso   1.00
O1869  O     0.43892   0.46179   0.75000   0.00000  Uiso   1.00
O1870  O     0.50000   0.53822   0.68453   0.00000  Uiso   1.00
O1871  O     0.50000   0.46178   0.81547   0.00000  Uiso   1.00
O1872  O     0.50000   0.53822   0.81547   0.00000  Uiso   1.00
O1873  O     0.50000   0.46178   0.68453   0.00000  Uiso   1.00
O1874  O     0.48853   0.58497   0.53110   0.00000  Uiso   1.00
Zn1875 Zn    0.50000   0.55104   0.75000   0.00000  Uiso   1.00
Zn1876 Zn    0.50000   0.44896   0.75000   0.00000  Uiso   1.00
C1877  C     0.75330   0.49993   0.74962   0.00000  Uiso   1.00
C1878  C     0.97873   0.54023   0.73983   0.00000  Uiso   1.00
C1879  C     0.97860   0.45950   0.75714   0.00000  Uiso   1.00
C1880  C     0.68807   0.54016   0.73977   0.00000  Uiso   1.00
C1881  C     0.81725   0.54260   0.54984   0.00000  Uiso   1.00
C1882  C     0.84546   0.46731   0.95602   0.00000  Uiso   1.00
C1883  C     0.80651   0.53725   0.94976   0.00000  Uiso   1.00
C1884  C     0.81166   0.46060   0.54774   0.00000  Uiso   1.00
C1885  C     0.81149   0.54024   0.59513   0.00000  Uiso   1.00
C1886  C     0.84240   0.46269   0.91021   0.00000  Uiso   1.00
C1887  C     0.82055   0.54133   0.90660   0.00000  Uiso   1.00
C1888  C     0.91336   0.50004   0.74968   0.00000  Uiso   1.00
C1889  C     0.82227   0.45905   0.59251   0.00000  Uiso   1.00
C1890  C     0.82196   0.49966   0.61683   0.00000  Uiso   1.00
C1891  C     0.83298   0.50135   0.88468   0.00000  Uiso   1.00
C1892  C     0.81604   0.50204   0.52487   0.00000  Uiso   1.00
C1893  C     0.82234   0.50210   0.97653   0.00000  Uiso   1.00
C1894  C     0.95750   0.49997   0.74888   0.00000  Uiso   1.00
C1895  C     0.70915   0.49983   0.74875   0.00000  Uiso   1.00
C1896  C     0.86476   0.59562   0.52787   0.00000  Uiso   1.00
C1897  C     0.88530   0.60671   0.57259   0.00000  Uiso   1.00
C1898  C     0.92855   0.62703   0.56614   0.00000  Uiso   1.00
C1899  C     0.83088   0.49989   0.66403   0.00000  Uiso   1.00
C1900  C     0.90511   0.45212   0.99535   0.00000  Uiso   1.00
C1901  C     0.93796   0.45249   0.95883   0.00000  Uiso   1.00
C1902  C     0.98127   0.46282   0.97773   0.00000  Uiso   1.00
C1903  C     0.73650   0.54191   0.95895   0.00000  Uiso   1.00
C1904  C     0.70135   0.57531   0.94897   0.00000  Uiso   1.00
C1905  C     0.69154   0.60468   0.98884   0.00000  Uiso   1.00
C1906  C     0.75421   0.41687   0.53389   0.00000  Uiso   1.00
C1907  C     0.74592   0.37693   0.56490   0.00000  Uiso   1.00
C1908  C     0.69923   0.36948   0.57095   0.00000  Uiso   1.00
C1909  C     0.75903   0.57272   0.63506   0.00000  Uiso   1.00
C1910  C     0.83385   0.50015   0.83633   0.00000  Uiso   1.00
C1911  C     0.72491   0.57007   0.59918   0.00000  Uiso   1.00
C1912  C     0.68210   0.56336   0.61975   0.00000  Uiso   1.00
C1913  C     0.81273   0.39736   0.88302   0.00000  Uiso   1.00
C1914  C     0.78866   0.38526   0.92500   0.00000  Uiso   1.00
C1915  C     0.75366   0.35165   0.91510   0.00000  Uiso   1.00
C1916  C     0.85537   0.60237   0.87699   0.00000  Uiso   1.00
C1917  C     0.87449   0.62389   0.91825   0.00000  Uiso   1.00
C1918  C     0.91196   0.65367   0.90729   0.00000  Uiso   1.00
C1919  C     0.87578   0.41083   0.60784   0.00000  Uiso   1.00
C1920  C     0.89235   0.38389   0.64759   0.00000  Uiso   1.00
C1921  C     0.86792   0.35742   0.76313   0.00000  Uiso   1.00
C1922  C     0.93988   0.38433   0.64962   0.00000  Uiso   1.00
C1923  C     0.79859   0.64260   0.73748   0.00000  Uiso   1.00
C1924  C     0.79868   0.35716   0.73713   0.00000  Uiso   1.00
C1925  C     0.86804   0.64286   0.76272   0.00000  Uiso   1.00
C1926  C     0.68789   0.45943   0.75708   0.00000  Uiso   1.00
H1927  H     0.89557   0.37555   0.77380   0.00000  Uiso   1.00
H1928  H     0.88233   0.56830   0.51097   0.00000  Uiso   1.00
H1929  H     0.86556   0.63109   0.59062   0.00000  Uiso   1.00
H1930  H     0.88870   0.57541   0.59265   0.00000  Uiso   1.00
H1931  H     0.94740   0.60454   0.54499   0.00000  Uiso   1.00
H1932  H     0.94444   0.63053   0.59869   0.00000  Uiso   1.00
H1933  H     0.92631   0.66083   0.55019   0.00000  Uiso   1.00
H1934  H     0.91638   0.42955   0.52219   0.00000  Uiso   1.00
H1935  H     0.90204   0.48643   0.51024   0.00000  Uiso   1.00
H1936  H     0.93850   0.41895   0.94228   0.00000  Uiso   1.00
H1937  H     0.92991   0.47862   0.93374   0.00000  Uiso   1.00
H1938  H     0.77063   0.62452   0.72793   0.00000  Uiso   1.00
H1939  H     0.98146   0.49618   0.99467   0.00000  Uiso   1.00
H1940  H     0.67091   0.46365   0.95055   0.00000  Uiso   1.00
H1941  H     0.99076   0.43620   0.50170   0.00000  Uiso   1.00
H1942  H     0.72980   0.52308   0.98997   0.00000  Uiso   1.00
H1943  H     0.73629   0.51692   0.93116   0.00000  Uiso   1.00
H1944  H     0.71009   0.59706   0.92056   0.00000  Uiso   1.00
H1945  H     0.67274   0.55623   0.93933   0.00000  Uiso   1.00
H1946  H     0.67966   0.58310   0.51596   0.00000  Uiso   1.00
H1947  H     0.66721   0.62974   0.97972   0.00000  Uiso   1.00
H1948  H     0.71986   0.62301   0.50041   0.00000  Uiso   1.00
H1949  H     0.77094   0.37507   0.72673   0.00000  Uiso   1.00
H1950  H     0.73870   0.40967   0.50176   0.00000  Uiso   1.00
H1951  H     0.73865   0.44792   0.54691   0.00000  Uiso   1.00
H1952  H     0.76003   0.34573   0.55113   0.00000  Uiso   1.00
H1953  H     0.76028   0.38366   0.59778   0.00000  Uiso   1.00
H1954  H     0.68468   0.40070   0.58406   0.00000  Uiso   1.00
H1955  H     0.69394   0.34157   0.59485   0.00000  Uiso   1.00
H1956  H     0.68410   0.36047   0.53895   0.00000  Uiso   1.00
H1957  H     0.75233   0.60238   0.65623   0.00000  Uiso   1.00
H1958  H     0.75729   0.54238   0.65676   0.00000  Uiso   1.00
H1959  H     0.72522   0.60179   0.57958   0.00000  Uiso   1.00
H1960  H     0.89578   0.62494   0.77313   0.00000  Uiso   1.00
H1961  H     0.73068   0.54117   0.57662   0.00000  Uiso   1.00
H1962  H     0.68175   0.53223   0.64039   0.00000  Uiso   1.00
H1963  H     0.99159   0.55934   0.59324   0.00000  Uiso   1.00
H1964  H     0.67399   0.59298   0.64052   0.00000  Uiso   1.00
H1965  H     0.82056   0.36583   0.86516   0.00000  Uiso   1.00
H1966  H     0.79139   0.41665   0.86091   0.00000  Uiso   1.00
H1967  H     0.80986   0.37104   0.95059   0.00000  Uiso   1.00
H1968  H     0.77443   0.41662   0.93802   0.00000  Uiso   1.00
H1969  H     0.73242   0.36518   0.88907   0.00000  Uiso   1.00
H1970  H     0.73538   0.34587   0.94549   0.00000  Uiso   1.00
H1971  H     0.70406   0.42805   0.76410   0.00000  Uiso   1.00
H1972  H     0.76673   0.65228   0.90396   0.00000  Uiso   1.00
H1973  H     0.85079   0.62885   0.85146   0.00000  Uiso   1.00
H1974  H     0.87847   0.57807   0.86361   0.00000  Uiso   1.00
H1975  H     0.85067   0.64431   0.93519   0.00000  Uiso   1.00
H1976  H     0.88538   0.59629   0.94023   0.00000  Uiso   1.00
H1977  H     0.93645   0.63331   0.89101   0.00000  Uiso   1.00
H1978  H     0.92515   0.33484   0.93830   0.00000  Uiso   1.00
H1979  H     0.90254   0.34849   0.88504   0.00000  Uiso   1.00
H1980  H     0.89417   0.44304   0.60574   0.00000  Uiso   1.00
H1981  H     0.88114   0.39086   0.57736   0.00000  Uiso   1.00
H1982  H     0.96251   0.57156   0.73275   0.00000  Uiso   1.00
H1983  H     0.88103   0.39874   0.67871   0.00000  Uiso   1.00
H1984  H     0.88082   0.34849   0.64598   0.00000  Uiso   1.00
H1985  H     0.95289   0.37376   0.61750   0.00000  Uiso   1.00
H1986  H     0.95094   0.36077   0.67583   0.00000  Uiso   1.00
H1987  H     0.95145   0.41893   0.65753   0.00000  Uiso   1.00
H1988  H     0.96233   0.42812   0.76414   0.00000  Uiso   1.00
H1989  H     0.70439   0.57146   0.73260   0.00000  Uiso   1.00
H1990  H     0.86695   0.62668   0.50754   0.00000  Uiso   1.00
N1991  N     0.83333   0.61907   0.75000   0.00000  Uiso   1.00
N1992  N     0.83333   0.38093   0.75000   0.00000  Uiso   1.00
O1993  O     0.77226   0.53821   0.75000   0.00000  Uiso   1.00
O1994  O     0.86658   0.43440   0.97985   0.00000  Uiso   1.00
O1995  O     0.77494   0.56545   0.96357   0.00000  Uiso   1.00
O1996  O     0.79768   0.42184   0.52662   0.00000  Uiso   1.00
O1997  O     0.79942   0.57908   0.61724   0.00000  Uiso   1.00
O1998  O     0.85076   0.42096   0.89156   0.00000  Uiso   1.00
O1999  O     0.81566   0.58254   0.88526   0.00000  Uiso   1.00
O2000  O     0.83234   0.41806   0.61211   0.00000  Uiso   1.00
O2001  O     0.89441   0.46179   0.75001   0.00000  Uiso   1.00
O2002  O     0.89441   0.53821   0.75001   0.00000  Uiso   1.00
O2003  O     0.77226   0.46179   0.75000   0.00000  Uiso   1.00
O2004  O     0.83333   0.53822   0.68453   0.00000  Uiso   1.00
O2005  O     0.83334   0.46178   0.81547   0.00000  Uiso   1.00
O2006  O     0.83334   0.53822   0.81547   0.00000  Uiso   1.00
O2007  O     0.83333   0.46178   0.68453   0.00000  Uiso   1.00
O2008  O     0.82186   0.58497   0.53110   0.00000  Uiso   1.00
Zn2009 Zn    0.83333   0.55104   0.75000   0.00000  Uiso   1.00
Zn2010 Zn    0.83333   0.44896   0.75000   0.00000  Uiso   1.00
C2011  C     0.08664   0.83327   0.74962   0.00000  Uiso   1.00
C2012  C     0.31206   0.87356   0.73983   0.00000  Uiso   1.00
C2013  C     0.31193   0.79283   0.75714   0.00000  Uiso   1.00
C2014  C     0.02140   0.87349   0.73977   0.00000  Uiso   1.00
C2015  C     0.15058   0.87593   0.54984   0.00000  Uiso   1.00
C2016  C     0.17879   0.80065   0.95602   0.00000  Uiso   1.00
C2017  C     0.13984   0.87058   0.94976   0.00000  Uiso   1.00
C2018  C     0.14500   0.79393   0.54774   0.00000  Uiso   1.00
C2019  C     0.14482   0.87358   0.59513   0.00000  Uiso   1.00
C2020  C     0.17574   0.79602   0.91021   0.00000  Uiso   1.00
C2021  C     0.15388   0.87466   0.90660   0.00000  Uiso   1.00
C2022  C     0.24669   0.83338   0.74968   0.00000  Uiso   1.00
C2023  C     0.15560   0.79238   0.59251   0.00000  Uiso   1.00
C2024  C     0.15529   0.83300   0.61683   0.00000  Uiso   1.00
C2025  C     0.16631   0.83468   0.88468   0.00000  Uiso   1.00
C2026  C     0.14938   0.83538   0.52487   0.00000  Uiso   1.00
C2027  C     0.15567   0.83543   0.97653   0.00000  Uiso   1.00
C2028  C     0.29083   0.83330   0.74888   0.00000  Uiso   1.00
C2029  C     0.04249   0.83316   0.74875   0.00000  Uiso   1.00
C2030  C     0.19809   0.92895   0.52787   0.00000  Uiso   1.00
C2031  C     0.21863   0.94004   0.57259   0.00000  Uiso   1.00
C2032  C     0.26188   0.96036   0.56614   0.00000  Uiso   1.00
C2033  C     0.16421   0.83323   0.66403   0.00000  Uiso   1.00
C2034  C     0.23845   0.78545   0.99535   0.00000  Uiso   1.00
C2035  C     0.27130   0.78582   0.95883   0.00000  Uiso   1.00
C2036  C     0.31460   0.79615   0.97773   0.00000  Uiso   1.00
C2037  C     0.06983   0.87524   0.95895   0.00000  Uiso   1.00
C2038  C     0.03468   0.90864   0.94897   0.00000  Uiso   1.00
C2039  C     0.02487   0.93801   0.98884   0.00000  Uiso   1.00
C2040  C     0.08755   0.75020   0.53389   0.00000  Uiso   1.00
C2041  C     0.07926   0.71026   0.56490   0.00000  Uiso   1.00
C2042  C     0.03257   0.70282   0.57095   0.00000  Uiso   1.00
C2043  C     0.09236   0.90605   0.63506   0.00000  Uiso   1.00
C2044  C     0.16718   0.83349   0.83633   0.00000  Uiso   1.00
C2045  C     0.05824   0.90341   0.59918   0.00000  Uiso   1.00
C2046  C     0.01543   0.89669   0.61975   0.00000  Uiso   1.00
C2047  C     0.14606   0.73069   0.88302   0.00000  Uiso   1.00
C2048  C     0.12199   0.71859   0.92500   0.00000  Uiso   1.00
C2049  C     0.08699   0.68498   0.91510   0.00000  Uiso   1.00
C2050  C     0.18870   0.93571   0.87699   0.00000  Uiso   1.00
C2051  C     0.20782   0.95722   0.91825   0.00000  Uiso   1.00
C2052  C     0.24529   0.98701   0.90729   0.00000  Uiso   1.00
C2053  C     0.20911   0.74417   0.60784   0.00000  Uiso   1.00
C2054  C     0.22568   0.71722   0.64759   0.00000  Uiso   1.00
C2055  C     0.20125   0.69075   0.76313   0.00000  Uiso   1.00
C2056  C     0.27322   0.71766   0.64962   0.00000  Uiso   1.00
C2057  C     0.13193   0.97593   0.73748   0.00000  Uiso   1.00
C2058  C     0.13202   0.69049   0.73713   0.00000  Uiso   1.00
C2059  C     0.20138   0.97619   0.76272   0.00000  Uiso   1.00
C2060  C     0.02123   0.79276   0.75708   0.00000  Uiso   1.00
H2061  H     0.22890   0.70888   0.77380   0.00000  Uiso   1.00
H2062  H     0.21566   0.90163   0.51097   0.00000  Uiso   1.00
H2063  H     0.19889   0.96442   0.59062   0.00000  Uiso   1.00
H2064  H     0.22204   0.90874   0.59265   0.00000  Uiso   1.00
H2065  H     0.28073   0.93787   0.54499   0.00000  Uiso   1.00
H2066  H     0.27777   0.96386   0.59869   0.00000  Uiso   1.00
H2067  H     0.25964   0.99416   0.55019   0.00000  Uiso   1.00
H2068  H     0.24972   0.76289   0.52219   0.00000  Uiso   1.00
H2069  H     0.23537   0.81976   0.51024   0.00000  Uiso   1.00
H2070  H     0.27184   0.75228   0.94228   0.00000  Uiso   1.00
H2071  H     0.26324   0.81196   0.93374   0.00000  Uiso   1.00
H2072  H     0.10396   0.95785   0.72793   0.00000  Uiso   1.00
H2073  H     0.31479   0.82951   0.99467   0.00000  Uiso   1.00
H2074  H     0.00424   0.79698   0.95055   0.00000  Uiso   1.00
H2075  H     0.32409   0.76954   0.50170   0.00000  Uiso   1.00
H2076  H     0.06313   0.85641   0.98997   0.00000  Uiso   1.00
H2077  H     0.06963   0.85025   0.93116   0.00000  Uiso   1.00
H2078  H     0.04342   0.93039   0.92056   0.00000  Uiso   1.00
H2079  H     0.00607   0.88956   0.93933   0.00000  Uiso   1.00
H2080  H     0.01299   0.91644   0.51596   0.00000  Uiso   1.00
H2081  H     0.00054   0.96307   0.97972   0.00000  Uiso   1.00
H2082  H     0.05320   0.95634   0.50041   0.00000  Uiso   1.00
H2083  H     0.10428   0.70840   0.72673   0.00000  Uiso   1.00
H2084  H     0.07203   0.74300   0.50176   0.00000  Uiso   1.00
H2085  H     0.07198   0.78125   0.54691   0.00000  Uiso   1.00
H2086  H     0.09336   0.67906   0.55113   0.00000  Uiso   1.00
H2087  H     0.09361   0.71699   0.59778   0.00000  Uiso   1.00
H2088  H     0.01801   0.73403   0.58406   0.00000  Uiso   1.00
H2089  H     0.02727   0.67490   0.59485   0.00000  Uiso   1.00
H2090  H     0.01743   0.69381   0.53895   0.00000  Uiso   1.00
H2091  H     0.08566   0.93571   0.65623   0.00000  Uiso   1.00
H2092  H     0.09062   0.87571   0.65676   0.00000  Uiso   1.00
H2093  H     0.05855   0.93512   0.57958   0.00000  Uiso   1.00
H2094  H     0.22912   0.95828   0.77313   0.00000  Uiso   1.00
H2095  H     0.06401   0.87450   0.57662   0.00000  Uiso   1.00
H2096  H     0.01508   0.86557   0.64039   0.00000  Uiso   1.00
H2097  H     0.32492   0.89267   0.59324   0.00000  Uiso   1.00
H2098  H     0.00732   0.92631   0.64052   0.00000  Uiso   1.00
H2099  H     0.15389   0.69916   0.86516   0.00000  Uiso   1.00
H2100  H     0.12472   0.74998   0.86091   0.00000  Uiso   1.00
H2101  H     0.14319   0.70437   0.95059   0.00000  Uiso   1.00
H2102  H     0.10776   0.74995   0.93802   0.00000  Uiso   1.00
H2103  H     0.06576   0.69851   0.88907   0.00000  Uiso   1.00
H2104  H     0.06872   0.67920   0.94549   0.00000  Uiso   1.00
H2105  H     0.03739   0.76139   0.76410   0.00000  Uiso   1.00
H2106  H     0.10007   0.98561   0.90396   0.00000  Uiso   1.00
H2107  H     0.18413   0.96218   0.85146   0.00000  Uiso   1.00
H2108  H     0.21180   0.91141   0.86361   0.00000  Uiso   1.00
H2109  H     0.18401   0.97764   0.93519   0.00000  Uiso   1.00
H2110  H     0.21871   0.92962   0.94023   0.00000  Uiso   1.00
H2111  H     0.26978   0.96665   0.89101   0.00000  Uiso   1.00
H2112  H     0.25849   0.66817   0.93830   0.00000  Uiso   1.00
H2113  H     0.23587   0.68182   0.88504   0.00000  Uiso   1.00
H2114  H     0.22751   0.77637   0.60574   0.00000  Uiso   1.00
H2115  H     0.21448   0.72420   0.57736   0.00000  Uiso   1.00
H2116  H     0.29585   0.90490   0.73275   0.00000  Uiso   1.00
H2117  H     0.21436   0.73207   0.67871   0.00000  Uiso   1.00
H2118  H     0.21415   0.68182   0.64598   0.00000  Uiso   1.00
H2119  H     0.28622   0.70709   0.61750   0.00000  Uiso   1.00
H2120  H     0.28427   0.69411   0.67583   0.00000  Uiso   1.00
H2121  H     0.28479   0.75227   0.65753   0.00000  Uiso   1.00
H2122  H     0.29566   0.76146   0.76414   0.00000  Uiso   1.00
H2123  H     0.03772   0.90479   0.73260   0.00000  Uiso   1.00
H2124  H     0.20028   0.96002   0.50754   0.00000  Uiso   1.00
N2125  N     0.16667   0.95240   0.75000   0.00000  Uiso   1.00
N2126  N     0.16667   0.71427   0.75000   0.00000  Uiso   1.00
O2127  O     0.10559   0.87154   0.75000   0.00000  Uiso   1.00
O2128  O     0.19991   0.76773   0.97985   0.00000  Uiso   1.00
O2129  O     0.10827   0.89879   0.96357   0.00000  Uiso   1.00
O2130  O     0.13101   0.75517   0.52662   0.00000  Uiso   1.00
O2131  O     0.13275   0.91241   0.61724   0.00000  Uiso   1.00
O2132  O     0.18409   0.75429   0.89156   0.00000  Uiso   1.00
O2133  O     0.14899   0.91587   0.88526   0.00000  Uiso   1.00
O2134  O     0.16567   0.75139   0.61211   0.00000  Uiso   1.00
O2135  O     0.22774   0.79513   0.75001   0.00000  Uiso   1.00
O2136  O     0.22774   0.87154   0.75001   0.00000  Uiso   1.00
O2137  O     0.10559   0.79513   0.75000   0.00000  Uiso   1.00
O2138  O     0.16666   0.87155   0.68453   0.00000  Uiso   1.00
O2139  O     0.16667   0.79511   0.81547   0.00000  Uiso   1.00
O2140  O     0.16667   0.87155   0.81547   0.00000  Uiso   1.00
O2141  O     0.16666   0.79511   0.68453   0.00000  Uiso   1.00
O2142  O     0.15519   0.91830   0.53110   0.00000  Uiso   1.00
Zn2143 Zn    0.16667   0.88437   0.75000   0.00000  Uiso   1.00
Zn2144 Zn    0.16667   0.78229   0.75000   0.00000  Uiso   1.00
C2145  C     0.41997   0.83327   0.74962   0.00000  Uiso   1.00
C2146  C     0.64540   0.87356   0.73983   0.00000  Uiso   1.00
C2147  C     0.64526   0.79283   0.75714   0.00000  Uiso   1.00
C2148  C     0.35473   0.87349   0.73977   0.00000  Uiso   1.00
C2149  C     0.48391   0.87593   0.54984   0.00000  Uiso   1.00
C2150  C     0.51212   0.80065   0.95602   0.00000  Uiso   1.00
C2151  C     0.47317   0.87058   0.94976   0.00000  Uiso   1.00
C2152  C     0.47833   0.79393   0.54774   0.00000  Uiso   1.00
C2153  C     0.47816   0.87358   0.59513   0.00000  Uiso   1.00
C2154  C     0.50907   0.79602   0.91021   0.00000  Uiso   1.00
C2155  C     0.48722   0.87466   0.90660   0.00000  Uiso   1.00
C2156  C     0.58002   0.83338   0.74968   0.00000  Uiso   1.00
C2157  C     0.48893   0.79238   0.59251   0.00000  Uiso   1.00
C2158  C     0.48862   0.83300   0.61683   0.00000  Uiso   1.00
C2159  C     0.49965   0.83468   0.88468   0.00000  Uiso   1.00
C2160  C     0.48271   0.83538   0.52487   0.00000  Uiso   1.00
C2161  C     0.48901   0.83543   0.97653   0.00000  Uiso   1.00
C2162  C     0.62416   0.83330   0.74888   0.00000  Uiso   1.00
C2163  C     0.37582   0.83316   0.74875   0.00000  Uiso   1.00
C2164  C     0.53143   0.92895   0.52787   0.00000  Uiso   1.00
C2165  C     0.55197   0.94004   0.57259   0.00000  Uiso   1.00
C2166  C     0.59522   0.96036   0.56614   0.00000  Uiso   1.00
C2167  C     0.49755   0.83323   0.66403   0.00000  Uiso   1.00
C2168  C     0.57178   0.78545   0.99535   0.00000  Uiso   1.00
C2169  C     0.60463   0.78582   0.95883   0.00000  Uiso   1.00
C2170  C     0.64793   0.79615   0.97773   0.00000  Uiso   1.00
C2171  C     0.40316   0.87524   0.95895   0.00000  Uiso   1.00
C2172  C     0.36801   0.90864   0.94897   0.00000  Uiso   1.00
C2173  C     0.35820   0.93801   0.98884   0.00000  Uiso   1.00
C2174  C     0.42088   0.75020   0.53389   0.00000  Uiso   1.00
C2175  C     0.41259   0.71026   0.56490   0.00000  Uiso   1.00
C2176  C     0.36590   0.70282   0.57095   0.00000  Uiso   1.00
C2177  C     0.42569   0.90605   0.63506   0.00000  Uiso   1.00
C2178  C     0.50051   0.83349   0.83633   0.00000  Uiso   1.00
C2179  C     0.39158   0.90341   0.59918   0.00000  Uiso   1.00
C2180  C     0.34877   0.89669   0.61975   0.00000  Uiso   1.00
C2181  C     0.47939   0.73069   0.88302   0.00000  Uiso   1.00
C2182  C     0.45532   0.71859   0.92500   0.00000  Uiso   1.00
C2183  C     0.42032   0.68498   0.91510   0.00000  Uiso   1.00
C2184  C     0.52203   0.93571   0.87699   0.00000  Uiso   1.00
C2185  C     0.54116   0.95722   0.91825   0.00000  Uiso   1.00
C2186  C     0.57862   0.98701   0.90729   0.00000  Uiso   1.00
C2187  C     0.54245   0.74417   0.60784   0.00000  Uiso   1.00
C2188  C     0.55901   0.71722   0.64759   0.00000  Uiso   1.00
C2189  C     0.53458   0.69075   0.76313   0.00000  Uiso   1.00
C2190  C     0.60655   0.71766   0.64962   0.00000  Uiso   1.00
C2191  C     0.46526   0.97593   0.73748   0.00000  Uiso   1.00
C2192  C     0.46535   0.69049   0.73713   0.00000  Uiso   1.00
C2193  C     0.53471   0.97619   0.76272   0.00000  Uiso   1.00
C2194  C     0.35456   0.79276   0.75708   0.00000  Uiso   1.00
H2195  H     0.56224   0.70888   0.77380   0.00000  Uiso   1.00
H2196  H     0.54899   0.90163   0.51097   0.00000  Uiso   1.00
H2197  H     0.53222   0.96442   0.59062   0.00000  Uiso   1.00
H2198  H     0.55537   0.90874   0.59265   0.00000  Uiso   1.00
H2199  H     0.61406   0.93787   0.54499   0.00000  Uiso   1.00
H2200  H     0.61110   0.96386   0.59869   0.00000  Uiso   1.00
H2201  H     0.59298   0.99416   0.55019   0.00000  Uiso   1.00
H2202  H     0.58305   0.76289   0.52219   0.00000  Uiso   1.00
H2203  H     0.56870   0.81976   0.51024   0.00000  Uiso   1.00
H2204  H     0.60517   0.75228   0.94228   0.00000  Uiso   1.00
H2205  H     0.59658   0.81196   0.93374   0.00000  Uiso   1.00
H2206  H     0.43729   0.95785   0.72793   0.00000  Uiso   1.00
H2207  H     0.64812   0.82951   0.99467   0.00000  Uiso   1.00
H2208  H     0.33758   0.79698   0.95055   0.00000  Uiso   1.00
H2209  H     0.65742   0.76954   0.50170   0.00000  Uiso   1.00
H2210  H     0.39647   0.85641   0.98997   0.00000  Uiso   1.00
H2211  H     0.40296   0.85025   0.93116   0.00000  Uiso   1.00
H2212  H     0.37676   0.93039   0.92056   0.00000  Uiso   1.00
H2213  H     0.33941   0.88956   0.93933   0.00000  Uiso   1.00
H2214  H     0.34633   0.91644   0.51596   0.00000  Uiso   1.00
H2215  H     0.33388   0.96307   0.97972   0.00000  Uiso   1.00
H2216  H     0.38653   0.95634   0.50041   0.00000  Uiso   1.00
H2217  H     0.43761   0.70840   0.72673   0.00000  Uiso   1.00
H2218  H     0.40537   0.74300   0.50176   0.00000  Uiso   1.00
H2219  H     0.40531   0.78125   0.54691   0.00000  Uiso   1.00
H2220  H     0.42670   0.67906   0.55113   0.00000  Uiso   1.00
H2221  H     0.42694   0.71699   0.59778   0.00000  Uiso   1.00
H2222  H     0.35134   0.73403   0.58406   0.00000  Uiso   1.00
H2223  H     0.36061   0.67490   0.59485   0.00000  Uiso   1.00
H2224  H     0.35076   0.69381   0.53895   0.00000  Uiso   1.00
H2225  H     0.41900   0.93571   0.65623   0.00000  Uiso   1.00
H2226  H     0.42396   0.87571   0.65676   0.00000  Uiso   1.00
H2227  H     0.39189   0.93512   0.57958   0.00000  Uiso   1.00
H2228  H     0.56245   0.95828   0.77313   0.00000  Uiso   1.00
H2229  H     0.39735   0.87450   0.57662   0.00000  Uiso   1.00
H2230  H     0.34841   0.86557   0.64039   0.00000  Uiso   1.00
H2231  H     0.65825   0.89267   0.59324   0.00000  Uiso   1.00
H2232  H     0.34065   0.92631   0.64052   0.00000  Uiso   1.00
H2233  H     0.48722   0.69916   0.86516   0.00000  Uiso   1.00
H2234  H     0.45806   0.74998   0.86091   0.00000  Uiso   1.00
H2235  H     0.47653   0.70437   0.95059   0.00000  Uiso   1.00
H2236  H     0.44110   0.74995   0.93802   0.00000  Uiso   1.00
H2237  H     0.39909   0.69851   0.88907   0.00000  Uiso   1.00
H2238  H     0.40205   0.67920   0.94549   0.00000  Uiso   1.00
H2239  H     0.37073   0.76139   0.76410   0.00000  Uiso   1.00
H2240  H     0.43340   0.98561   0.90396   0.00000  Uiso   1.00
H2241  H     0.51746   0.96218   0.85146   0.00000  Uiso   1.00
H2242  H     0.54513   0.91141   0.86361   0.00000  Uiso   1.00
H2243  H     0.51734   0.97764   0.93519   0.00000  Uiso   1.00
H2244  H     0.55204   0.92962   0.94023   0.00000  Uiso   1.00
H2245  H     0.60311   0.96665   0.89101   0.00000  Uiso   1.00
H2246  H     0.59182   0.66817   0.93830   0.00000  Uiso   1.00
H2247  H     0.56921   0.68182   0.88504   0.00000  Uiso   1.00
H2248  H     0.56084   0.77637   0.60574   0.00000  Uiso   1.00
H2249  H     0.54781   0.72420   0.57736   0.00000  Uiso   1.00
H2250  H     0.62918   0.90490   0.73275   0.00000  Uiso   1.00
H2251  H     0.54769   0.73207   0.67871   0.00000  Uiso   1.00
H2252  H     0.54748   0.68182   0.64598   0.00000  Uiso   1.00
H2253  H     0.61956   0.70709   0.61750   0.00000  Uiso   1.00
H2254  H     0.61760   0.69411   0.67583   0.00000  Uiso   1.00
H2255  H     0.61812   0.75227   0.65753   0.00000  Uiso   1.00
H2256  H     0.62899   0.76146   0.76414   0.00000  Uiso   1.00
H2257  H     0.37106   0.90479   0.73260   0.00000  Uiso   1.00
H2258  H     0.53362   0.96002   0.50754   0.00000  Uiso   1.00
N2259  N     0.50000   0.95240   0.75000   0.00000  Uiso   1.00
N2260  N     0.50000   0.71427   0.75000   0.00000  Uiso   1.00
O2261  O     0.43892   0.87154   0.75000   0.00000  Uiso   1.00
O2262  O     0.53324   0.76773   0.97985   0.00000  Uiso   1.00
O2263  O     0.44160   0.89879   0.96357   0.00000  Uiso   1.00
O2264  O     0.46434   0.75517   0.52662   0.00000  Uiso   1.00
O2265  O     0.46608   0.91241   0.61724   0.00000  Uiso   1.00
O2266  O     0.51742   0.75429   0.89156   0.00000  Uiso   1.00
O2267  O     0.48232   0.91587   0.88526   0.00000  Uiso   1.00
O2268  O     0.49901   0.75139   0.61211   0.00000  Uiso   1.00
O2269  O     0.56108   0.79513   0.75001   0.00000  Uiso   1.00
O2270  O     0.56108   0.87154   0.75001   0.00000  Uiso   1.00
O2271  O     0.43892   0.79513   0.75000   0.00000  Uiso   1.00
O2272  O     0.50000   0.87155   0.68453   0.00000  Uiso   1.00
O2273  O     0.50000   0.79511   0.81547   0.00000  Uiso   1.00
O2274  O     0.50000   0.87155   0.81547   0.00000  Uiso   1.00
O2275  O     0.50000   0.79511   0.68453   0.00000  Uiso   1.00
O2276  O     0.48853   0.91830   0.53110   0.00000  Uiso   1.00
Zn2277 Zn    0.50000   0.88437   0.75000   0.00000  Uiso   1.00
Zn2278 Zn    0.50000   0.78229   0.75000   0.00000  Uiso   1.00
C2279  C     0.75330   0.83327   0.74962   0.00000  Uiso   1.00
C2280  C     0.97873   0.87356   0.73983   0.00000  Uiso   1.00
C2281  C     0.97860   0.79283   0.75714   0.00000  Uiso   1.00
C2282  C     0.68807   0.87349   0.73977   0.00000  Uiso   1.00
C2283  C     0.81725   0.87593   0.54984   0.00000  Uiso   1.00
C2284  C     0.84546   0.80065   0.95602   0.00000  Uiso   1.00
C2285  C     0.80651   0.87058   0.94976   0.00000  Uiso   1.00
C2286  C     0.81166   0.79393   0.54774   0.00000  Uiso   1.00
C2287  C     0.81149   0.87358   0.59513   0.00000  Uiso   1.00
C2288  C     0.84240   0.79602   0.91021   0.00000  Uiso   1.00
C2289  C     0.82055   0.87466   0.90660   0.00000  Uiso   1.00
C2290  C     0.91336   0.83338   0.74968   0.00000  Uiso   1.00
C2291  C     0.82227   0.79238   0.59251   0.00000  Uiso   1.00
C2292  C     0.82196   0.83300   0.61683   0.00000  Uiso   1.00
C2293  C     0.83298   0.83468   0.88468   0.00000  Uiso   1.00
C2294  C     0.81604   0.83538   0.52487   0.00000  Uiso   1.00
C2295  C     0.82234   0.83543   0.97653   0.00000  Uiso   1.00
C2296  C     0.95750   0.83330   0.74888   0.00000  Uiso   1.00
C2297  C     0.70915   0.83316   0.74875   0.00000  Uiso   1.00
C2298  C     0.86476   0.92895   0.52787   0.00000  Uiso   1.00
C2299  C     0.88530   0.94004   0.57259   0.00000  Uiso   1.00
C2300  C     0.92855   0.96036   0.56614   0.00000  Uiso   1.00
C2301  C     0.83088   0.83323   0.66403   0.00000  Uiso   1.00
C2302  C     0.90511   0.78545   0.99535   0.00000  Uiso   1.00
C2303  C     0.93796   0.78582   0.95883   0.00000  Uiso   1.00
C2304  C     0.98127   0.79615   0.97773   0.00000  Uiso   1.00
C2305  C     0.73650   0.87524   0.95895   0.00000  Uiso   1.00
C2306  C     0.70135   0.90864   0.94897   0.00000  Uiso   1.00
C2307  C     0.69154   0.93801   0.98884   0.00000  Uiso   1.00
C2308  C     0.75421   0.75020   0.53389   0.00000  Uiso   1.00
C2309  C     0.74592   0.71026   0.56490   0.00000  Uiso   1.00
C2310  C     0.69923   0.70282   0.57095   0.00000  Uiso   1.00
C2311  C     0.75903   0.90605   0.63506   0.00000  Uiso   1.00
C2312  C     0.83385   0.83349   0.83633   0.00000  Uiso   1.00
C2313  C     0.72491   0.90341   0.59918   0.00000  Uiso   1.00
C2314  C     0.68210   0.89669   0.61975   0.00000  Uiso   1.00
C2315  C     0.81273   0.73069   0.88302   0.00000  Uiso   1.00
C2316  C     0.78866   0.71859   0.92500   0.00000  Uiso   1.00
C2317  C     0.75366   0.68498   0.91510   0.00000  Uiso   1.00
C2318  C     0.85537   0.93571   0.87699   0.00000  Uiso   1.00
C2319  C     0.87449   0.95722   0.91825   0.00000  Uiso   1.00
C2320  C     0.91196   0.98701   0.90729   0.00000  Uiso   1.00
C2321  C     0.87578   0.74417   0.60784   0.00000  Uiso   1.00
C2322  C     0.89235   0.71722   0.64759   0.00000  Uiso   1.00
C2323  C     0.86792   0.69075   0.76313   0.00000  Uiso   1.00
C2324  C     0.93988   0.71766   0.64962   0.00000  Uiso   1.00
C2325  C     0.79859   0.97593   0.73748   0.00000  Uiso   1.00
C2326  C     0.79868   0.69049   0.73713   0.00000  Uiso   1.00
C2327  C     0.86804   0.97619   0.76272   0.00000  Uiso   1.00
C2328  C     0.68789   0.79276   0.75708   0.00000  Uiso   1.00
H2329  H     0.89557   0.70888   0.77380   0.00000  Uiso   1.00
H2330  H     0.88233   0.90163   0.51097   0.00000  Uiso   1.00
H2331  H     0.86556   0.96442   0.59062   0.00000  Uiso   1.00
H2332  H     0.88870   0.90874   0.59265   0.00000  Uiso   1.00
H2333  H     0.94740   0.93787   0.54499   0.00000  Uiso   1.00
H2334  H     0.94444   0.96386   0.59869   0.00000  Uiso   1.00
H2335  H     0.92631   0.99416   0.55019   0.00000  Uiso   1.00
H2336  H     0.91638   0.76289   0.52219   0.00000  Uiso   1.00
H2337  H     0.90204   0.81976   0.51024   0.00000  Uiso   1.00
H2338  H     0.93850   0.75228   0.94228   0.00000  Uiso   1.00
H2339  H     0.92991   0.81196   0.93374   0.00000  Uiso   1.00
H2340  H     0.77063   0.95785   0.72793   0.00000  Uiso   1.00
H2341  H     0.98146   0.82951   0.99467   0.00000  Uiso   1.00
H2342  H     0.67091   0.79698   0.95055   0.00000  Uiso   1.00
H2343  H     0.99076   0.76954   0.50170   0.00000  Uiso   1.00
H2344  H     0.72980   0.85641   0.98997   0.00000  Uiso   1.00
H2345  H     0.73629   0.85025   0.93116   0.00000  Uiso   1.00
H2346  H     0.71009   0.93039   0.92056   0.00000  Uiso   1.00
H2347  H     0.67274   0.88956   0.93933   0.00000  Uiso   1.00
H2348  H     0.67966   0.91644   0.51596   0.00000  Uiso   1.00
H2349  H     0.66721   0.96307   0.97972   0.00000  Uiso   1.00
H2350  H     0.71986   0.95634   0.50041   0.00000  Uiso   1.00
H2351  H     0.77094   0.70840   0.72673   0.00000  Uiso   1.00
H2352  H     0.73870   0.74300   0.50176   0.00000  Uiso   1.00
H2353  H     0.73865   0.78125   0.54691   0.00000  Uiso   1.00
H2354  H     0.76003   0.67906   0.55113   0.00000  Uiso   1.00
H2355  H     0.76028   0.71699   0.59778   0.00000  Uiso   1.00
H2356  H     0.68468   0.73403   0.58406   0.00000  Uiso   1.00
H2357  H     0.69394   0.67490   0.59485   0.00000  Uiso   1.00
H2358  H     0.68410   0.69381   0.53895   0.00000  Uiso   1.00
H2359  H     0.75233   0.93571   0.65623   0.00000  Uiso   1.00
H2360  H     0.75729   0.87571   0.65676   0.00000  Uiso   1.00
H2361  H     0.72522   0.93512   0.57958   0.00000  Uiso   1.00
H2362  H     0.89578   0.95828   0.77313   0.00000  Uiso   1.00
H2363  H     0.73068   0.87450   0.57662   0.00000  Uiso   1.00
H2364  H     0.68175   0.86557   0.64039   0.00000  Uiso   1.00
H2365  H     0.99159   0.89267   0.59324   0.00000  Uiso   1.00
H2366  H     0.67399   0.92631   0.64052   0.00000  Uiso   1.00
H2367  H     0.82056   0.69916   0.86516   0.00000  Uiso   1.00
H2368  H     0.79139   0.74998   0.86091   0.00000  Uiso   1.00
H2369  H     0.80986   0.70437   0.95059   0.00000  Uiso   1.00
H2370  H     0.77443   0.74995   0.93802   0.00000  Uiso   1.00
H2371  H     0.73242   0.69851   0.88907   0.00000  Uiso   1.00
H2372  H     0.73538   0.67920   0.94549   0.00000  Uiso   1.00
H2373  H     0.70406   0.76139   0.76410   0.00000  Uiso   1.00
H2374  H     0.76673   0.98561   0.90396   0.00000  Uiso   1.00
H2375  H     0.85079   0.96218   0.85146   0.00000  Uiso   1.00
H2376  H     0.87847   0.91141   0.86361   0.00000  Uiso   1.00
H2377  H     0.85067   0.97764   0.93519   0.00000  Uiso   1.00
H2378  H     0.88538   0.92962   0.94023   0.00000  Uiso   1.00
H2379  H     0.93645   0.96665   0.89101   0.00000  Uiso   1.00
H2380  H     0.92515   0.66817   0.93830   0.00000  Uiso   1.00
H2381  H     0.90254   0.68182   0.88504   0.00000  Uiso   1.00
H2382  H     0.89417   0.77637   0.60574   0.00000  Uiso   1.00
H2383  H     0.88114   0.72420   0.57736   0.00000  Uiso   1.00
H2384  H     0.96251   0.90490   0.73275   0.00000  Uiso   1.00
H2385  H     0.88103   0.73207   0.67871   0.00000  Uiso   1.00
H2386  H     0.88082   0.68182   0.64598   0.00000  Uiso   1.00
H2387  H     0.95289   0.70709   0.61750   0.00000  Uiso   1.00
H2388  H     0.95094   0.69411   0.67583   0.00000  Uiso   1.00
H2389  H     0.95145   0.75227   0.65753   0.00000  Uiso   1.00
H2390  H     0.96233   0.76146   0.76414   0.00000  Uiso   1.00
H2391  H     0.70439   0.90479   0.73260   0.00000  Uiso   1.00
H2392  H     0.86695   0.96002   0.50754   0.00000  Uiso   1.00
N2393  N     0.83333   0.95240   0.75000   0.00000  Uiso   1.00
N2394  N     0.83333   0.71427   0.75000   0.00000  Uiso   1.00
O2395  O     0.77226   0.87154   0.75000   0.00000  Uiso   1.00
O2396  O     0.86658   0.76773   0.97985   0.00000  Uiso   1.00
O2397  O     0.77494   0.89879   0.96357   0.00000  Uiso   1.00
O2398  O     0.79768   0.75517   0.52662   0.00000  Uiso   1.00
O2399  O     0.79942   0.91241   0.61724   0.00000  Uiso   1.00
O2400  O     0.85076   0.75429   0.89156   0.00000  Uiso   1.00
O2401  O     0.81566   0.91587   0.88526   0.00000  Uiso   1.00
O2402  O     0.83234   0.75139   0.61211   0.00000  Uiso   1.00
O2403  O     0.89441   0.79513   0.75001   0.00000  Uiso   1.00
O2404  O     0.89441   0.87154   0.75001   0.00000  Uiso   1.00
O2405  O     0.77226   0.79513   0.75000   0.00000  Uiso   1.00
O2406  O     0.83333   0.87155   0.68453   0.00000  Uiso   1.00
O2407  O     0.83334   0.79511   0.81547   0.00000  Uiso   1.00
O2408  O     0.83334   0.87155   0.81547   0.00000  Uiso   1.00
O2409  O     0.83333   0.79511   0.68453   0.00000  Uiso   1.00
O2410  O     0.82186   0.91830   0.53110   0.00000  Uiso   1.00
Zn2411 Zn    0.83333   0.88437   0.75000   0.00000  Uiso   1.00
Zn2412 Zn    0.83333   0.78229   0.75000   0.00000  Uiso   1.00
loop_
_geom_bond_atom_site_label_1
_geom_bond_atom_site_label_2
_geom_bond_distance
_geom_bond_site_symmetry_2
_ccdc_geom_bond_type
C1     C19     1.417   .     S
C1     O117    1.281   .     A
C1     O127    1.282   .     A
C2     C18     1.396   .     A
C2     H106    1.084   .     S
C2     C138    1.369   .     S
C3     C18     1.397   .     A
C3     H112    1.084   .     S
C3     C184    1.368   .     S
C4     C19     1.397   .     A
C4     H113    1.083   .     S
C4     C270    1.369   1_455 S
C5     C16     1.417   .     A
C5     O132    1.381   .     S
C5     C9      1.386   .     A
C6     C17     1.417   .     A
C6     C10     1.395   .     A
C6     O118    1.385   .     S
C7     C11     1.390   .     A
C7     C17     1.409   .     A
C7     O119    1.383   .     S
C8     C13     1.393   .     A
C8     C16     1.413   .     A
C8     O120    1.382   .     S
C9     O121    1.387   .     S
C9     C14     1.406   .     A
C10    C15     1.410   .     A
C10    O122    1.384   .     S
C11    C15     1.416   .     A
C11    O123    1.386   .     S
C12    O125    1.281   .     A
C12    O126    1.283   .     A
C12    C18     1.417   .     S
C13    C14     1.408   .     A
C13    O124    1.386   .     S
C14    C23     1.453   .     S
C15    C34     1.463   .     S
C16    C1223   1.478   1_554 S
C17    C1222   1.478   .     S
C19    C50     1.396   .     A
C20    O132    1.415   .     S
C20    H52     1.114   .     S
C20    H114    1.106   .     S
C20    C21     1.533   .     S
C21    H53     1.109   .     S
C21    C22     1.524   .     S
C21    H54     1.110   .     S
C22    H57     1.111   .     S
C22    H56     1.109   .     S
C22    H55     1.108   .     S
C23    O131    1.287   .     A
C23    O128    1.293   .     A
C24    C25     1.535   .     S
C24    O118    1.416   .     S
C24    H1264   1.108   .     S
C24    H1265   1.115   .     S
C25    H60     1.111   .     S
C25    H61     1.111   .     S
C25    C26     1.526   .     S
C26    H63     1.111   .     S
C26    H198    1.110   .     S
C26    H1271   1.110   .     S
C27    O119    1.419   .     S
C27    H66     1.112   .     S
C27    H67     1.119   .     S
C27    C28     1.529   .     S
C28    H69     1.111   .     S
C28    C29     1.522   .     S
C28    H68     1.110   .     S
C29    H71     1.110   .     S
C29    H1276   1.108   .     S
C29    H1278   1.110   .     S
C30    H74     1.108   .     S
C30    H75     1.120   .     S
C30    C31     1.531   .     S
C30    O120    1.421   .     S
C31    H77     1.109   .     S
C31    C32     1.526   .     S
C31    H76     1.112   .     S
C32    H80     1.110   .     S
C32    H79     1.110   .     S
C32    H78     1.111   .     S
C33    H82     1.112   .     S
C33    O121    1.420   .     S
C33    C35     1.535   .     S
C33    H81     1.109   .     S
C34    O129    1.298   .     A
C34    O130    1.289   .     A
C35    C36     1.526   .     S
C35    H83     1.108   .     S
C35    H85     1.111   .     S
C36    H88     1.111   .     S
C36    H86     1.111   .     S
C36    H355    1.108   1_455 S
C37    H90     1.111   .     S
C37    C38     1.534   .     S
C37    H89     1.108   .     S
C37    O122    1.424   .     S
C38    C39     1.523   .     S
C38    H92     1.109   .     S
C38    H91     1.108   .     S
C39    H93     1.111   .     S
C39    H94     1.108   .     S
C39    H900    1.109   1_545 S
C40    H98     1.113   .     S
C40    O123    1.425   .     S
C40    H97     1.108   .     S
C40    C41     1.523   .     S
C41    C42     1.526   .     S
C41    H99     1.106   .     S
C41    H100    1.107   .     S
C42    H101    1.111   .     S
C42    H504    1.110   .     S
C42    H505    1.110   .     S
C43    H105    1.110   .     S
C43    H104    1.119   .     S
C43    C44     1.533   .     S
C43    O124    1.418   .     S
C44    C46     1.526   .     S
C44    H108    1.109   .     S
C44    H107    1.104   .     S
C45    H51     1.081   .     S
C45    N116    1.367   .     A
C45    C853    1.415   1_545 S
C46    H110    1.111   .     S
C46    H109    1.107   .     S
C46    H111    1.111   .     S
C47    H62     1.079   .     S
C47    N115    1.366   .     A
C47    C450    1.415   .     S
C48    N116    1.366   .     A
C48    H73     1.081   .     S
C48    C851    1.415   1_545 S
C49    H84     1.081   .     S
C49    N115    1.366   .     A
C49    C447    1.415   .     S
C50    H95     1.084   .     S
C50    C271    1.368   1_455 S
H58    C1230   1.108   1_554 S
H59    C1230   1.115   1_554 S
H64    C294    1.110   1_455 S
H65    C1232   1.110   1_554 S
H70    C1235   1.108   1_554 S
H72    C1235   1.110   1_554 S
H87    C170    1.108   .     S
H96    C441    1.109   .     S
H102   C846    1.110   1_545 S
H103   C846    1.110   1_545 S
N115   Zn133   2.009   .     S
N116   Zn134   2.009   .     S
O117   Zn133   1.995   .     S
O125   Zn134   1.995   .     S
O126   Zn133   1.998   .     S
O127   Zn134   1.998   .     S
O128   Zn133   2.016   .     S
O129   Zn134   2.016   .     S
O130   Zn133   2.016   .     S
O131   Zn134   2.016   .     S
C135   C153    1.417   .     S
C135   O251    1.281   .     A
C135   O261    1.282   .     A
C136   C152    1.396   .     A
C136   H240    1.084   .     S
C136   C272    1.369   .     S
C137   C152    1.397   .     A
C137   H246    1.084   .     S
C137   C318    1.368   .     S
C138   C153    1.397   .     A
C138   H247    1.083   .     S
C139   C150    1.417   .     A
C139   O266    1.381   .     S
C139   C143    1.386   .     A
C140   C151    1.417   .     A
C140   C144    1.395   .     A
C140   O252    1.385   .     S
C141   C145    1.390   .     A
C141   C151    1.409   .     A
C141   O253    1.383   .     S
C142   C147    1.393   .     A
C142   C150    1.413   .     A
C142   O254    1.382   .     S
C143   O255    1.387   .     S
C143   C148    1.406   .     A
C144   C149    1.410   .     A
C144   O256    1.384   .     S
C145   C149    1.416   .     A
C145   O257    1.386   .     S
C146   O259    1.281   .     A
C146   O260    1.283   .     A
C146   C152    1.417   .     S
C147   C148    1.408   .     A
C147   O258    1.386   .     S
C148   C157    1.453   .     S
C149   C168    1.463   .     S
C150   C1357   1.478   1_554 S
C151   C1356   1.478   .     S
C153   C184    1.396   .     A
C154   O266    1.415   .     S
C154   H186    1.114   .     S
C154   H248    1.106   .     S
C154   C155    1.533   .     S
C155   H187    1.109   .     S
C155   C156    1.524   .     S
C155   H188    1.110   .     S
C156   H191    1.111   .     S
C156   H190    1.109   .     S
C156   H189    1.108   .     S
C157   O265    1.287   .     A
C157   O262    1.293   .     A
C158   C159    1.535   .     S
C158   O252    1.416   .     S
C158   H1398   1.108   .     S
C158   H1399   1.115   .     S
C159   H194    1.111   .     S
C159   H195    1.111   .     S
C159   C160    1.526   .     S
C160   H197    1.111   .     S
C160   H332    1.110   .     S
C160   H1405   1.110   .     S
C161   O253    1.419   .     S
C161   H200    1.112   .     S
C161   H201    1.119   .     S
C161   C162    1.529   .     S
C162   H203    1.111   .     S
C162   C163    1.522   .     S
C162   H202    1.110   .     S
C163   H205    1.110   .     S
C163   H1410   1.108   .     S
C163   H1412   1.110   .     S
C164   H208    1.108   .     S
C164   H209    1.120   .     S
C164   C165    1.531   .     S
C164   O254    1.421   .     S
C165   H211    1.109   .     S
C165   C166    1.526   .     S
C165   H210    1.112   .     S
C166   H214    1.110   .     S
C166   H213    1.110   .     S
C166   H212    1.111   .     S
C167   H216    1.112   .     S
C167   O255    1.420   .     S
C167   C169    1.535   .     S
C167   H215    1.109   .     S
C168   O263    1.298   .     A
C168   O264    1.289   .     A
C169   C170    1.526   .     S
C169   H217    1.108   .     S
C169   H219    1.111   .     S
C170   H222    1.111   .     S
C170   H220    1.111   .     S
C171   H224    1.111   .     S
C171   C172    1.534   .     S
C171   H223    1.108   .     S
C171   O256    1.424   .     S
C172   C173    1.523   .     S
C172   H226    1.109   .     S
C172   H225    1.108   .     S
C173   H227    1.111   .     S
C173   H228    1.108   .     S
C173   H1034   1.109   1_545 S
C174   H232    1.113   .     S
C174   O257    1.425   .     S
C174   H231    1.108   .     S
C174   C175    1.523   .     S
C175   C176    1.526   .     S
C175   H233    1.106   .     S
C175   H234    1.107   .     S
C176   H235    1.111   .     S
C176   H638    1.110   .     S
C176   H639    1.110   .     S
C177   H239    1.110   .     S
C177   H238    1.119   .     S
C177   C178    1.533   .     S
C177   O258    1.418   .     S
C178   C180    1.526   .     S
C178   H242    1.109   .     S
C178   H241    1.104   .     S
C179   H185    1.081   .     S
C179   N250    1.367   .     A
C179   C987    1.415   1_545 S
C180   H244    1.111   .     S
C180   H243    1.107   .     S
C180   H245    1.111   .     S
C181   H196    1.079   .     S
C181   N249    1.366   .     A
C181   C584    1.415   .     S
C182   N250    1.366   .     A
C182   H207    1.081   .     S
C182   C985    1.415   1_545 S
C183   H218    1.081   .     S
C183   N249    1.366   .     A
C183   C581    1.415   .     S
C184   H229    1.084   .     S
H192   C1364   1.108   1_554 S
H193   C1364   1.115   1_554 S
H199   C1366   1.110   1_554 S
H204   C1369   1.108   1_554 S
H206   C1369   1.110   1_554 S
H221   C304    1.108   .     S
H230   C575    1.109   .     S
H236   C980    1.110   1_545 S
H237   C980    1.110   1_545 S
N249   Zn267   2.009   .     S
N250   Zn268   2.009   .     S
O251   Zn267   1.995   .     S
O259   Zn268   1.995   .     S
O260   Zn267   1.998   .     S
O261   Zn268   1.998   .     S
O262   Zn267   2.016   .     S
O263   Zn268   2.016   .     S
O264   Zn267   2.016   .     S
O265   Zn268   2.016   .     S
C269   C287    1.417   .     S
C269   O385    1.281   .     A
C269   O395    1.282   .     A
C270   C286    1.396   .     A
C270   H374    1.084   .     S
C270   C4      1.369   1_655 S
C271   C286    1.397   .     A
C271   H380    1.084   .     S
C271   C50     1.368   1_655 S
C272   C287    1.397   .     A
C272   H381    1.083   .     S
C273   C284    1.417   .     A
C273   O400    1.381   .     S
C273   C277    1.386   .     A
C274   C285    1.417   .     A
C274   C278    1.395   .     A
C274   O386    1.385   .     S
C275   C279    1.390   .     A
C275   C285    1.409   .     A
C275   O387    1.383   .     S
C276   C281    1.393   .     A
C276   C284    1.413   .     A
C276   O388    1.382   .     S
C277   O389    1.387   .     S
C277   C282    1.406   .     A
C278   C283    1.410   .     A
C278   O390    1.384   .     S
C279   C283    1.416   .     A
C279   O391    1.386   .     S
C280   O393    1.281   .     A
C280   O394    1.283   .     A
C280   C286    1.417   .     S
C281   C282    1.408   .     A
C281   O392    1.386   .     S
C282   C291    1.453   .     S
C283   C302    1.463   .     S
C284   C1491   1.478   1_554 S
C285   C1490   1.478   .     S
C287   C318    1.396   .     A
C288   O400    1.415   .     S
C288   H320    1.114   .     S
C288   H382    1.106   .     S
C288   C289    1.533   .     S
C289   H321    1.109   .     S
C289   C290    1.524   .     S
C289   H322    1.110   .     S
C290   H325    1.111   .     S
C290   H324    1.109   .     S
C290   H323    1.108   .     S
C291   O399    1.287   .     A
C291   O396    1.293   .     A
C292   C293    1.535   .     S
C292   O386    1.416   .     S
C292   H1532   1.108   .     S
C292   H1533   1.115   .     S
C293   H328    1.111   .     S
C293   H329    1.111   .     S
C293   C294    1.526   .     S
C294   H331    1.111   .     S
C294   H64     1.110   1_655 S
C294   H1539   1.110   .     S
C295   O387    1.419   .     S
C295   H334    1.112   .     S
C295   H335    1.119   .     S
C295   C296    1.529   .     S
C296   H337    1.111   .     S
C296   C297    1.522   .     S
C296   H336    1.110   .     S
C297   H339    1.110   .     S
C297   H1544   1.108   .     S
C297   H1546   1.110   .     S
C298   H342    1.108   .     S
C298   H343    1.120   .     S
C298   C299    1.531   .     S
C298   O388    1.421   .     S
C299   H345    1.109   .     S
C299   C300    1.526   .     S
C299   H344    1.112   .     S
C300   H348    1.110   .     S
C300   H347    1.110   .     S
C300   H346    1.111   .     S
C301   H350    1.112   .     S
C301   O389    1.420   .     S
C301   C303    1.535   .     S
C301   H349    1.109   .     S
C302   O397    1.298   .     A
C302   O398    1.289   .     A
C303   C304    1.526   .     S
C303   H351    1.108   .     S
C303   H353    1.111   .     S
C304   H356    1.111   .     S
C304   H354    1.111   .     S
C305   H358    1.111   .     S
C305   C306    1.534   .     S
C305   H357    1.108   .     S
C305   O390    1.424   .     S
C306   C307    1.523   .     S
C306   H360    1.109   .     S
C306   H359    1.108   .     S
C307   H361    1.111   .     S
C307   H362    1.108   .     S
C307   H1168   1.109   1_545 S
C308   H366    1.113   .     S
C308   O391    1.425   .     S
C308   H365    1.108   .     S
C308   C309    1.523   .     S
C309   C310    1.526   .     S
C309   H367    1.106   .     S
C309   H368    1.107   .     S
C310   H369    1.111   .     S
C310   H772    1.110   .     S
C310   H773    1.110   .     S
C311   H373    1.110   .     S
C311   H372    1.119   .     S
C311   C312    1.533   .     S
C311   O392    1.418   .     S
C312   C314    1.526   .     S
C312   H376    1.109   .     S
C312   H375    1.104   .     S
C313   H319    1.081   .     S
C313   N384    1.367   .     A
C313   C1121   1.415   1_545 S
C314   H378    1.111   .     S
C314   H377    1.107   .     S
C314   H379    1.111   .     S
C315   H330    1.079   .     S
C315   N383    1.366   .     A
C315   C718    1.415   .     S
C316   N384    1.366   .     A
C316   H341    1.081   .     S
C316   C1119   1.415   1_545 S
C317   H352    1.081   .     S
C317   N383    1.366   .     A
C317   C715    1.415   .     S
C318   H363    1.084   .     S
H326   C1498   1.108   1_554 S
H327   C1498   1.115   1_554 S
H333   C1500   1.110   1_554 S
H338   C1503   1.108   1_554 S
H340   C1503   1.110   1_554 S
H355   C36     1.108   1_655 S
H364   C709    1.109   .     S
H370   C1114   1.110   1_545 S
H371   C1114   1.110   1_545 S
N383   Zn401   2.009   .     S
N384   Zn402   2.009   .     S
O385   Zn401   1.995   .     S
O393   Zn402   1.995   .     S
O394   Zn401   1.998   .     S
O395   Zn402   1.998   .     S
O396   Zn401   2.016   .     S
O397   Zn402   2.016   .     S
O398   Zn401   2.016   .     S
O399   Zn402   2.016   .     S
C403   C421    1.417   .     S
C403   O519    1.281   .     A
C403   O529    1.282   .     A
C404   C420    1.396   .     A
C404   H508    1.084   .     S
C404   C540    1.369   .     S
C405   C420    1.397   .     A
C405   H514    1.084   .     S
C405   C586    1.368   .     S
C406   C421    1.397   .     A
C406   H515    1.083   .     S
C406   C672    1.369   1_455 S
C407   C418    1.417   .     A
C407   O534    1.381   .     S
C407   C411    1.386   .     A
C408   C419    1.417   .     A
C408   C412    1.395   .     A
C408   O520    1.385   .     S
C409   C413    1.390   .     A
C409   C419    1.409   .     A
C409   O521    1.383   .     S
C410   C415    1.393   .     A
C410   C418    1.413   .     A
C410   O522    1.382   .     S
C411   O523    1.387   .     S
C411   C416    1.406   .     A
C412   C417    1.410   .     A
C412   O524    1.384   .     S
C413   C417    1.416   .     A
C413   O525    1.386   .     S
C414   O527    1.281   .     A
C414   O528    1.283   .     A
C414   C420    1.417   .     S
C415   C416    1.408   .     A
C415   O526    1.386   .     S
C416   C425    1.453   .     S
C417   C436    1.463   .     S
C418   C1625   1.478   1_554 S
C419   C1624   1.478   .     S
C421   C452    1.396   .     A
C422   O534    1.415   .     S
C422   H454    1.114   .     S
C422   H516    1.106   .     S
C422   C423    1.533   .     S
C423   H455    1.109   .     S
C423   C424    1.524   .     S
C423   H456    1.110   .     S
C424   H459    1.111   .     S
C424   H458    1.109   .     S
C424   H457    1.108   .     S
C425   O533    1.287   .     A
C425   O530    1.293   .     A
C426   C427    1.535   .     S
C426   O520    1.416   .     S
C426   H1666   1.108   .     S
C426   H1667   1.115   .     S
C427   H462    1.111   .     S
C427   H463    1.111   .     S
C427   C428    1.526   .     S
C428   H465    1.111   .     S
C428   H600    1.110   .     S
C428   H1673   1.110   .     S
C429   O521    1.419   .     S
C429   H468    1.112   .     S
C429   H469    1.119   .     S
C429   C430    1.529   .     S
C430   H471    1.111   .     S
C430   C431    1.522   .     S
C430   H470    1.110   .     S
C431   H473    1.110   .     S
C431   H1678   1.108   .     S
C431   H1680   1.110   .     S
C432   H476    1.108   .     S
C432   H477    1.120   .     S
C432   C433    1.531   .     S
C432   O522    1.421   .     S
C433   H479    1.109   .     S
C433   C434    1.526   .     S
C433   H478    1.112   .     S
C434   H482    1.110   .     S
C434   H481    1.110   .     S
C434   H480    1.111   .     S
C435   H484    1.112   .     S
C435   O523    1.420   .     S
C435   C437    1.535   .     S
C435   H483    1.109   .     S
C436   O531    1.298   .     A
C436   O532    1.289   .     A
C437   C438    1.526   .     S
C437   H485    1.108   .     S
C437   H487    1.111   .     S
C438   H490    1.111   .     S
C438   H488    1.111   .     S
C438   H757    1.108   1_455 S
C439   H492    1.111   .     S
C439   C440    1.534   .     S
C439   H491    1.108   .     S
C439   O524    1.424   .     S
C440   C441    1.523   .     S
C440   H494    1.109   .     S
C440   H493    1.108   .     S
C441   H495    1.111   .     S
C441   H496    1.108   .     S
C442   H500    1.113   .     S
C442   O525    1.425   .     S
C442   H499    1.108   .     S
C442   C443    1.523   .     S
C443   C444    1.526   .     S
C443   H501    1.106   .     S
C443   H502    1.107   .     S
C444   H503    1.111   .     S
C444   H906    1.110   .     S
C444   H907    1.110   .     S
C445   H507    1.110   .     S
C445   H506    1.119   .     S
C445   C446    1.533   .     S
C445   O526    1.418   .     S
C446   C448    1.526   .     S
C446   H510    1.109   .     S
C446   H509    1.104   .     S
C447   H453    1.081   .     S
C447   N518    1.367   .     A
C448   H512    1.111   .     S
C448   H511    1.107   .     S
C448   H513    1.111   .     S
C449   H464    1.079   .     S
C449   N517    1.366   .     A
C449   C852    1.415   .     S
C450   N518    1.366   .     A
C450   H475    1.081   .     S
C451   H486    1.081   .     S
C451   N517    1.366   .     A
C451   C849    1.415   .     S
C452   H497    1.084   .     S
C452   C673    1.368   1_455 S
H460   C1632   1.108   1_554 S
H461   C1632   1.115   1_554 S
H466   C696    1.110   1_455 S
H467   C1634   1.110   1_554 S
H472   C1637   1.108   1_554 S
H474   C1637   1.110   1_554 S
H489   C572    1.108   .     S
H498   C843    1.109   .     S
N517   Zn535   2.009   .     S
N518   Zn536   2.009   .     S
O519   Zn535   1.995   .     S
O527   Zn536   1.995   .     S
O528   Zn535   1.998   .     S
O529   Zn536   1.998   .     S
O530   Zn535   2.016   .     S
O531   Zn536   2.016   .     S
O532   Zn535   2.016   .     S
O533   Zn536   2.016   .     S
C537   C555    1.417   .     S
C537   O653    1.281   .     A
C537   O663    1.282   .     A
C538   C554    1.396   .     A
C538   H642    1.084   .     S
C538   C674    1.369   .     S
C539   C554    1.397   .     A
C539   H648    1.084   .     S
C539   C720    1.368   .     S
C540   C555    1.397   .     A
C540   H649    1.083   .     S
C541   C552    1.417   .     A
C541   O668    1.381   .     S
C541   C545    1.386   .     A
C542   C553    1.417   .     A
C542   C546    1.395   .     A
C542   O654    1.385   .     S
C543   C547    1.390   .     A
C543   C553    1.409   .     A
C543   O655    1.383   .     S
C544   C549    1.393   .     A
C544   C552    1.413   .     A
C544   O656    1.382   .     S
C545   O657    1.387   .     S
C545   C550    1.406   .     A
C546   C551    1.410   .     A
C546   O658    1.384   .     S
C547   C551    1.416   .     A
C547   O659    1.386   .     S
C548   O661    1.281   .     A
C548   O662    1.283   .     A
C548   C554    1.417   .     S
C549   C550    1.408   .     A
C549   O660    1.386   .     S
C550   C559    1.453   .     S
C551   C570    1.463   .     S
C552   C1759   1.478   1_554 S
C553   C1758   1.478   .     S
C555   C586    1.396   .     A
C556   O668    1.415   .     S
C556   H588    1.114   .     S
C556   H650    1.106   .     S
C556   C557    1.533   .     S
C557   H589    1.109   .     S
C557   C558    1.524   .     S
C557   H590    1.110   .     S
C558   H593    1.111   .     S
C558   H592    1.109   .     S
C558   H591    1.108   .     S
C559   O667    1.287   .     A
C559   O664    1.293   .     A
C560   C561    1.535   .     S
C560   O654    1.416   .     S
C560   H1800   1.108   .     S
C560   H1801   1.115   .     S
C561   H596    1.111   .     S
C561   H597    1.111   .     S
C561   C562    1.526   .     S
C562   H599    1.111   .     S
C562   H734    1.110   .     S
C562   H1807   1.110   .     S
C563   O655    1.419   .     S
C563   H602    1.112   .     S
C563   H603    1.119   .     S
C563   C564    1.529   .     S
C564   H605    1.111   .     S
C564   C565    1.522   .     S
C564   H604    1.110   .     S
C565   H607    1.110   .     S
C565   H1812   1.108   .     S
C565   H1814   1.110   .     S
C566   H610    1.108   .     S
C566   H611    1.120   .     S
C566   C567    1.531   .     S
C566   O656    1.421   .     S
C567   H613    1.109   .     S
C567   C568    1.526   .     S
C567   H612    1.112   .     S
C568   H616    1.110   .     S
C568   H615    1.110   .     S
C568   H614    1.111   .     S
C569   H618    1.112   .     S
C569   O657    1.420   .     S
C569   C571    1.535   .     S
C569   H617    1.109   .     S
C570   O665    1.298   .     A
C570   O666    1.289   .     A
C571   C572    1.526   .     S
C571   H619    1.108   .     S
C571   H621    1.111   .     S
C572   H624    1.111   .     S
C572   H622    1.111   .     S
C573   H626    1.111   .     S
C573   C574    1.534   .     S
C573   H625    1.108   .     S
C573   O658    1.424   .     S
C574   C575    1.523   .     S
C574   H628    1.109   .     S
C574   H627    1.108   .     S
C575   H629    1.111   .     S
C575   H630    1.108   .     S
C576   H634    1.113   .     S
C576   O659    1.425   .     S
C576   H633    1.108   .     S
C576   C577    1.523   .     S
C577   C578    1.526   .     S
C577   H635    1.106   .     S
C577   H636    1.107   .     S
C578   H637    1.111   .     S
C578   H1040   1.110   .     S
C578   H1041   1.110   .     S
C579   H641    1.110   .     S
C579   H640    1.119   .     S
C579   C580    1.533   .     S
C579   O660    1.418   .     S
C580   C582    1.526   .     S
C580   H644    1.109   .     S
C580   H643    1.104   .     S
C581   H587    1.081   .     S
C581   N652    1.367   .     A
C582   H646    1.111   .     S
C582   H645    1.107   .     S
C582   H647    1.111   .     S
C583   H598    1.079   .     S
C583   N651    1.366   .     A
C583   C986    1.415   .     S
C584   N652    1.366   .     A
C584   H609    1.081   .     S
C585   H620    1.081   .     S
C585   N651    1.366   .     A
C585   C983    1.415   .     S
C586   H631    1.084   .     S
H594   C1766   1.108   1_554 S
H595   C1766   1.115   1_554 S
H601   C1768   1.110   1_554 S
H606   C1771   1.108   1_554 S
H608   C1771   1.110   1_554 S
H623   C706    1.108   .     S
H632   C977    1.109   .     S
N651   Zn669   2.009   .     S
N652   Zn670   2.009   .     S
O653   Zn669   1.995   .     S
O661   Zn670   1.995   .     S
O662   Zn669   1.998   .     S
O663   Zn670   1.998   .     S
O664   Zn669   2.016   .     S
O665   Zn670   2.016   .     S
O666   Zn669   2.016   .     S
O667   Zn670   2.016   .     S
C671   C689    1.417   .     S
C671   O787    1.281   .     A
C671   O797    1.282   .     A
C672   C688    1.396   .     A
C672   H776    1.084   .     S
C672   C406    1.369   1_655 S
C673   C688    1.397   .     A
C673   H782    1.084   .     S
C673   C452    1.368   1_655 S
C674   C689    1.397   .     A
C674   H783    1.083   .     S
C675   C686    1.417   .     A
C675   O802    1.381   .     S
C675   C679    1.386   .     A
C676   C687    1.417   .     A
C676   C680    1.395   .     A
C676   O788    1.385   .     S
C677   C681    1.390   .     A
C677   C687    1.409   .     A
C677   O789    1.383   .     S
C678   C683    1.393   .     A
C678   C686    1.413   .     A
C678   O790    1.382   .     S
C679   O791    1.387   .     S
C679   C684    1.406   .     A
C680   C685    1.410   .     A
C680   O792    1.384   .     S
C681   C685    1.416   .     A
C681   O793    1.386   .     S
C682   O795    1.281   .     A
C682   O796    1.283   .     A
C682   C688    1.417   .     S
C683   C684    1.408   .     A
C683   O794    1.386   .     S
C684   C693    1.453   .     S
C685   C704    1.463   .     S
C686   C1893   1.478   1_554 S
C687   C1892   1.478   .     S
C689   C720    1.396   .     A
C690   O802    1.415   .     S
C690   H722    1.114   .     S
C690   H784    1.106   .     S
C690   C691    1.533   .     S
C691   H723    1.109   .     S
C691   C692    1.524   .     S
C691   H724    1.110   .     S
C692   H727    1.111   .     S
C692   H726    1.109   .     S
C692   H725    1.108   .     S
C693   O801    1.287   .     A
C693   O798    1.293   .     A
C694   C695    1.535   .     S
C694   O788    1.416   .     S
C694   H1934   1.108   .     S
C694   H1935   1.115   .     S
C695   H730    1.111   .     S
C695   H731    1.111   .     S
C695   C696    1.526   .     S
C696   H733    1.111   .     S
C696   H466    1.110   1_655 S
C696   H1941   1.110   .     S
C697   O789    1.419   .     S
C697   H736    1.112   .     S
C697   H737    1.119   .     S
C697   C698    1.529   .     S
C698   H739    1.111   .     S
C698   C699    1.522   .     S
C698   H738    1.110   .     S
C699   H741    1.110   .     S
C699   H1946   1.108   .     S
C699   H1948   1.110   .     S
C700   H744    1.108   .     S
C700   H745    1.120   .     S
C700   C701    1.531   .     S
C700   O790    1.421   .     S
C701   H747    1.109   .     S
C701   C702    1.526   .     S
C701   H746    1.112   .     S
C702   H750    1.110   .     S
C702   H749    1.110   .     S
C702   H748    1.111   .     S
C703   H752    1.112   .     S
C703   O791    1.420   .     S
C703   C705    1.535   .     S
C703   H751    1.109   .     S
C704   O799    1.298   .     A
C704   O800    1.289   .     A
C705   C706    1.526   .     S
C705   H753    1.108   .     S
C705   H755    1.111   .     S
C706   H758    1.111   .     S
C706   H756    1.111   .     S
C707   H760    1.111   .     S
C707   C708    1.534   .     S
C707   H759    1.108   .     S
C707   O792    1.424   .     S
C708   C709    1.523   .     S
C708   H762    1.109   .     S
C708   H761    1.108   .     S
C709   H763    1.111   .     S
C709   H764    1.108   .     S
C710   H768    1.113   .     S
C710   O793    1.425   .     S
C710   H767    1.108   .     S
C710   C711    1.523   .     S
C711   C712    1.526   .     S
C711   H769    1.106   .     S
C711   H770    1.107   .     S
C712   H771    1.111   .     S
C712   H1174   1.110   .     S
C712   H1175   1.110   .     S
C713   H775    1.110   .     S
C713   H774    1.119   .     S
C713   C714    1.533   .     S
C713   O794    1.418   .     S
C714   C716    1.526   .     S
C714   H778    1.109   .     S
C714   H777    1.104   .     S
C715   H721    1.081   .     S
C715   N786    1.367   .     A
C716   H780    1.111   .     S
C716   H779    1.107   .     S
C716   H781    1.111   .     S
C717   H732    1.079   .     S
C717   N785    1.366   .     A
C717   C1120   1.415   .     S
C718   N786    1.366   .     A
C718   H743    1.081   .     S
C719   H754    1.081   .     S
C719   N785    1.366   .     A
C719   C1117   1.415   .     S
C720   H765    1.084   .     S
H728   C1900   1.108   1_554 S
H729   C1900   1.115   1_554 S
H735   C1902   1.110   1_554 S
H740   C1905   1.108   1_554 S
H742   C1905   1.110   1_554 S
H757   C438    1.108   1_655 S
H766   C1111   1.109   .     S
N785   Zn803   2.009   .     S
N786   Zn804   2.009   .     S
O787   Zn803   1.995   .     S
O795   Zn804   1.995   .     S
O796   Zn803   1.998   .     S
O797   Zn804   1.998   .     S
O798   Zn803   2.016   .     S
O799   Zn804   2.016   .     S
O800   Zn803   2.016   .     S
O801   Zn804   2.016   .     S
C805   C823    1.417   .     S
C805   O921    1.281   .     A
C805   O931    1.282   .     A
C806   C822    1.396   .     A
C806   H910    1.084   .     S
C806   C942    1.369   .     S
C807   C822    1.397   .     A
C807   H916    1.084   .     S
C807   C988    1.368   .     S
C808   C823    1.397   .     A
C808   H917    1.083   .     S
C808   C1074   1.369   1_455 S
C809   C820    1.417   .     A
C809   O936    1.381   .     S
C809   C813    1.386   .     A
C810   C821    1.417   .     A
C810   C814    1.395   .     A
C810   O922    1.385   .     S
C811   C815    1.390   .     A
C811   C821    1.409   .     A
C811   O923    1.383   .     S
C812   C817    1.393   .     A
C812   C820    1.413   .     A
C812   O924    1.382   .     S
C813   O925    1.387   .     S
C813   C818    1.406   .     A
C814   C819    1.410   .     A
C814   O926    1.384   .     S
C815   C819    1.416   .     A
C815   O927    1.386   .     S
C816   O929    1.281   .     A
C816   O930    1.283   .     A
C816   C822    1.417   .     S
C817   C818    1.408   .     A
C817   O928    1.386   .     S
C818   C827    1.453   .     S
C819   C838    1.463   .     S
C820   C2027   1.478   1_554 S
C821   C2026   1.478   .     S
C823   C854    1.396   .     A
C824   O936    1.415   .     S
C824   H856    1.114   .     S
C824   H918    1.106   .     S
C824   C825    1.533   .     S
C825   H857    1.109   .     S
C825   C826    1.524   .     S
C825   H858    1.110   .     S
C826   H861    1.111   .     S
C826   H860    1.109   .     S
C826   H859    1.108   .     S
C827   O935    1.287   .     A
C827   O932    1.293   .     A
C828   C829    1.535   .     S
C828   O922    1.416   .     S
C828   H2068   1.108   .     S
C828   H2069   1.115   .     S
C829   H864    1.111   .     S
C829   H865    1.111   .     S
C829   C830    1.526   .     S
C830   H867    1.111   .     S
C830   H1002   1.110   .     S
C830   H2075   1.110   .     S
C831   O923    1.419   .     S
C831   H870    1.112   .     S
C831   H871    1.119   .     S
C831   C832    1.529   .     S
C832   H873    1.111   .     S
C832   C833    1.522   .     S
C832   H872    1.110   .     S
C833   H875    1.110   .     S
C833   H2080   1.108   .     S
C833   H2082   1.110   .     S
C834   H878    1.108   .     S
C834   H879    1.120   .     S
C834   C835    1.531   .     S
C834   O924    1.421   .     S
C835   H881    1.109   .     S
C835   C836    1.526   .     S
C835   H880    1.112   .     S
C836   H884    1.110   .     S
C836   H883    1.110   .     S
C836   H882    1.111   .     S
C837   H886    1.112   .     S
C837   O925    1.420   .     S
C837   C839    1.535   .     S
C837   H885    1.109   .     S
C838   O933    1.298   .     A
C838   O934    1.289   .     A
C839   C840    1.526   .     S
C839   H887    1.108   .     S
C839   H889    1.111   .     S
C840   H892    1.111   .     S
C840   H890    1.111   .     S
C840   H1159   1.108   1_455 S
C841   H894    1.111   .     S
C841   C842    1.534   .     S
C841   H893    1.108   .     S
C841   O926    1.424   .     S
C842   C843    1.523   .     S
C842   H896    1.109   .     S
C842   H895    1.108   .     S
C843   H897    1.111   .     S
C843   H898    1.108   .     S
C844   H902    1.113   .     S
C844   O927    1.425   .     S
C844   H901    1.108   .     S
C844   C845    1.523   .     S
C845   C846    1.526   .     S
C845   H903    1.106   .     S
C845   H904    1.107   .     S
C846   H905    1.111   .     S
C846   H102    1.110   1_565 S
C846   H103    1.110   1_565 S
C847   H909    1.110   .     S
C847   H908    1.119   .     S
C847   C848    1.533   .     S
C847   O928    1.418   .     S
C848   C850    1.526   .     S
C848   H912    1.109   .     S
C848   H911    1.104   .     S
C849   H855    1.081   .     S
C849   N920    1.367   .     A
C850   H914    1.111   .     S
C850   H913    1.107   .     S
C850   H915    1.111   .     S
C851   H866    1.079   .     S
C851   N919    1.366   .     A
C851   C48     1.415   1_565 S
C852   N920    1.366   .     A
C852   H877    1.081   .     S
C853   H888    1.081   .     S
C853   N919    1.366   .     A
C853   C45     1.415   1_565 S
C854   H899    1.084   .     S
C854   C1075   1.368   1_455 S
H862   C2034   1.108   1_554 S
H863   C2034   1.115   1_554 S
H868   C1098   1.110   1_455 S
H869   C2036   1.110   1_554 S
H874   C2039   1.108   1_554 S
H876   C2039   1.110   1_554 S
H891   C974    1.108   .     S
H900   C39     1.109   1_565 S
N919   Zn937   2.009   .     S
N920   Zn938   2.009   .     S
O921   Zn937   1.995   .     S
O929   Zn938   1.995   .     S
O930   Zn937   1.998   .     S
O931   Zn938   1.998   .     S
O932   Zn937   2.016   .     S
O933   Zn938   2.016   .     S
O934   Zn937   2.016   .     S
O935   Zn938   2.016   .     S
C939   C957    1.417   .     S
C939   O1055   1.281   .     A
C939   O1065   1.282   .     A
C940   C956    1.396   .     A
C940   H1044   1.084   .     S
C940   C1076   1.369   .     S
C941   C956    1.397   .     A
C941   H1050   1.084   .     S
C941   C1122   1.368   .     S
C942   C957    1.397   .     A
C942   H1051   1.083   .     S
C943   C954    1.417   .     A
C943   O1070   1.381   .     S
C943   C947    1.386   .     A
C944   C955    1.417   .     A
C944   C948    1.395   .     A
C944   O1056   1.385   .     S
C945   C949    1.390   .     A
C945   C955    1.409   .     A
C945   O1057   1.383   .     S
C946   C951    1.393   .     A
C946   C954    1.413   .     A
C946   O1058   1.382   .     S
C947   O1059   1.387   .     S
C947   C952    1.406   .     A
C948   C953    1.410   .     A
C948   O1060   1.384   .     S
C949   C953    1.416   .     A
C949   O1061   1.386   .     S
C950   O1063   1.281   .     A
C950   O1064   1.283   .     A
C950   C956    1.417   .     S
C951   C952    1.408   .     A
C951   O1062   1.386   .     S
C952   C961    1.453   .     S
C953   C972    1.463   .     S
C954   C2161   1.478   1_554 S
C955   C2160   1.478   .     S
C957   C988    1.396   .     A
C958   O1070   1.415   .     S
C958   H990    1.114   .     S
C958   H1052   1.106   .     S
C958   C959    1.533   .     S
C959   H991    1.109   .     S
C959   C960    1.524   .     S
C959   H992    1.110   .     S
C960   H995    1.111   .     S
C960   H994    1.109   .     S
C960   H993    1.108   .     S
C961   O1069   1.287   .     A
C961   O1066   1.293   .     A
C962   C963    1.535   .     S
C962   O1056   1.416   .     S
C962   H2202   1.108   .     S
C962   H2203   1.115   .     S
C963   H998    1.111   .     S
C963   H999    1.111   .     S
C963   C964    1.526   .     S
C964   H1001   1.111   .     S
C964   H1136   1.110   .     S
C964   H2209   1.110   .     S
C965   O1057   1.419   .     S
C965   H1004   1.112   .     S
C965   H1005   1.119   .     S
C965   C966    1.529   .     S
C966   H1007   1.111   .     S
C966   C967    1.522   .     S
C966   H1006   1.110   .     S
C967   H1009   1.110   .     S
C967   H2214   1.108   .     S
C967   H2216   1.110   .     S
C968   H1012   1.108   .     S
C968   H1013   1.120   .     S
C968   C969    1.531   .     S
C968   O1058   1.421   .     S
C969   H1015   1.109   .     S
C969   C970    1.526   .     S
C969   H1014   1.112   .     S
C970   H1018   1.110   .     S
C970   H1017   1.110   .     S
C970   H1016   1.111   .     S
C971   H1020   1.112   .     S
C971   O1059   1.420   .     S
C971   C973    1.535   .     S
C971   H1019   1.109   .     S
C972   O1067   1.298   .     A
C972   O1068   1.289   .     A
C973   C974    1.526   .     S
C973   H1021   1.108   .     S
C973   H1023   1.111   .     S
C974   H1026   1.111   .     S
C974   H1024   1.111   .     S
C975   H1028   1.111   .     S
C975   C976    1.534   .     S
C975   H1027   1.108   .     S
C975   O1060   1.424   .     S
C976   C977    1.523   .     S
C976   H1030   1.109   .     S
C976   H1029   1.108   .     S
C977   H1031   1.111   .     S
C977   H1032   1.108   .     S
C978   H1036   1.113   .     S
C978   O1061   1.425   .     S
C978   H1035   1.108   .     S
C978   C979    1.523   .     S
C979   C980    1.526   .     S
C979   H1037   1.106   .     S
C979   H1038   1.107   .     S
C980   H1039   1.111   .     S
C980   H236    1.110   1_565 S
C980   H237    1.110   1_565 S
C981   H1043   1.110   .     S
C981   H1042   1.119   .     S
C981   C982    1.533   .     S
C981   O1062   1.418   .     S
C982   C984    1.526   .     S
C982   H1046   1.109   .     S
C982   H1045   1.104   .     S
C983   H989    1.081   .     S
C983   N1054   1.367   .     A
C984   H1048   1.111   .     S
C984   H1047   1.107   .     S
C984   H1049   1.111   .     S
C985   H1000   1.079   .     S
C985   N1053   1.366   .     A
C985   C182    1.415   1_565 S
C986   N1054   1.366   .     A
C986   H1011   1.081   .     S
C987   H1022   1.081   .     S
C987   N1053   1.366   .     A
C987   C179    1.415   1_565 S
C988   H1033   1.084   .     S
H996   C2168   1.108   1_554 S
H997   C2168   1.115   1_554 S
H1003  C2170   1.110   1_554 S
H1008  C2173   1.108   1_554 S
H1010  C2173   1.110   1_554 S
H1025  C1108   1.108   .     S
H1034  C173    1.109   1_565 S
N1053  Zn1071  2.009   .     S
N1054  Zn1072  2.009   .     S
O1055  Zn1071  1.995   .     S
O1063  Zn1072  1.995   .     S
O1064  Zn1071  1.998   .     S
O1065  Zn1072  1.998   .     S
O1066  Zn1071  2.016   .     S
O1067  Zn1072  2.016   .     S
O1068  Zn1071  2.016   .     S
O1069  Zn1072  2.016   .     S
C1073  C1091   1.417   .     S
C1073  O1189   1.281   .     A
C1073  O1199   1.282   .     A
C1074  C1090   1.396   .     A
C1074  H1178   1.084   .     S
C1074  C808    1.369   1_655 S
C1075  C1090   1.397   .     A
C1075  H1184   1.084   .     S
C1075  C854    1.368   1_655 S
C1076  C1091   1.397   .     A
C1076  H1185   1.083   .     S
C1077  C1088   1.417   .     A
C1077  O1204   1.381   .     S
C1077  C1081   1.386   .     A
C1078  C1089   1.417   .     A
C1078  C1082   1.395   .     A
C1078  O1190   1.385   .     S
C1079  C1083   1.390   .     A
C1079  C1089   1.409   .     A
C1079  O1191   1.383   .     S
C1080  C1085   1.393   .     A
C1080  C1088   1.413   .     A
C1080  O1192   1.382   .     S
C1081  O1193   1.387   .     S
C1081  C1086   1.406   .     A
C1082  C1087   1.410   .     A
C1082  O1194   1.384   .     S
C1083  C1087   1.416   .     A
C1083  O1195   1.386   .     S
C1084  O1197   1.281   .     A
C1084  O1198   1.283   .     A
C1084  C1090   1.417   .     S
C1085  C1086   1.408   .     A
C1085  O1196   1.386   .     S
C1086  C1095   1.453   .     S
C1087  C1106   1.463   .     S
C1088  C2295   1.478   1_554 S
C1089  C2294   1.478   .     S
C1091  C1122   1.396   .     A
C1092  O1204   1.415   .     S
C1092  H1124   1.114   .     S
C1092  H1186   1.106   .     S
C1092  C1093   1.533   .     S
C1093  H1125   1.109   .     S
C1093  C1094   1.524   .     S
C1093  H1126   1.110   .     S
C1094  H1129   1.111   .     S
C1094  H1128   1.109   .     S
C1094  H1127   1.108   .     S
C1095  O1203   1.287   .     A
C1095  O1200   1.293   .     A
C1096  C1097   1.535   .     S
C1096  O1190   1.416   .     S
C1096  H2336   1.108   .     S
C1096  H2337   1.115   .     S
C1097  H1132   1.111   .     S
C1097  H1133   1.111   .     S
C1097  C1098   1.526   .     S
C1098  H1135   1.111   .     S
C1098  H868    1.110   1_655 S
C1098  H2343   1.110   .     S
C1099  O1191   1.419   .     S
C1099  H1138   1.112   .     S
C1099  H1139   1.119   .     S
C1099  C1100   1.529   .     S
C1100  H1141   1.111   .     S
C1100  C1101   1.522   .     S
C1100  H1140   1.110   .     S
C1101  H1143   1.110   .     S
C1101  H2348   1.108   .     S
C1101  H2350   1.110   .     S
C1102  H1146   1.108   .     S
C1102  H1147   1.120   .     S
C1102  C1103   1.531   .     S
C1102  O1192   1.421   .     S
C1103  H1149   1.109   .     S
C1103  C1104   1.526   .     S
C1103  H1148   1.112   .     S
C1104  H1152   1.110   .     S
C1104  H1151   1.110   .     S
C1104  H1150   1.111   .     S
C1105  H1154   1.112   .     S
C1105  O1193   1.420   .     S
C1105  C1107   1.535   .     S
C1105  H1153   1.109   .     S
C1106  O1201   1.298   .     A
C1106  O1202   1.289   .     A
C1107  C1108   1.526   .     S
C1107  H1155   1.108   .     S
C1107  H1157   1.111   .     S
C1108  H1160   1.111   .     S
C1108  H1158   1.111   .     S
C1109  H1162   1.111   .     S
C1109  C1110   1.534   .     S
C1109  H1161   1.108   .     S
C1109  O1194   1.424   .     S
C1110  C1111   1.523   .     S
C1110  H1164   1.109   .     S
C1110  H1163   1.108   .     S
C1111  H1165   1.111   .     S
C1111  H1166   1.108   .     S
C1112  H1170   1.113   .     S
C1112  O1195   1.425   .     S
C1112  H1169   1.108   .     S
C1112  C1113   1.523   .     S
C1113  C1114   1.526   .     S
C1113  H1171   1.106   .     S
C1113  H1172   1.107   .     S
C1114  H1173   1.111   .     S
C1114  H370    1.110   1_565 S
C1114  H371    1.110   1_565 S
C1115  H1177   1.110   .     S
C1115  H1176   1.119   .     S
C1115  C1116   1.533   .     S
C1115  O1196   1.418   .     S
C1116  C1118   1.526   .     S
C1116  H1180   1.109   .     S
C1116  H1179   1.104   .     S
C1117  H1123   1.081   .     S
C1117  N1188   1.367   .     A
C1118  H1182   1.111   .     S
C1118  H1181   1.107   .     S
C1118  H1183   1.111   .     S
C1119  H1134   1.079   .     S
C1119  N1187   1.366   .     A
C1119  C316    1.415   1_565 S
C1120  N1188   1.366   .     A
C1120  H1145   1.081   .     S
C1121  H1156   1.081   .     S
C1121  N1187   1.366   .     A
C1121  C313    1.415   1_565 S
C1122  H1167   1.084   .     S
H1130  C2302   1.108   1_554 S
H1131  C2302   1.115   1_554 S
H1137  C2304   1.110   1_554 S
H1142  C2307   1.108   1_554 S
H1144  C2307   1.110   1_554 S
H1159  C840    1.108   1_655 S
H1168  C307    1.109   1_565 S
N1187  Zn1205  2.009   .     S
N1188  Zn1206  2.009   .     S
O1189  Zn1205  1.995   .     S
O1197  Zn1206  1.995   .     S
O1198  Zn1205  1.998   .     S
O1199  Zn1206  1.998   .     S
O1200  Zn1205  2.016   .     S
O1201  Zn1206  2.016   .     S
O1202  Zn1205  2.016   .     S
O1203  Zn1206  2.016   .     S
C1207  C1225   1.417   .     S
C1207  O1323   1.281   .     A
C1207  O1333   1.282   .     A
C1208  C1224   1.396   .     A
C1208  H1312   1.084   .     S
C1208  C1344   1.369   .     S
C1209  C1224   1.397   .     A
C1209  H1318   1.084   .     S
C1209  C1390   1.368   .     S
C1210  C1225   1.397   .     A
C1210  H1319   1.083   .     S
C1210  C1476   1.369   1_455 S
C1211  C1222   1.417   .     A
C1211  O1338   1.381   .     S
C1211  C1215   1.386   .     A
C1212  C1223   1.417   .     A
C1212  C1216   1.395   .     A
C1212  O1324   1.385   .     S
C1213  C1217   1.390   .     A
C1213  C1223   1.409   .     A
C1213  O1325   1.383   .     S
C1214  C1219   1.393   .     A
C1214  C1222   1.413   .     A
C1214  O1326   1.382   .     S
C1215  O1327   1.387   .     S
C1215  C1220   1.406   .     A
C1216  C1221   1.410   .     A
C1216  O1328   1.384   .     S
C1217  C1221   1.416   .     A
C1217  O1329   1.386   .     S
C1218  O1331   1.281   .     A
C1218  O1332   1.283   .     A
C1218  C1224   1.417   .     S
C1219  C1220   1.408   .     A
C1219  O1330   1.386   .     S
C1220  C1229   1.453   .     S
C1221  C1240   1.463   .     S
C1223  C16     1.478   1_556 S
C1225  C1256   1.396   .     A
C1226  O1338   1.415   .     S
C1226  H1258   1.114   .     S
C1226  H1320   1.106   .     S
C1226  C1227   1.533   .     S
C1227  H1259   1.109   .     S
C1227  C1228   1.524   .     S
C1227  H1260   1.110   .     S
C1228  H1263   1.111   .     S
C1228  H1262   1.109   .     S
C1228  H1261   1.108   .     S
C1229  O1337   1.287   .     A
C1229  O1334   1.293   .     A
C1230  C1231   1.535   .     S
C1230  O1324   1.416   .     S
C1230  H58     1.108   1_556 S
C1230  H59     1.115   1_556 S
C1231  H1266   1.111   .     S
C1231  H1267   1.111   .     S
C1231  C1232   1.526   .     S
C1232  H1269   1.111   .     S
C1232  H1404   1.110   .     S
C1232  H65     1.110   1_556 S
C1233  O1325   1.419   .     S
C1233  H1272   1.112   .     S
C1233  H1273   1.119   .     S
C1233  C1234   1.529   .     S
C1234  H1275   1.111   .     S
C1234  C1235   1.522   .     S
C1234  H1274   1.110   .     S
C1235  H1277   1.110   .     S
C1235  H70     1.108   1_556 S
C1235  H72     1.110   1_556 S
C1236  H1280   1.108   .     S
C1236  H1281   1.120   .     S
C1236  C1237   1.531   .     S
C1236  O1326   1.421   .     S
C1237  H1283   1.109   .     S
C1237  C1238   1.526   .     S
C1237  H1282   1.112   .     S
C1238  H1286   1.110   .     S
C1238  H1285   1.110   .     S
C1238  H1284   1.111   .     S
C1239  H1288   1.112   .     S
C1239  O1327   1.420   .     S
C1239  C1241   1.535   .     S
C1239  H1287   1.109   .     S
C1240  O1335   1.298   .     A
C1240  O1336   1.289   .     A
C1241  C1242   1.526   .     S
C1241  H1289   1.108   .     S
C1241  H1291   1.111   .     S
C1242  H1294   1.111   .     S
C1242  H1292   1.111   .     S
C1242  H1561   1.108   1_455 S
C1243  H1296   1.111   .     S
C1243  C1244   1.534   .     S
C1243  H1295   1.108   .     S
C1243  O1328   1.424   .     S
C1244  C1245   1.523   .     S
C1244  H1298   1.109   .     S
C1244  H1297   1.108   .     S
C1245  H1299   1.111   .     S
C1245  H1300   1.108   .     S
C1245  H2106   1.109   1_545 S
C1246  H1304   1.113   .     S
C1246  O1329   1.425   .     S
C1246  H1303   1.108   .     S
C1246  C1247   1.523   .     S
C1247  C1248   1.526   .     S
C1247  H1305   1.106   .     S
C1247  H1306   1.107   .     S
C1248  H1307   1.111   .     S
C1248  H1710   1.110   .     S
C1248  H1711   1.110   .     S
C1249  H1311   1.110   .     S
C1249  H1310   1.119   .     S
C1249  C1250   1.533   .     S
C1249  O1330   1.418   .     S
C1250  C1252   1.526   .     S
C1250  H1314   1.109   .     S
C1250  H1313   1.104   .     S
C1251  H1257   1.081   .     S
C1251  N1322   1.367   .     A
C1251  C2059   1.415   1_545 S
C1252  H1316   1.111   .     S
C1252  H1315   1.107   .     S
C1252  H1317   1.111   .     S
C1253  H1268   1.079   .     S
C1253  N1321   1.366   .     A
C1253  C1656   1.415   .     S
C1254  N1322   1.366   .     A
C1254  H1279   1.081   .     S
C1254  C2057   1.415   1_545 S
C1255  H1290   1.081   .     S
C1255  N1321   1.366   .     A
C1255  C1653   1.415   .     S
C1256  H1301   1.084   .     S
C1256  C1477   1.368   1_455 S
H1270  C1500   1.110   1_455 S
H1293  C1376   1.108   .     S
H1302  C1647   1.109   .     S
H1308  C2052   1.110   1_545 S
H1309  C2052   1.110   1_545 S
N1321  Zn1339  2.009   .     S
N1322  Zn1340  2.009   .     S
O1323  Zn1339  1.995   .     S
O1331  Zn1340  1.995   .     S
O1332  Zn1339  1.998   .     S
O1333  Zn1340  1.998   .     S
O1334  Zn1339  2.016   .     S
O1335  Zn1340  2.016   .     S
O1336  Zn1339  2.016   .     S
O1337  Zn1340  2.016   .     S
C1341  C1359   1.417   .     S
C1341  O1457   1.281   .     A
C1341  O1467   1.282   .     A
C1342  C1358   1.396   .     A
C1342  H1446   1.084   .     S
C1342  C1478   1.369   .     S
C1343  C1358   1.397   .     A
C1343  H1452   1.084   .     S
C1343  C1524   1.368   .     S
C1344  C1359   1.397   .     A
C1344  H1453   1.083   .     S
C1345  C1356   1.417   .     A
C1345  O1472   1.381   .     S
C1345  C1349   1.386   .     A
C1346  C1357   1.417   .     A
C1346  C1350   1.395   .     A
C1346  O1458   1.385   .     S
C1347  C1351   1.390   .     A
C1347  C1357   1.409   .     A
C1347  O1459   1.383   .     S
C1348  C1353   1.393   .     A
C1348  C1356   1.413   .     A
C1348  O1460   1.382   .     S
C1349  O1461   1.387   .     S
C1349  C1354   1.406   .     A
C1350  C1355   1.410   .     A
C1350  O1462   1.384   .     S
C1351  C1355   1.416   .     A
C1351  O1463   1.386   .     S
C1352  O1465   1.281   .     A
C1352  O1466   1.283   .     A
C1352  C1358   1.417   .     S
C1353  C1354   1.408   .     A
C1353  O1464   1.386   .     S
C1354  C1363   1.453   .     S
C1355  C1374   1.463   .     S
C1357  C150    1.478   1_556 S
C1359  C1390   1.396   .     A
C1360  O1472   1.415   .     S
C1360  H1392   1.114   .     S
C1360  H1454   1.106   .     S
C1360  C1361   1.533   .     S
C1361  H1393   1.109   .     S
C1361  C1362   1.524   .     S
C1361  H1394   1.110   .     S
C1362  H1397   1.111   .     S
C1362  H1396   1.109   .     S
C1362  H1395   1.108   .     S
C1363  O1471   1.287   .     A
C1363  O1468   1.293   .     A
C1364  C1365   1.535   .     S
C1364  O1458   1.416   .     S
C1364  H192    1.108   1_556 S
C1364  H193    1.115   1_556 S
C1365  H1400   1.111   .     S
C1365  H1401   1.111   .     S
C1365  C1366   1.526   .     S
C1366  H1403   1.111   .     S
C1366  H1538   1.110   .     S
C1366  H199    1.110   1_556 S
C1367  O1459   1.419   .     S
C1367  H1406   1.112   .     S
C1367  H1407   1.119   .     S
C1367  C1368   1.529   .     S
C1368  H1409   1.111   .     S
C1368  C1369   1.522   .     S
C1368  H1408   1.110   .     S
C1369  H1411   1.110   .     S
C1369  H204    1.108   1_556 S
C1369  H206    1.110   1_556 S
C1370  H1414   1.108   .     S
C1370  H1415   1.120   .     S
C1370  C1371   1.531   .     S
C1370  O1460   1.421   .     S
C1371  H1417   1.109   .     S
C1371  C1372   1.526   .     S
C1371  H1416   1.112   .     S
C1372  H1420   1.110   .     S
C1372  H1419   1.110   .     S
C1372  H1418   1.111   .     S
C1373  H1422   1.112   .     S
C1373  O1461   1.420   .     S
C1373  C1375   1.535   .     S
C1373  H1421   1.109   .     S
C1374  O1469   1.298   .     A
C1374  O1470   1.289   .     A
C1375  C1376   1.526   .     S
C1375  H1423   1.108   .     S
C1375  H1425   1.111   .     S
C1376  H1428   1.111   .     S
C1376  H1426   1.111   .     S
C1377  H1430   1.111   .     S
C1377  C1378   1.534   .     S
C1377  H1429   1.108   .     S
C1377  O1462   1.424   .     S
C1378  C1379   1.523   .     S
C1378  H1432   1.109   .     S
C1378  H1431   1.108   .     S
C1379  H1433   1.111   .     S
C1379  H1434   1.108   .     S
C1379  H2240   1.109   1_545 S
C1380  H1438   1.113   .     S
C1380  O1463   1.425   .     S
C1380  H1437   1.108   .     S
C1380  C1381   1.523   .     S
C1381  C1382   1.526   .     S
C1381  H1439   1.106   .     S
C1381  H1440   1.107   .     S
C1382  H1441   1.111   .     S
C1382  H1844   1.110   .     S
C1382  H1845   1.110   .     S
C1383  H1445   1.110   .     S
C1383  H1444   1.119   .     S
C1383  C1384   1.533   .     S
C1383  O1464   1.418   .     S
C1384  C1386   1.526   .     S
C1384  H1448   1.109   .     S
C1384  H1447   1.104   .     S
C1385  H1391   1.081   .     S
C1385  N1456   1.367   .     A
C1385  C2193   1.415   1_545 S
C1386  H1450   1.111   .     S
C1386  H1449   1.107   .     S
C1386  H1451   1.111   .     S
C1387  H1402   1.079   .     S
C1387  N1455   1.366   .     A
C1387  C1790   1.415   .     S
C1388  N1456   1.366   .     A
C1388  H1413   1.081   .     S
C1388  C2191   1.415   1_545 S
C1389  H1424   1.081   .     S
C1389  N1455   1.366   .     A
C1389  C1787   1.415   .     S
C1390  H1435   1.084   .     S
H1427  C1510   1.108   .     S
H1436  C1781   1.109   .     S
H1442  C2186   1.110   1_545 S
H1443  C2186   1.110   1_545 S
N1455  Zn1473  2.009   .     S
N1456  Zn1474  2.009   .     S
O1457  Zn1473  1.995   .     S
O1465  Zn1474  1.995   .     S
O1466  Zn1473  1.998   .     S
O1467  Zn1474  1.998   .     S
O1468  Zn1473  2.016   .     S
O1469  Zn1474  2.016   .     S
O1470  Zn1473  2.016   .     S
O1471  Zn1474  2.016   .     S
C1475  C1493   1.417   .     S
C1475  O1591   1.281   .     A
C1475  O1601   1.282   .     A
C1476  C1492   1.396   .     A
C1476  H1580   1.084   .     S
C1476  C1210   1.369   1_655 S
C1477  C1492   1.397   .     A
C1477  H1586   1.084   .     S
C1477  C1256   1.368   1_655 S
C1478  C1493   1.397   .     A
C1478  H1587   1.083   .     S
C1479  C1490   1.417   .     A
C1479  O1606   1.381   .     S
C1479  C1483   1.386   .     A
C1480  C1491   1.417   .     A
C1480  C1484   1.395   .     A
C1480  O1592   1.385   .     S
C1481  C1485   1.390   .     A
C1481  C1491   1.409   .     A
C1481  O1593   1.383   .     S
C1482  C1487   1.393   .     A
C1482  C1490   1.413   .     A
C1482  O1594   1.382   .     S
C1483  O1595   1.387   .     S
C1483  C1488   1.406   .     A
C1484  C1489   1.410   .     A
C1484  O1596   1.384   .     S
C1485  C1489   1.416   .     A
C1485  O1597   1.386   .     S
C1486  O1599   1.281   .     A
C1486  O1600   1.283   .     A
C1486  C1492   1.417   .     S
C1487  C1488   1.408   .     A
C1487  O1598   1.386   .     S
C1488  C1497   1.453   .     S
C1489  C1508   1.463   .     S
C1491  C284    1.478   1_556 S
C1493  C1524   1.396   .     A
C1494  O1606   1.415   .     S
C1494  H1526   1.114   .     S
C1494  H1588   1.106   .     S
C1494  C1495   1.533   .     S
C1495  H1527   1.109   .     S
C1495  C1496   1.524   .     S
C1495  H1528   1.110   .     S
C1496  H1531   1.111   .     S
C1496  H1530   1.109   .     S
C1496  H1529   1.108   .     S
C1497  O1605   1.287   .     A
C1497  O1602   1.293   .     A
C1498  C1499   1.535   .     S
C1498  O1592   1.416   .     S
C1498  H326    1.108   1_556 S
C1498  H327    1.115   1_556 S
C1499  H1534   1.111   .     S
C1499  H1535   1.111   .     S
C1499  C1500   1.526   .     S
C1500  H1537   1.111   .     S
C1500  H1270   1.110   1_655 S
C1500  H333    1.110   1_556 S
C1501  O1593   1.419   .     S
C1501  H1540   1.112   .     S
C1501  H1541   1.119   .     S
C1501  C1502   1.529   .     S
C1502  H1543   1.111   .     S
C1502  C1503   1.522   .     S
C1502  H1542   1.110   .     S
C1503  H1545   1.110   .     S
C1503  H338    1.108   1_556 S
C1503  H340    1.110   1_556 S
C1504  H1548   1.108   .     S
C1504  H1549   1.120   .     S
C1504  C1505   1.531   .     S
C1504  O1594   1.421   .     S
C1505  H1551   1.109   .     S
C1505  C1506   1.526   .     S
C1505  H1550   1.112   .     S
C1506  H1554   1.110   .     S
C1506  H1553   1.110   .     S
C1506  H1552   1.111   .     S
C1507  H1556   1.112   .     S
C1507  O1595   1.420   .     S
C1507  C1509   1.535   .     S
C1507  H1555   1.109   .     S
C1508  O1603   1.298   .     A
C1508  O1604   1.289   .     A
C1509  C1510   1.526   .     S
C1509  H1557   1.108   .     S
C1509  H1559   1.111   .     S
C1510  H1562   1.111   .     S
C1510  H1560   1.111   .     S
C1511  H1564   1.111   .     S
C1511  C1512   1.534   .     S
C1511  H1563   1.108   .     S
C1511  O1596   1.424   .     S
C1512  C1513   1.523   .     S
C1512  H1566   1.109   .     S
C1512  H1565   1.108   .     S
C1513  H1567   1.111   .     S
C1513  H1568   1.108   .     S
C1513  H2374   1.109   1_545 S
C1514  H1572   1.113   .     S
C1514  O1597   1.425   .     S
C1514  H1571   1.108   .     S
C1514  C1515   1.523   .     S
C1515  C1516   1.526   .     S
C1515  H1573   1.106   .     S
C1515  H1574   1.107   .     S
C1516  H1575   1.111   .     S
C1516  H1978   1.110   .     S
C1516  H1979   1.110   .     S
C1517  H1579   1.110   .     S
C1517  H1578   1.119   .     S
C1517  C1518   1.533   .     S
C1517  O1598   1.418   .     S
C1518  C1520   1.526   .     S
C1518  H1582   1.109   .     S
C1518  H1581   1.104   .     S
C1519  H1525   1.081   .     S
C1519  N1590   1.367   .     A
C1519  C2327   1.415   1_545 S
C1520  H1584   1.111   .     S
C1520  H1583   1.107   .     S
C1520  H1585   1.111   .     S
C1521  H1536   1.079   .     S
C1521  N1589   1.366   .     A
C1521  C1924   1.415   .     S
C1522  N1590   1.366   .     A
C1522  H1547   1.081   .     S
C1522  C2325   1.415   1_545 S
C1523  H1558   1.081   .     S
C1523  N1589   1.366   .     A
C1523  C1921   1.415   .     S
C1524  H1569   1.084   .     S
H1561  C1242   1.108   1_655 S
H1570  C1915   1.109   .     S
H1576  C2320   1.110   1_545 S
H1577  C2320   1.110   1_545 S
N1589  Zn1607  2.009   .     S
N1590  Zn1608  2.009   .     S
O1591  Zn1607  1.995   .     S
O1599  Zn1608  1.995   .     S
O1600  Zn1607  1.998   .     S
O1601  Zn1608  1.998   .     S
O1602  Zn1607  2.016   .     S
O1603  Zn1608  2.016   .     S
O1604  Zn1607  2.016   .     S
O1605  Zn1608  2.016   .     S
C1609  C1627   1.417   .     S
C1609  O1725   1.281   .     A
C1609  O1735   1.282   .     A
C1610  C1626   1.396   .     A
C1610  H1714   1.084   .     S
C1610  C1746   1.369   .     S
C1611  C1626   1.397   .     A
C1611  H1720   1.084   .     S
C1611  C1792   1.368   .     S
C1612  C1627   1.397   .     A
C1612  H1721   1.083   .     S
C1612  C1878   1.369   1_455 S
C1613  C1624   1.417   .     A
C1613  O1740   1.381   .     S
C1613  C1617   1.386   .     A
C1614  C1625   1.417   .     A
C1614  C1618   1.395   .     A
C1614  O1726   1.385   .     S
C1615  C1619   1.390   .     A
C1615  C1625   1.409   .     A
C1615  O1727   1.383   .     S
C1616  C1621   1.393   .     A
C1616  C1624   1.413   .     A
C1616  O1728   1.382   .     S
C1617  O1729   1.387   .     S
C1617  C1622   1.406   .     A
C1618  C1623   1.410   .     A
C1618  O1730   1.384   .     S
C1619  C1623   1.416   .     A
C1619  O1731   1.386   .     S
C1620  O1733   1.281   .     A
C1620  O1734   1.283   .     A
C1620  C1626   1.417   .     S
C1621  C1622   1.408   .     A
C1621  O1732   1.386   .     S
C1622  C1631   1.453   .     S
C1623  C1642   1.463   .     S
C1625  C418    1.478   1_556 S
C1627  C1658   1.396   .     A
C1628  O1740   1.415   .     S
C1628  H1660   1.114   .     S
C1628  H1722   1.106   .     S
C1628  C1629   1.533   .     S
C1629  H1661   1.109   .     S
C1629  C1630   1.524   .     S
C1629  H1662   1.110   .     S
C1630  H1665   1.111   .     S
C1630  H1664   1.109   .     S
C1630  H1663   1.108   .     S
C1631  O1739   1.287   .     A
C1631  O1736   1.293   .     A
C1632  C1633   1.535   .     S
C1632  O1726   1.416   .     S
C1632  H460    1.108   1_556 S
C1632  H461    1.115   1_556 S
C1633  H1668   1.111   .     S
C1633  H1669   1.111   .     S
C1633  C1634   1.526   .     S
C1634  H1671   1.111   .     S
C1634  H1806   1.110   .     S
C1634  H467    1.110   1_556 S
C1635  O1727   1.419   .     S
C1635  H1674   1.112   .     S
C1635  H1675   1.119   .     S
C1635  C1636   1.529   .     S
C1636  H1677   1.111   .     S
C1636  C1637   1.522   .     S
C1636  H1676   1.110   .     S
C1637  H1679   1.110   .     S
C1637  H472    1.108   1_556 S
C1637  H474    1.110   1_556 S
C1638  H1682   1.108   .     S
C1638  H1683   1.120   .     S
C1638  C1639   1.531   .     S
C1638  O1728   1.421   .     S
C1639  H1685   1.109   .     S
C1639  C1640   1.526   .     S
C1639  H1684   1.112   .     S
C1640  H1688   1.110   .     S
C1640  H1687   1.110   .     S
C1640  H1686   1.111   .     S
C1641  H1690   1.112   .     S
C1641  O1729   1.420   .     S
C1641  C1643   1.535   .     S
C1641  H1689   1.109   .     S
C1642  O1737   1.298   .     A
C1642  O1738   1.289   .     A
C1643  C1644   1.526   .     S
C1643  H1691   1.108   .     S
C1643  H1693   1.111   .     S
C1644  H1696   1.111   .     S
C1644  H1694   1.111   .     S
C1644  H1963   1.108   1_455 S
C1645  H1698   1.111   .     S
C1645  C1646   1.534   .     S
C1645  H1697   1.108   .     S
C1645  O1730   1.424   .     S
C1646  C1647   1.523   .     S
C1646  H1700   1.109   .     S
C1646  H1699   1.108   .     S
C1647  H1701   1.111   .     S
C1647  H1702   1.108   .     S
C1648  H1706   1.113   .     S
C1648  O1731   1.425   .     S
C1648  H1705   1.108   .     S
C1648  C1649   1.523   .     S
C1649  C1650   1.526   .     S
C1649  H1707   1.106   .     S
C1649  H1708   1.107   .     S
C1650  H1709   1.111   .     S
C1650  H2112   1.110   .     S
C1650  H2113   1.110   .     S
C1651  H1713   1.110   .     S
C1651  H1712   1.119   .     S
C1651  C1652   1.533   .     S
C1651  O1732   1.418   .     S
C1652  C1654   1.526   .     S
C1652  H1716   1.109   .     S
C1652  H1715   1.104   .     S
C1653  H1659   1.081   .     S
C1653  N1724   1.367   .     A
C1654  H1718   1.111   .     S
C1654  H1717   1.107   .     S
C1654  H1719   1.111   .     S
C1655  H1670   1.079   .     S
C1655  N1723   1.366   .     A
C1655  C2058   1.415   .     S
C1656  N1724   1.366   .     A
C1656  H1681   1.081   .     S
C1657  H1692   1.081   .     S
C1657  N1723   1.366   .     A
C1657  C2055   1.415   .     S
C1658  H1703   1.084   .     S
C1658  C1879   1.368   1_455 S
H1672  C1902   1.110   1_455 S
H1695  C1778   1.108   .     S
H1704  C2049   1.109   .     S
N1723  Zn1741  2.009   .     S
N1724  Zn1742  2.009   .     S
O1725  Zn1741  1.995   .     S
O1733  Zn1742  1.995   .     S
O1734  Zn1741  1.998   .     S
O1735  Zn1742  1.998   .     S
O1736  Zn1741  2.016   .     S
O1737  Zn1742  2.016   .     S
O1738  Zn1741  2.016   .     S
O1739  Zn1742  2.016   .     S
C1743  C1761   1.417   .     S
C1743  O1859   1.281   .     A
C1743  O1869   1.282   .     A
C1744  C1760   1.396   .     A
C1744  H1848   1.084   .     S
C1744  C1880   1.369   .     S
C1745  C1760   1.397   .     A
C1745  H1854   1.084   .     S
C1745  C1926   1.368   .     S
C1746  C1761   1.397   .     A
C1746  H1855   1.083   .     S
C1747  C1758   1.417   .     A
C1747  O1874   1.381   .     S
C1747  C1751   1.386   .     A
C1748  C1759   1.417   .     A
C1748  C1752   1.395   .     A
C1748  O1860   1.385   .     S
C1749  C1753   1.390   .     A
C1749  C1759   1.409   .     A
C1749  O1861   1.383   .     S
C1750  C1755   1.393   .     A
C1750  C1758   1.413   .     A
C1750  O1862   1.382   .     S
C1751  O1863   1.387   .     S
C1751  C1756   1.406   .     A
C1752  C1757   1.410   .     A
C1752  O1864   1.384   .     S
C1753  C1757   1.416   .     A
C1753  O1865   1.386   .     S
C1754  O1867   1.281   .     A
C1754  O1868   1.283   .     A
C1754  C1760   1.417   .     S
C1755  C1756   1.408   .     A
C1755  O1866   1.386   .     S
C1756  C1765   1.453   .     S
C1757  C1776   1.463   .     S
C1759  C552    1.478   1_556 S
C1761  C1792   1.396   .     A
C1762  O1874   1.415   .     S
C1762  H1794   1.114   .     S
C1762  H1856   1.106   .     S
C1762  C1763   1.533   .     S
C1763  H1795   1.109   .     S
C1763  C1764   1.524   .     S
C1763  H1796   1.110   .     S
C1764  H1799   1.111   .     S
C1764  H1798   1.109   .     S
C1764  H1797   1.108   .     S
C1765  O1873   1.287   .     A
C1765  O1870   1.293   .     A
C1766  C1767   1.535   .     S
C1766  O1860   1.416   .     S
C1766  H594    1.108   1_556 S
C1766  H595    1.115   1_556 S
C1767  H1802   1.111   .     S
C1767  H1803   1.111   .     S
C1767  C1768   1.526   .     S
C1768  H1805   1.111   .     S
C1768  H1940   1.110   .     S
C1768  H601    1.110   1_556 S
C1769  O1861   1.419   .     S
C1769  H1808   1.112   .     S
C1769  H1809   1.119   .     S
C1769  C1770   1.529   .     S
C1770  H1811   1.111   .     S
C1770  C1771   1.522   .     S
C1770  H1810   1.110   .     S
C1771  H1813   1.110   .     S
C1771  H606    1.108   1_556 S
C1771  H608    1.110   1_556 S
C1772  H1816   1.108   .     S
C1772  H1817   1.120   .     S
C1772  C1773   1.531   .     S
C1772  O1862   1.421   .     S
C1773  H1819   1.109   .     S
C1773  C1774   1.526   .     S
C1773  H1818   1.112   .     S
C1774  H1822   1.110   .     S
C1774  H1821   1.110   .     S
C1774  H1820   1.111   .     S
C1775  H1824   1.112   .     S
C1775  O1863   1.420   .     S
C1775  C1777   1.535   .     S
C1775  H1823   1.109   .     S
C1776  O1871   1.298   .     A
C1776  O1872   1.289   .     A
C1777  C1778   1.526   .     S
C1777  H1825   1.108   .     S
C1777  H1827   1.111   .     S
C1778  H1830   1.111   .     S
C1778  H1828   1.111   .     S
C1779  H1832   1.111   .     S
C1779  C1780   1.534   .     S
C1779  H1831   1.108   .     S
C1779  O1864   1.424   .     S
C1780  C1781   1.523   .     S
C1780  H1834   1.109   .     S
C1780  H1833   1.108   .     S
C1781  H1835   1.111   .     S
C1781  H1836   1.108   .     S
C1782  H1840   1.113   .     S
C1782  O1865   1.425   .     S
C1782  H1839   1.108   .     S
C1782  C1783   1.523   .     S
C1783  C1784   1.526   .     S
C1783  H1841   1.106   .     S
C1783  H1842   1.107   .     S
C1784  H1843   1.111   .     S
C1784  H2246   1.110   .     S
C1784  H2247   1.110   .     S
C1785  H1847   1.110   .     S
C1785  H1846   1.119   .     S
C1785  C1786   1.533   .     S
C1785  O1866   1.418   .     S
C1786  C1788   1.526   .     S
C1786  H1850   1.109   .     S
C1786  H1849   1.104   .     S
C1787  H1793   1.081   .     S
C1787  N1858   1.367   .     A
C1788  H1852   1.111   .     S
C1788  H1851   1.107   .     S
C1788  H1853   1.111   .     S
C1789  H1804   1.079   .     S
C1789  N1857   1.366   .     A
C1789  C2192   1.415   .     S
C1790  N1858   1.366   .     A
C1790  H1815   1.081   .     S
C1791  H1826   1.081   .     S
C1791  N1857   1.366   .     A
C1791  C2189   1.415   .     S
C1792  H1837   1.084   .     S
H1829  C1912   1.108   .     S
H1838  C2183   1.109   .     S
N1857  Zn1875  2.009   .     S
N1858  Zn1876  2.009   .     S
O1859  Zn1875  1.995   .     S
O1867  Zn1876  1.995   .     S
O1868  Zn1875  1.998   .     S
O1869  Zn1876  1.998   .     S
O1870  Zn1875  2.016   .     S
O1871  Zn1876  2.016   .     S
O1872  Zn1875  2.016   .     S
O1873  Zn1876  2.016   .     S
C1877  C1895   1.417   .     S
C1877  O1993   1.281   .     A
C1877  O2003   1.282   .     A
C1878  C1894   1.396   .     A
C1878  H1982   1.084   .     S
C1878  C1612   1.369   1_655 S
C1879  C1894   1.397   .     A
C1879  H1988   1.084   .     S
C1879  C1658   1.368   1_655 S
C1880  C1895   1.397   .     A
C1880  H1989   1.083   .     S
C1881  C1892   1.417   .     A
C1881  O2008   1.381   .     S
C1881  C1885   1.386   .     A
C1882  C1893   1.417   .     A
C1882  C1886   1.395   .     A
C1882  O1994   1.385   .     S
C1883  C1887   1.390   .     A
C1883  C1893   1.409   .     A
C1883  O1995   1.383   .     S
C1884  C1889   1.393   .     A
C1884  C1892   1.413   .     A
C1884  O1996   1.382   .     S
C1885  O1997   1.387   .     S
C1885  C1890   1.406   .     A
C1886  C1891   1.410   .     A
C1886  O1998   1.384   .     S
C1887  C1891   1.416   .     A
C1887  O1999   1.386   .     S
C1888  O2001   1.281   .     A
C1888  O2002   1.283   .     A
C1888  C1894   1.417   .     S
C1889  C1890   1.408   .     A
C1889  O2000   1.386   .     S
C1890  C1899   1.453   .     S
C1891  C1910   1.463   .     S
C1893  C686    1.478   1_556 S
C1895  C1926   1.396   .     A
C1896  O2008   1.415   .     S
C1896  H1928   1.114   .     S
C1896  H1990   1.106   .     S
C1896  C1897   1.533   .     S
C1897  H1929   1.109   .     S
C1897  C1898   1.524   .     S
C1897  H1930   1.110   .     S
C1898  H1933   1.111   .     S
C1898  H1932   1.109   .     S
C1898  H1931   1.108   .     S
C1899  O2007   1.287   .     A
C1899  O2004   1.293   .     A
C1900  C1901   1.535   .     S
C1900  O1994   1.416   .     S
C1900  H728    1.108   1_556 S
C1900  H729    1.115   1_556 S
C1901  H1936   1.111   .     S
C1901  H1937   1.111   .     S
C1901  C1902   1.526   .     S
C1902  H1939   1.111   .     S
C1902  H1672   1.110   1_655 S
C1902  H735    1.110   1_556 S
C1903  O1995   1.419   .     S
C1903  H1942   1.112   .     S
C1903  H1943   1.119   .     S
C1903  C1904   1.529   .     S
C1904  H1945   1.111   .     S
C1904  C1905   1.522   .     S
C1904  H1944   1.110   .     S
C1905  H1947   1.110   .     S
C1905  H740    1.108   1_556 S
C1905  H742    1.110   1_556 S
C1906  H1950   1.108   .     S
C1906  H1951   1.120   .     S
C1906  C1907   1.531   .     S
C1906  O1996   1.421   .     S
C1907  H1953   1.109   .     S
C1907  C1908   1.526   .     S
C1907  H1952   1.112   .     S
C1908  H1956   1.110   .     S
C1908  H1955   1.110   .     S
C1908  H1954   1.111   .     S
C1909  H1958   1.112   .     S
C1909  O1997   1.420   .     S
C1909  C1911   1.535   .     S
C1909  H1957   1.109   .     S
C1910  O2005   1.298   .     A
C1910  O2006   1.289   .     A
C1911  C1912   1.526   .     S
C1911  H1959   1.108   .     S
C1911  H1961   1.111   .     S
C1912  H1964   1.111   .     S
C1912  H1962   1.111   .     S
C1913  H1966   1.111   .     S
C1913  C1914   1.534   .     S
C1913  H1965   1.108   .     S
C1913  O1998   1.424   .     S
C1914  C1915   1.523   .     S
C1914  H1968   1.109   .     S
C1914  H1967   1.108   .     S
C1915  H1969   1.111   .     S
C1915  H1970   1.108   .     S
C1916  H1974   1.113   .     S
C1916  O1999   1.425   .     S
C1916  H1973   1.108   .     S
C1916  C1917   1.523   .     S
C1917  C1918   1.526   .     S
C1917  H1975   1.106   .     S
C1917  H1976   1.107   .     S
C1918  H1977   1.111   .     S
C1918  H2380   1.110   .     S
C1918  H2381   1.110   .     S
C1919  H1981   1.110   .     S
C1919  H1980   1.119   .     S
C1919  C1920   1.533   .     S
C1919  O2000   1.418   .     S
C1920  C1922   1.526   .     S
C1920  H1984   1.109   .     S
C1920  H1983   1.104   .     S
C1921  H1927   1.081   .     S
C1921  N1992   1.367   .     A
C1922  H1986   1.111   .     S
C1922  H1985   1.107   .     S
C1922  H1987   1.111   .     S
C1923  H1938   1.079   .     S
C1923  N1991   1.366   .     A
C1923  C2326   1.415   .     S
C1924  N1992   1.366   .     A
C1924  H1949   1.081   .     S
C1925  H1960   1.081   .     S
C1925  N1991   1.366   .     A
C1925  C2323   1.415   .     S
C1926  H1971   1.084   .     S
H1963  C1644   1.108   1_655 S
H1972  C2317   1.109   .     S
N1991  Zn2009  2.009   .     S
N1992  Zn2010  2.009   .     S
O1993  Zn2009  1.995   .     S
O2001  Zn2010  1.995   .     S
O2002  Zn2009  1.998   .     S
O2003  Zn2010  1.998   .     S
O2004  Zn2009  2.016   .     S
O2005  Zn2010  2.016   .     S
O2006  Zn2009  2.016   .     S
O2007  Zn2010  2.016   .     S
C2011  C2029   1.417   .     S
C2011  O2127   1.281   .     A
C2011  O2137   1.282   .     A
C2012  C2028   1.396   .     A
C2012  H2116   1.084   .     S
C2012  C2148   1.369   .     S
C2013  C2028   1.397   .     A
C2013  H2122   1.084   .     S
C2013  C2194   1.368   .     S
C2014  C2029   1.397   .     A
C2014  H2123   1.083   .     S
C2014  C2280   1.369   1_455 S
C2015  C2026   1.417   .     A
C2015  O2142   1.381   .     S
C2015  C2019   1.386   .     A
C2016  C2027   1.417   .     A
C2016  C2020   1.395   .     A
C2016  O2128   1.385   .     S
C2017  C2021   1.390   .     A
C2017  C2027   1.409   .     A
C2017  O2129   1.383   .     S
C2018  C2023   1.393   .     A
C2018  C2026   1.413   .     A
C2018  O2130   1.382   .     S
C2019  O2131   1.387   .     S
C2019  C2024   1.406   .     A
C2020  C2025   1.410   .     A
C2020  O2132   1.384   .     S
C2021  C2025   1.416   .     A
C2021  O2133   1.386   .     S
C2022  O2135   1.281   .     A
C2022  O2136   1.283   .     A
C2022  C2028   1.417   .     S
C2023  C2024   1.408   .     A
C2023  O2134   1.386   .     S
C2024  C2033   1.453   .     S
C2025  C2044   1.463   .     S
C2027  C820    1.478   1_556 S
C2029  C2060   1.396   .     A
C2030  O2142   1.415   .     S
C2030  H2062   1.114   .     S
C2030  H2124   1.106   .     S
C2030  C2031   1.533   .     S
C2031  H2063   1.109   .     S
C2031  C2032   1.524   .     S
C2031  H2064   1.110   .     S
C2032  H2067   1.111   .     S
C2032  H2066   1.109   .     S
C2032  H2065   1.108   .     S
C2033  O2141   1.287   .     A
C2033  O2138   1.293   .     A
C2034  C2035   1.535   .     S
C2034  O2128   1.416   .     S
C2034  H862    1.108   1_556 S
C2034  H863    1.115   1_556 S
C2035  H2070   1.111   .     S
C2035  H2071   1.111   .     S
C2035  C2036   1.526   .     S
C2036  H2073   1.111   .     S
C2036  H2208   1.110   .     S
C2036  H869    1.110   1_556 S
C2037  O2129   1.419   .     S
C2037  H2076   1.112   .     S
C2037  H2077   1.119   .     S
C2037  C2038   1.529   .     S
C2038  H2079   1.111   .     S
C2038  C2039   1.522   .     S
C2038  H2078   1.110   .     S
C2039  H2081   1.110   .     S
C2039  H874    1.108   1_556 S
C2039  H876    1.110   1_556 S
C2040  H2084   1.108   .     S
C2040  H2085   1.120   .     S
C2040  C2041   1.531   .     S
C2040  O2130   1.421   .     S
C2041  H2087   1.109   .     S
C2041  C2042   1.526   .     S
C2041  H2086   1.112   .     S
C2042  H2090   1.110   .     S
C2042  H2089   1.110   .     S
C2042  H2088   1.111   .     S
C2043  H2092   1.112   .     S
C2043  O2131   1.420   .     S
C2043  C2045   1.535   .     S
C2043  H2091   1.109   .     S
C2044  O2139   1.298   .     A
C2044  O2140   1.289   .     A
C2045  C2046   1.526   .     S
C2045  H2093   1.108   .     S
C2045  H2095   1.111   .     S
C2046  H2098   1.111   .     S
C2046  H2096   1.111   .     S
C2046  H2365   1.108   1_455 S
C2047  H2100   1.111   .     S
C2047  C2048   1.534   .     S
C2047  H2099   1.108   .     S
C2047  O2132   1.424   .     S
C2048  C2049   1.523   .     S
C2048  H2102   1.109   .     S
C2048  H2101   1.108   .     S
C2049  H2103   1.111   .     S
C2049  H2104   1.108   .     S
C2050  H2108   1.113   .     S
C2050  O2133   1.425   .     S
C2050  H2107   1.108   .     S
C2050  C2051   1.523   .     S
C2051  C2052   1.526   .     S
C2051  H2109   1.106   .     S
C2051  H2110   1.107   .     S
C2052  H2111   1.111   .     S
C2052  H1308   1.110   1_565 S
C2052  H1309   1.110   1_565 S
C2053  H2115   1.110   .     S
C2053  H2114   1.119   .     S
C2053  C2054   1.533   .     S
C2053  O2134   1.418   .     S
C2054  C2056   1.526   .     S
C2054  H2118   1.109   .     S
C2054  H2117   1.104   .     S
C2055  H2061   1.081   .     S
C2055  N2126   1.367   .     A
C2056  H2120   1.111   .     S
C2056  H2119   1.107   .     S
C2056  H2121   1.111   .     S
C2057  H2072   1.079   .     S
C2057  N2125   1.366   .     A
C2057  C1254   1.415   1_565 S
C2058  N2126   1.366   .     A
C2058  H2083   1.081   .     S
C2059  H2094   1.081   .     S
C2059  N2125   1.366   .     A
C2059  C1251   1.415   1_565 S
C2060  H2105   1.084   .     S
C2060  C2281   1.368   1_455 S
H2074  C2304   1.110   1_455 S
H2097  C2180   1.108   .     S
H2106  C1245   1.109   1_565 S
N2125  Zn2143  2.009   .     S
N2126  Zn2144  2.009   .     S
O2127  Zn2143  1.995   .     S
O2135  Zn2144  1.995   .     S
O2136  Zn2143  1.998   .     S
O2137  Zn2144  1.998   .     S
O2138  Zn2143  2.016   .     S
O2139  Zn2144  2.016   .     S
O2140  Zn2143  2.016   .     S
O2141  Zn2144  2.016   .     S
C2145  C2163   1.417   .     S
C2145  O2261   1.281   .     A
C2145  O2271   1.282   .     A
C2146  C2162   1.396   .     A
C2146  H2250   1.084   .     S
C2146  C2282   1.369   .     S
C2147  C2162   1.397   .     A
C2147  H2256   1.084   .     S
C2147  C2328   1.368   .     S
C2148  C2163   1.397   .     A
C2148  H2257   1.083   .     S
C2149  C2160   1.417   .     A
C2149  O2276   1.381   .     S
C2149  C2153   1.386   .     A
C2150  C2161   1.417   .     A
C2150  C2154   1.395   .     A
C2150  O2262   1.385   .     S
C2151  C2155   1.390   .     A
C2151  C2161   1.409   .     A
C2151  O2263   1.383   .     S
C2152  C2157   1.393   .     A
C2152  C2160   1.413   .     A
C2152  O2264   1.382   .     S
C2153  O2265   1.387   .     S
C2153  C2158   1.406   .     A
C2154  C2159   1.410   .     A
C2154  O2266   1.384   .     S
C2155  C2159   1.416   .     A
C2155  O2267   1.386   .     S
C2156  O2269   1.281   .     A
C2156  O2270   1.283   .     A
C2156  C2162   1.417   .     S
C2157  C2158   1.408   .     A
C2157  O2268   1.386   .     S
C2158  C2167   1.453   .     S
C2159  C2178   1.463   .     S
C2161  C954    1.478   1_556 S
C2163  C2194   1.396   .     A
C2164  O2276   1.415   .     S
C2164  H2196   1.114   .     S
C2164  H2258   1.106   .     S
C2164  C2165   1.533   .     S
C2165  H2197   1.109   .     S
C2165  C2166   1.524   .     S
C2165  H2198   1.110   .     S
C2166  H2201   1.111   .     S
C2166  H2200   1.109   .     S
C2166  H2199   1.108   .     S
C2167  O2275   1.287   .     A
C2167  O2272   1.293   .     A
C2168  C2169   1.535   .     S
C2168  O2262   1.416   .     S
C2168  H996    1.108   1_556 S
C2168  H997    1.115   1_556 S
C2169  H2204   1.111   .     S
C2169  H2205   1.111   .     S
C2169  C2170   1.526   .     S
C2170  H2207   1.111   .     S
C2170  H2342   1.110   .     S
C2170  H1003   1.110   1_556 S
C2171  O2263   1.419   .     S
C2171  H2210   1.112   .     S
C2171  H2211   1.119   .     S
C2171  C2172   1.529   .     S
C2172  H2213   1.111   .     S
C2172  C2173   1.522   .     S
C2172  H2212   1.110   .     S
C2173  H2215   1.110   .     S
C2173  H1008   1.108   1_556 S
C2173  H1010   1.110   1_556 S
C2174  H2218   1.108   .     S
C2174  H2219   1.120   .     S
C2174  C2175   1.531   .     S
C2174  O2264   1.421   .     S
C2175  H2221   1.109   .     S
C2175  C2176   1.526   .     S
C2175  H2220   1.112   .     S
C2176  H2224   1.110   .     S
C2176  H2223   1.110   .     S
C2176  H2222   1.111   .     S
C2177  H2226   1.112   .     S
C2177  O2265   1.420   .     S
C2177  C2179   1.535   .     S
C2177  H2225   1.109   .     S
C2178  O2273   1.298   .     A
C2178  O2274   1.289   .     A
C2179  C2180   1.526   .     S
C2179  H2227   1.108   .     S
C2179  H2229   1.111   .     S
C2180  H2232   1.111   .     S
C2180  H2230   1.111   .     S
C2181  H2234   1.111   .     S
C2181  C2182   1.534   .     S
C2181  H2233   1.108   .     S
C2181  O2266   1.424   .     S
C2182  C2183   1.523   .     S
C2182  H2236   1.109   .     S
C2182  H2235   1.108   .     S
C2183  H2237   1.111   .     S
C2183  H2238   1.108   .     S
C2184  H2242   1.113   .     S
C2184  O2267   1.425   .     S
C2184  H2241   1.108   .     S
C2184  C2185   1.523   .     S
C2185  C2186   1.526   .     S
C2185  H2243   1.106   .     S
C2185  H2244   1.107   .     S
C2186  H2245   1.111   .     S
C2186  H1442   1.110   1_565 S
C2186  H1443   1.110   1_565 S
C2187  H2249   1.110   .     S
C2187  H2248   1.119   .     S
C2187  C2188   1.533   .     S
C2187  O2268   1.418   .     S
C2188  C2190   1.526   .     S
C2188  H2252   1.109   .     S
C2188  H2251   1.104   .     S
C2189  H2195   1.081   .     S
C2189  N2260   1.367   .     A
C2190  H2254   1.111   .     S
C2190  H2253   1.107   .     S
C2190  H2255   1.111   .     S
C2191  H2206   1.079   .     S
C2191  N2259   1.366   .     A
C2191  C1388   1.415   1_565 S
C2192  N2260   1.366   .     A
C2192  H2217   1.081   .     S
C2193  H2228   1.081   .     S
C2193  N2259   1.366   .     A
C2193  C1385   1.415   1_565 S
C2194  H2239   1.084   .     S
H2231  C2314   1.108   .     S
H2240  C1379   1.109   1_565 S
N2259  Zn2277  2.009   .     S
N2260  Zn2278  2.009   .     S
O2261  Zn2277  1.995   .     S
O2269  Zn2278  1.995   .     S
O2270  Zn2277  1.998   .     S
O2271  Zn2278  1.998   .     S
O2272  Zn2277  2.016   .     S
O2273  Zn2278  2.016   .     S
O2274  Zn2277  2.016   .     S
O2275  Zn2278  2.016   .     S
C2279  C2297   1.417   .     S
C2279  O2395   1.281   .     A
C2279  O2405   1.282   .     A
C2280  C2296   1.396   .     A
C2280  H2384   1.084   .     S
C2280  C2014   1.369   1_655 S
C2281  C2296   1.397   .     A
C2281  H2390   1.084   .     S
C2281  C2060   1.368   1_655 S
C2282  C2297   1.397   .     A
C2282  H2391   1.083   .     S
C2283  C2294   1.417   .     A
C2283  O2410   1.381   .     S
C2283  C2287   1.386   .     A
C2284  C2295   1.417   .     A
C2284  C2288   1.395   .     A
C2284  O2396   1.385   .     S
C2285  C2289   1.390   .     A
C2285  C2295   1.409   .     A
C2285  O2397   1.383   .     S
C2286  C2291   1.393   .     A
C2286  C2294   1.413   .     A
C2286  O2398   1.382   .     S
C2287  O2399   1.387   .     S
C2287  C2292   1.406   .     A
C2288  C2293   1.410   .     A
C2288  O2400   1.384   .     S
C2289  C2293   1.416   .     A
C2289  O2401   1.386   .     S
C2290  O2403   1.281   .     A
C2290  O2404   1.283   .     A
C2290  C2296   1.417   .     S
C2291  C2292   1.408   .     A
C2291  O2402   1.386   .     S
C2292  C2301   1.453   .     S
C2293  C2312   1.463   .     S
C2295  C1088   1.478   1_556 S
C2297  C2328   1.396   .     A
C2298  O2410   1.415   .     S
C2298  H2330   1.114   .     S
C2298  H2392   1.106   .     S
C2298  C2299   1.533   .     S
C2299  H2331   1.109   .     S
C2299  C2300   1.524   .     S
C2299  H2332   1.110   .     S
C2300  H2335   1.111   .     S
C2300  H2334   1.109   .     S
C2300  H2333   1.108   .     S
C2301  O2409   1.287   .     A
C2301  O2406   1.293   .     A
C2302  C2303   1.535   .     S
C2302  O2396   1.416   .     S
C2302  H1130   1.108   1_556 S
C2302  H1131   1.115   1_556 S
C2303  H2338   1.111   .     S
C2303  H2339   1.111   .     S
C2303  C2304   1.526   .     S
C2304  H2341   1.111   .     S
C2304  H2074   1.110   1_655 S
C2304  H1137   1.110   1_556 S
C2305  O2397   1.419   .     S
C2305  H2344   1.112   .     S
C2305  H2345   1.119   .     S
C2305  C2306   1.529   .     S
C2306  H2347   1.111   .     S
C2306  C2307   1.522   .     S
C2306  H2346   1.110   .     S
C2307  H2349   1.110   .     S
C2307  H1142   1.108   1_556 S
C2307  H1144   1.110   1_556 S
C2308  H2352   1.108   .     S
C2308  H2353   1.120   .     S
C2308  C2309   1.531   .     S
C2308  O2398   1.421   .     S
C2309  H2355   1.109   .     S
C2309  C2310   1.526   .     S
C2309  H2354   1.112   .     S
C2310  H2358   1.110   .     S
C2310  H2357   1.110   .     S
C2310  H2356   1.111   .     S
C2311  H2360   1.112   .     S
C2311  O2399   1.420   .     S
C2311  C2313   1.535   .     S
C2311  H2359   1.109   .     S
C2312  O2407   1.298   .     A
C2312  O2408   1.289   .     A
C2313  C2314   1.526   .     S
C2313  H2361   1.108   .     S
C2313  H2363   1.111   .     S
C2314  H2366   1.111   .     S
C2314  H2364   1.111   .     S
C2315  H2368   1.111   .     S
C2315  C2316   1.534   .     S
C2315  H2367   1.108   .     S
C2315  O2400   1.424   .     S
C2316  C2317   1.523   .     S
C2316  H2370   1.109   .     S
C2316  H2369   1.108   .     S
C2317  H2371   1.111   .     S
C2317  H2372   1.108   .     S
C2318  H2376   1.113   .     S
C2318  O2401   1.425   .     S
C2318  H2375   1.108   .     S
C2318  C2319   1.523   .     S
C2319  C2320   1.526   .     S
C2319  H2377   1.106   .     S
C2319  H2378   1.107   .     S
C2320  H2379   1.111   .     S
C2320  H1576   1.110   1_565 S
C2320  H1577   1.110   1_565 S
C2321  H2383   1.110   .     S
C2321  H2382   1.119   .     S
C2321  C2322   1.533   .     S
C2321  O2402   1.418   .     S
C2322  C2324   1.526   .     S
C2322  H2386   1.109   .     S
C2322  H2385   1.104   .     S
C2323  H2329   1.081   .     S
C2323  N2394   1.367   .     A
C2324  H2388   1.111   .     S
C2324  H2387   1.107   .     S
C2324  H2389   1.111   .     S
C2325  H2340   1.079   .     S
C2325  N2393   1.366   .     A
C2325  C1522   1.415   1_565 S
C2326  N2394   1.366   .     A
C2326  H2351   1.081   .     S
C2327  H2362   1.081   .     S
C2327  N2393   1.366   .     A
C2327  C1519   1.415   1_565 S
C2328  H2373   1.084   .     S
H2365  C2046   1.108   1_655 S
H2374  C1513   1.109   1_565 S
N2393  Zn2411  2.009   .     S
N2394  Zn2412  2.009   .     S
O2395  Zn2411  1.995   .     S
O2403  Zn2412  1.995   .     S
O2404  Zn2411  1.998   .     S
O2405  Zn2412  1.998   .     S
O2406  Zn2411  2.016   .     S
O2407  Zn2412  2.016   .     S
O2408  Zn2411  2.016   .     S
O2409  Zn2412  2.016   .     S
