data_str_m2_o1_o17_pcu_sym.8
_audit_creation_date              2020-01-03
_audit_creation_method            'Materials Studio'
_symmetry_space_group_name_H-M    'P1'
_symmetry_Int_Tables_number       1
_symmetry_cell_setting            triclinic
loop_
_symmetry_equiv_pos_as_xyz
  x,y,z
_cell_length_a                    32.6763
_cell_length_b                    29.0092
_cell_length_c                    30.1668
_cell_angle_alpha                 90.0312
_cell_angle_beta                  95.2948
_cell_angle_gamma                 89.9686
loop_
_atom_site_label
_atom_site_type_symbol
_atom_site_fract_x
_atom_site_fract_y
_atom_site_fract_z
_atom_site_U_iso_or_equiv
_atom_site_adp_type
_atom_site_occupancy
C1     C     0.08751   0.16668   0.25009   0.00000  Uiso   1.00
C2     C     0.04283   0.16668   0.25032   0.00000  Uiso   1.00
C3     C     0.14024   0.02472   0.22037   0.00000  Uiso   1.00
C4     C     0.19309   0.30861   0.27964   0.00000  Uiso   1.00
C5     C     0.19304   0.02473   0.27969   0.00000  Uiso   1.00
C6     C     0.14030   0.30860   0.22031   0.00000  Uiso   1.00
C7     C     0.16650   0.16666   0.16443   0.00000  Uiso   1.00
C8     C     0.16683   0.16668   0.33557   0.00000  Uiso   1.00
C9     C     0.16927   0.20852   0.40756   0.00000  Uiso   1.00
C10    C     0.16406   0.12481   0.09244   0.00000  Uiso   1.00
C11    C     0.16686   0.16669   0.38408   0.00000  Uiso   1.00
C12    C     0.24583   0.16666   0.24991   0.00000  Uiso   1.00
C13    C     0.16647   0.16664   0.11592   0.00000  Uiso   1.00
C14    C     0.16439   0.12490   0.40704   0.00000  Uiso   1.00
C15    C     0.16894   0.20844   0.09296   0.00000  Uiso   1.00
C16    C     0.16425   0.12463   0.45321   0.00000  Uiso   1.00
C17    C     0.16908   0.20870   0.04679   0.00000  Uiso   1.00
C18    C     0.16673   0.16673   0.47675   0.00000  Uiso   1.00
C19    C     0.16661   0.16661   0.02325   0.00000  Uiso   1.00
C20    C     0.16930   0.20891   0.45383   0.00000  Uiso   1.00
C21    C     0.16403   0.12442   0.04617   0.00000  Uiso   1.00
C22    C     0.16161   0.08294   0.47618   0.00000  Uiso   1.00
C23    C     0.16149   0.08272   0.02238   0.00000  Uiso   1.00
C24    C     0.17172   0.25040   0.02382   0.00000  Uiso   1.00
C25    C     0.10998   0.04867   0.18663   0.00000  Uiso   1.00
C26    C     0.22335   0.28467   0.31337   0.00000  Uiso   1.00
C27    C     0.22272   0.04870   0.31402   0.00000  Uiso   1.00
C28    C     0.11062   0.28464   0.18598   0.00000  Uiso   1.00
C29    C     0.17184   0.25061   0.47762   0.00000  Uiso   1.00
C30    C     0.02131   0.12479   0.25135   0.00000  Uiso   1.00
C31    C     0.31203   0.20855   0.24865   0.00000  Uiso   1.00
C32    C     0.31226   0.12476   0.25075   0.00000  Uiso   1.00
C33    C     0.02107   0.20857   0.24925   0.00000  Uiso   1.00
C34    C     0.29050   0.16665   0.24968   0.00000  Uiso   1.00
Cu35   Cu    0.16667   0.21355   0.25000   0.00000  Uiso   1.00
Cu36   Cu    0.16667   0.11978   0.25000   0.00000  Uiso   1.00
F37    F     0.15882   0.04180   0.04375   0.00000  Uiso   1.00
F38    F     0.17452   0.29154   0.45625   0.00000  Uiso   1.00
F39    F     0.04093   0.08347   0.25329   0.00000  Uiso   1.00
F40    F     0.29240   0.24986   0.24671   0.00000  Uiso   1.00
F41    F     0.29288   0.08340   0.25103   0.00000  Uiso   1.00
F42    F     0.04045   0.24994   0.24897   0.00000  Uiso   1.00
H43    H     0.17113   0.24079   0.38981   0.00000  Uiso   1.00
H44    H     0.22393   0.24737   0.31250   0.00000  Uiso   1.00
H45    H     0.25523   0.29490   0.30817   0.00000  Uiso   1.00
H46    H     0.21671   0.29404   0.34765   0.00000  Uiso   1.00
H47    H     0.22404   0.08594   0.31237   0.00000  Uiso   1.00
H48    H     0.21474   0.04024   0.34804   0.00000  Uiso   1.00
H49    H     0.25469   0.03768   0.31033   0.00000  Uiso   1.00
H50    H     0.10930   0.24740   0.18763   0.00000  Uiso   1.00
H51    H     0.07864   0.29566   0.18967   0.00000  Uiso   1.00
H52    H     0.11860   0.29309   0.15196   0.00000  Uiso   1.00
H53    H     0.16220   0.09254   0.11019   0.00000  Uiso   1.00
H54    H     0.16241   0.09250   0.38904   0.00000  Uiso   1.00
H55    H     0.17092   0.24084   0.11096   0.00000  Uiso   1.00
H56    H     0.15959   0.05049   0.45832   0.00000  Uiso   1.00
H57    H     0.17374   0.28285   0.04168   0.00000  Uiso   1.00
H58    H     0.10941   0.08596   0.18750   0.00000  Uiso   1.00
H59    H     0.11662   0.03930   0.15235   0.00000  Uiso   1.00
H60    H     0.07811   0.03843   0.19183   0.00000  Uiso   1.00
N61    N     0.16667   0.28402   0.25000   0.00000  Uiso   1.00
N62    N     0.16667   0.04931   0.25000   0.00000  Uiso   1.00
O63    O     0.10655   0.20625   0.25000   0.00000  Uiso   1.00
O64    O     0.22679   0.12709   0.25001   0.00000  Uiso   1.00
O65    O     0.22679   0.20625   0.25001   0.00000  Uiso   1.00
O66    O     0.10655   0.12709   0.25000   0.00000  Uiso   1.00
O67    O     0.16666   0.20627   0.18513   0.00000  Uiso   1.00
O68    O     0.16668   0.12707   0.31487   0.00000  Uiso   1.00
O69    O     0.16668   0.20627   0.31487   0.00000  Uiso   1.00
O70    O     0.16666   0.12707   0.18513   0.00000  Uiso   1.00
C71    C     0.42084   0.16668   0.25009   0.00000  Uiso   1.00
C72    C     0.37616   0.16668   0.25032   0.00000  Uiso   1.00
C73    C     0.47357   0.02472   0.22037   0.00000  Uiso   1.00
C74    C     0.52643   0.30861   0.27964   0.00000  Uiso   1.00
C75    C     0.52637   0.02473   0.27969   0.00000  Uiso   1.00
C76    C     0.47363   0.30860   0.22031   0.00000  Uiso   1.00
C77    C     0.49984   0.16666   0.16443   0.00000  Uiso   1.00
C78    C     0.50016   0.16668   0.33557   0.00000  Uiso   1.00
C79    C     0.50260   0.20852   0.40756   0.00000  Uiso   1.00
C80    C     0.49740   0.12481   0.09244   0.00000  Uiso   1.00
C81    C     0.50019   0.16669   0.38408   0.00000  Uiso   1.00
C82    C     0.57916   0.16666   0.24991   0.00000  Uiso   1.00
C83    C     0.49981   0.16664   0.11592   0.00000  Uiso   1.00
C84    C     0.49773   0.12490   0.40704   0.00000  Uiso   1.00
C85    C     0.50227   0.20844   0.09296   0.00000  Uiso   1.00
C86    C     0.49759   0.12463   0.45321   0.00000  Uiso   1.00
C87    C     0.50241   0.20870   0.04679   0.00000  Uiso   1.00
C88    C     0.50006   0.16673   0.47675   0.00000  Uiso   1.00
C89    C     0.49994   0.16661   0.02325   0.00000  Uiso   1.00
C90    C     0.50264   0.20891   0.45383   0.00000  Uiso   1.00
C91    C     0.49737   0.12442   0.04617   0.00000  Uiso   1.00
C92    C     0.49494   0.08294   0.47618   0.00000  Uiso   1.00
C93    C     0.49482   0.08272   0.02238   0.00000  Uiso   1.00
C94    C     0.50506   0.25040   0.02382   0.00000  Uiso   1.00
C95    C     0.44331   0.04867   0.18663   0.00000  Uiso   1.00
C96    C     0.55669   0.28467   0.31337   0.00000  Uiso   1.00
C97    C     0.55605   0.04870   0.31402   0.00000  Uiso   1.00
C98    C     0.44395   0.28464   0.18598   0.00000  Uiso   1.00
C99    C     0.50518   0.25061   0.47762   0.00000  Uiso   1.00
C100   C     0.35464   0.12479   0.25135   0.00000  Uiso   1.00
C101   C     0.64536   0.20855   0.24865   0.00000  Uiso   1.00
C102   C     0.64560   0.12476   0.25075   0.00000  Uiso   1.00
C103   C     0.35440   0.20857   0.24925   0.00000  Uiso   1.00
C104   C     0.62384   0.16665   0.24968   0.00000  Uiso   1.00
Cu105  Cu    0.50000   0.21355   0.25000   0.00000  Uiso   1.00
Cu106  Cu    0.50000   0.11978   0.25000   0.00000  Uiso   1.00
F107   F     0.49215   0.04180   0.04375   0.00000  Uiso   1.00
F108   F     0.50785   0.29154   0.45625   0.00000  Uiso   1.00
F109   F     0.37427   0.08347   0.25329   0.00000  Uiso   1.00
F110   F     0.62573   0.24986   0.24671   0.00000  Uiso   1.00
F111   F     0.62621   0.08340   0.25103   0.00000  Uiso   1.00
F112   F     0.37379   0.24994   0.24897   0.00000  Uiso   1.00
H113   H     0.50446   0.24079   0.38981   0.00000  Uiso   1.00
H114   H     0.55726   0.24737   0.31250   0.00000  Uiso   1.00
H115   H     0.58856   0.29490   0.30817   0.00000  Uiso   1.00
H116   H     0.55005   0.29404   0.34765   0.00000  Uiso   1.00
H117   H     0.55737   0.08594   0.31237   0.00000  Uiso   1.00
H118   H     0.54807   0.04024   0.34804   0.00000  Uiso   1.00
H119   H     0.58803   0.03768   0.31033   0.00000  Uiso   1.00
H120   H     0.44263   0.24740   0.18763   0.00000  Uiso   1.00
H121   H     0.41198   0.29566   0.18967   0.00000  Uiso   1.00
H122   H     0.45193   0.29309   0.15196   0.00000  Uiso   1.00
H123   H     0.49554   0.09254   0.11019   0.00000  Uiso   1.00
H124   H     0.49574   0.09250   0.38904   0.00000  Uiso   1.00
H125   H     0.50426   0.24084   0.11096   0.00000  Uiso   1.00
H126   H     0.49293   0.05049   0.45832   0.00000  Uiso   1.00
H127   H     0.50707   0.28285   0.04168   0.00000  Uiso   1.00
H128   H     0.44274   0.08596   0.18750   0.00000  Uiso   1.00
H129   H     0.44995   0.03930   0.15235   0.00000  Uiso   1.00
H130   H     0.41144   0.03843   0.19183   0.00000  Uiso   1.00
N131   N     0.50000   0.28402   0.25000   0.00000  Uiso   1.00
N132   N     0.50000   0.04931   0.25000   0.00000  Uiso   1.00
O133   O     0.43988   0.20625   0.25000   0.00000  Uiso   1.00
O134   O     0.56012   0.12709   0.25001   0.00000  Uiso   1.00
O135   O     0.56012   0.20625   0.25001   0.00000  Uiso   1.00
O136   O     0.43988   0.12709   0.25000   0.00000  Uiso   1.00
O137   O     0.49999   0.20627   0.18513   0.00000  Uiso   1.00
O138   O     0.50001   0.12707   0.31487   0.00000  Uiso   1.00
O139   O     0.50001   0.20627   0.31487   0.00000  Uiso   1.00
O140   O     0.49999   0.12707   0.18513   0.00000  Uiso   1.00
C141   C     0.75417   0.16668   0.25009   0.00000  Uiso   1.00
C142   C     0.70950   0.16668   0.25032   0.00000  Uiso   1.00
C143   C     0.80691   0.02472   0.22037   0.00000  Uiso   1.00
C144   C     0.85976   0.30861   0.27964   0.00000  Uiso   1.00
C145   C     0.85970   0.02473   0.27969   0.00000  Uiso   1.00
C146   C     0.80696   0.30860   0.22031   0.00000  Uiso   1.00
C147   C     0.83317   0.16666   0.16443   0.00000  Uiso   1.00
C148   C     0.83350   0.16668   0.33557   0.00000  Uiso   1.00
C149   C     0.83594   0.20852   0.40756   0.00000  Uiso   1.00
C150   C     0.83073   0.12481   0.09244   0.00000  Uiso   1.00
C151   C     0.83353   0.16669   0.38408   0.00000  Uiso   1.00
C152   C     0.91250   0.16666   0.24991   0.00000  Uiso   1.00
C153   C     0.83314   0.16664   0.11592   0.00000  Uiso   1.00
C154   C     0.83106   0.12490   0.40704   0.00000  Uiso   1.00
C155   C     0.83561   0.20844   0.09296   0.00000  Uiso   1.00
C156   C     0.83092   0.12463   0.45321   0.00000  Uiso   1.00
C157   C     0.83575   0.20870   0.04679   0.00000  Uiso   1.00
C158   C     0.83339   0.16673   0.47675   0.00000  Uiso   1.00
C159   C     0.83327   0.16661   0.02325   0.00000  Uiso   1.00
C160   C     0.83597   0.20891   0.45383   0.00000  Uiso   1.00
C161   C     0.83070   0.12442   0.04617   0.00000  Uiso   1.00
C162   C     0.82828   0.08294   0.47618   0.00000  Uiso   1.00
C163   C     0.82816   0.08272   0.02238   0.00000  Uiso   1.00
C164   C     0.83839   0.25040   0.02382   0.00000  Uiso   1.00
C165   C     0.77665   0.04867   0.18663   0.00000  Uiso   1.00
C166   C     0.89002   0.28467   0.31337   0.00000  Uiso   1.00
C167   C     0.88938   0.04870   0.31402   0.00000  Uiso   1.00
C168   C     0.77728   0.28464   0.18598   0.00000  Uiso   1.00
C169   C     0.83851   0.25061   0.47762   0.00000  Uiso   1.00
C170   C     0.68797   0.12479   0.25135   0.00000  Uiso   1.00
C171   C     0.97870   0.20855   0.24865   0.00000  Uiso   1.00
C172   C     0.97893   0.12476   0.25075   0.00000  Uiso   1.00
C173   C     0.68774   0.20857   0.24925   0.00000  Uiso   1.00
C174   C     0.95717   0.16665   0.24968   0.00000  Uiso   1.00
Cu175  Cu    0.83333   0.21355   0.25000   0.00000  Uiso   1.00
Cu176  Cu    0.83333   0.11978   0.25000   0.00000  Uiso   1.00
F177   F     0.82548   0.04180   0.04375   0.00000  Uiso   1.00
F178   F     0.84118   0.29154   0.45625   0.00000  Uiso   1.00
F179   F     0.70760   0.08347   0.25329   0.00000  Uiso   1.00
F180   F     0.95907   0.24986   0.24671   0.00000  Uiso   1.00
F181   F     0.95955   0.08340   0.25103   0.00000  Uiso   1.00
F182   F     0.70712   0.24994   0.24897   0.00000  Uiso   1.00
H183   H     0.83780   0.24079   0.38981   0.00000  Uiso   1.00
H184   H     0.89059   0.24737   0.31250   0.00000  Uiso   1.00
H185   H     0.92189   0.29490   0.30817   0.00000  Uiso   1.00
H186   H     0.88338   0.29404   0.34765   0.00000  Uiso   1.00
H187   H     0.89070   0.08594   0.31237   0.00000  Uiso   1.00
H188   H     0.88140   0.04024   0.34804   0.00000  Uiso   1.00
H189   H     0.92136   0.03768   0.31033   0.00000  Uiso   1.00
H190   H     0.77596   0.24740   0.18763   0.00000  Uiso   1.00
H191   H     0.74531   0.29566   0.18967   0.00000  Uiso   1.00
H192   H     0.78526   0.29309   0.15196   0.00000  Uiso   1.00
H193   H     0.82887   0.09254   0.11019   0.00000  Uiso   1.00
H194   H     0.82908   0.09250   0.38904   0.00000  Uiso   1.00
H195   H     0.83759   0.24084   0.11096   0.00000  Uiso   1.00
H196   H     0.82626   0.05049   0.45832   0.00000  Uiso   1.00
H197   H     0.84041   0.28285   0.04168   0.00000  Uiso   1.00
H198   H     0.77607   0.08596   0.18750   0.00000  Uiso   1.00
H199   H     0.78329   0.03930   0.15235   0.00000  Uiso   1.00
H200   H     0.74477   0.03843   0.19183   0.00000  Uiso   1.00
N201   N     0.83333   0.28402   0.25000   0.00000  Uiso   1.00
N202   N     0.83333   0.04931   0.25000   0.00000  Uiso   1.00
O203   O     0.77321   0.20625   0.25000   0.00000  Uiso   1.00
O204   O     0.89345   0.12709   0.25001   0.00000  Uiso   1.00
O205   O     0.89345   0.20625   0.25001   0.00000  Uiso   1.00
O206   O     0.77321   0.12709   0.25000   0.00000  Uiso   1.00
O207   O     0.83332   0.20627   0.18513   0.00000  Uiso   1.00
O208   O     0.83334   0.12707   0.31487   0.00000  Uiso   1.00
O209   O     0.83334   0.20627   0.31487   0.00000  Uiso   1.00
O210   O     0.83332   0.12707   0.18513   0.00000  Uiso   1.00
C211   C     0.08751   0.50001   0.25009   0.00000  Uiso   1.00
C212   C     0.04283   0.50002   0.25032   0.00000  Uiso   1.00
C213   C     0.14024   0.35806   0.22037   0.00000  Uiso   1.00
C214   C     0.19309   0.64194   0.27964   0.00000  Uiso   1.00
C215   C     0.19304   0.35806   0.27969   0.00000  Uiso   1.00
C216   C     0.14030   0.64194   0.22031   0.00000  Uiso   1.00
C217   C     0.16650   0.49999   0.16443   0.00000  Uiso   1.00
C218   C     0.16683   0.50001   0.33557   0.00000  Uiso   1.00
C219   C     0.16927   0.54185   0.40756   0.00000  Uiso   1.00
C220   C     0.16406   0.45815   0.09244   0.00000  Uiso   1.00
C221   C     0.16686   0.50003   0.38408   0.00000  Uiso   1.00
C222   C     0.24583   0.49999   0.24991   0.00000  Uiso   1.00
C223   C     0.16647   0.49997   0.11592   0.00000  Uiso   1.00
C224   C     0.16439   0.45823   0.40704   0.00000  Uiso   1.00
C225   C     0.16894   0.54177   0.09296   0.00000  Uiso   1.00
C226   C     0.16425   0.45796   0.45321   0.00000  Uiso   1.00
C227   C     0.16908   0.54204   0.04679   0.00000  Uiso   1.00
C228   C     0.16673   0.50006   0.47675   0.00000  Uiso   1.00
C229   C     0.16661   0.49994   0.02325   0.00000  Uiso   1.00
C230   C     0.16930   0.54225   0.45383   0.00000  Uiso   1.00
C231   C     0.16403   0.45775   0.04617   0.00000  Uiso   1.00
C232   C     0.16161   0.41627   0.47618   0.00000  Uiso   1.00
C233   C     0.16149   0.41605   0.02238   0.00000  Uiso   1.00
C234   C     0.17172   0.58373   0.02382   0.00000  Uiso   1.00
C235   C     0.10998   0.38200   0.18663   0.00000  Uiso   1.00
C236   C     0.22335   0.61800   0.31337   0.00000  Uiso   1.00
C237   C     0.22272   0.38203   0.31402   0.00000  Uiso   1.00
C238   C     0.11062   0.61797   0.18598   0.00000  Uiso   1.00
C239   C     0.17184   0.58395   0.47762   0.00000  Uiso   1.00
C240   C     0.02131   0.45812   0.25135   0.00000  Uiso   1.00
C241   C     0.31203   0.54188   0.24865   0.00000  Uiso   1.00
C242   C     0.31226   0.45810   0.25075   0.00000  Uiso   1.00
C243   C     0.02107   0.54190   0.24925   0.00000  Uiso   1.00
C244   C     0.29050   0.49998   0.24968   0.00000  Uiso   1.00
Cu245  Cu    0.16667   0.54689   0.25000   0.00000  Uiso   1.00
Cu246  Cu    0.16667   0.45311   0.25000   0.00000  Uiso   1.00
F247   F     0.15882   0.37513   0.04375   0.00000  Uiso   1.00
F248   F     0.17452   0.62487   0.45625   0.00000  Uiso   1.00
F249   F     0.04093   0.41680   0.25329   0.00000  Uiso   1.00
F250   F     0.29240   0.58320   0.24671   0.00000  Uiso   1.00
F251   F     0.29288   0.41673   0.25103   0.00000  Uiso   1.00
F252   F     0.04045   0.58327   0.24897   0.00000  Uiso   1.00
H253   H     0.17113   0.57413   0.38981   0.00000  Uiso   1.00
H254   H     0.22393   0.58071   0.31250   0.00000  Uiso   1.00
H255   H     0.25523   0.62823   0.30817   0.00000  Uiso   1.00
H256   H     0.21671   0.62737   0.34765   0.00000  Uiso   1.00
H257   H     0.22404   0.41927   0.31237   0.00000  Uiso   1.00
H258   H     0.21474   0.37357   0.34804   0.00000  Uiso   1.00
H259   H     0.25469   0.37101   0.31033   0.00000  Uiso   1.00
H260   H     0.10930   0.58073   0.18763   0.00000  Uiso   1.00
H261   H     0.07864   0.62899   0.18967   0.00000  Uiso   1.00
H262   H     0.11860   0.62643   0.15196   0.00000  Uiso   1.00
H263   H     0.16220   0.42587   0.11019   0.00000  Uiso   1.00
H264   H     0.16241   0.42583   0.38904   0.00000  Uiso   1.00
H265   H     0.17092   0.57417   0.11096   0.00000  Uiso   1.00
H266   H     0.15959   0.38382   0.45832   0.00000  Uiso   1.00
H267   H     0.17374   0.61618   0.04168   0.00000  Uiso   1.00
H268   H     0.10941   0.41929   0.18750   0.00000  Uiso   1.00
H269   H     0.11662   0.37263   0.15235   0.00000  Uiso   1.00
H270   H     0.07811   0.37177   0.19183   0.00000  Uiso   1.00
N271   N     0.16667   0.61736   0.25000   0.00000  Uiso   1.00
N272   N     0.16667   0.38264   0.25000   0.00000  Uiso   1.00
O273   O     0.10655   0.53958   0.25000   0.00000  Uiso   1.00
O274   O     0.22679   0.46042   0.25001   0.00000  Uiso   1.00
O275   O     0.22679   0.53958   0.25001   0.00000  Uiso   1.00
O276   O     0.10655   0.46042   0.25000   0.00000  Uiso   1.00
O277   O     0.16666   0.53960   0.18513   0.00000  Uiso   1.00
O278   O     0.16668   0.46040   0.31487   0.00000  Uiso   1.00
O279   O     0.16668   0.53960   0.31487   0.00000  Uiso   1.00
O280   O     0.16666   0.46040   0.18513   0.00000  Uiso   1.00
C281   C     0.42084   0.50001   0.25009   0.00000  Uiso   1.00
C282   C     0.37616   0.50002   0.25032   0.00000  Uiso   1.00
C283   C     0.47357   0.35806   0.22037   0.00000  Uiso   1.00
C284   C     0.52643   0.64194   0.27964   0.00000  Uiso   1.00
C285   C     0.52637   0.35806   0.27969   0.00000  Uiso   1.00
C286   C     0.47363   0.64194   0.22031   0.00000  Uiso   1.00
C287   C     0.49984   0.49999   0.16443   0.00000  Uiso   1.00
C288   C     0.50016   0.50001   0.33557   0.00000  Uiso   1.00
C289   C     0.50260   0.54185   0.40756   0.00000  Uiso   1.00
C290   C     0.49740   0.45815   0.09244   0.00000  Uiso   1.00
C291   C     0.50019   0.50003   0.38408   0.00000  Uiso   1.00
C292   C     0.57916   0.49999   0.24991   0.00000  Uiso   1.00
C293   C     0.49981   0.49997   0.11592   0.00000  Uiso   1.00
C294   C     0.49773   0.45823   0.40704   0.00000  Uiso   1.00
C295   C     0.50227   0.54177   0.09296   0.00000  Uiso   1.00
C296   C     0.49759   0.45796   0.45321   0.00000  Uiso   1.00
C297   C     0.50241   0.54204   0.04679   0.00000  Uiso   1.00
C298   C     0.50006   0.50006   0.47675   0.00000  Uiso   1.00
C299   C     0.49994   0.49994   0.02325   0.00000  Uiso   1.00
C300   C     0.50264   0.54225   0.45383   0.00000  Uiso   1.00
C301   C     0.49737   0.45775   0.04617   0.00000  Uiso   1.00
C302   C     0.49494   0.41627   0.47618   0.00000  Uiso   1.00
C303   C     0.49482   0.41605   0.02238   0.00000  Uiso   1.00
C304   C     0.50506   0.58373   0.02382   0.00000  Uiso   1.00
C305   C     0.44331   0.38200   0.18663   0.00000  Uiso   1.00
C306   C     0.55669   0.61800   0.31337   0.00000  Uiso   1.00
C307   C     0.55605   0.38203   0.31402   0.00000  Uiso   1.00
C308   C     0.44395   0.61797   0.18598   0.00000  Uiso   1.00
C309   C     0.50518   0.58395   0.47762   0.00000  Uiso   1.00
C310   C     0.35464   0.45812   0.25135   0.00000  Uiso   1.00
C311   C     0.64536   0.54188   0.24865   0.00000  Uiso   1.00
C312   C     0.64560   0.45810   0.25075   0.00000  Uiso   1.00
C313   C     0.35440   0.54190   0.24925   0.00000  Uiso   1.00
C314   C     0.62384   0.49998   0.24968   0.00000  Uiso   1.00
Cu315  Cu    0.50000   0.54689   0.25000   0.00000  Uiso   1.00
Cu316  Cu    0.50000   0.45311   0.25000   0.00000  Uiso   1.00
F317   F     0.49215   0.37513   0.04375   0.00000  Uiso   1.00
F318   F     0.50785   0.62487   0.45625   0.00000  Uiso   1.00
F319   F     0.37427   0.41680   0.25329   0.00000  Uiso   1.00
F320   F     0.62573   0.58320   0.24671   0.00000  Uiso   1.00
F321   F     0.62621   0.41673   0.25103   0.00000  Uiso   1.00
F322   F     0.37379   0.58327   0.24897   0.00000  Uiso   1.00
H323   H     0.50446   0.57413   0.38981   0.00000  Uiso   1.00
H324   H     0.55726   0.58071   0.31250   0.00000  Uiso   1.00
H325   H     0.58856   0.62823   0.30817   0.00000  Uiso   1.00
H326   H     0.55005   0.62737   0.34765   0.00000  Uiso   1.00
H327   H     0.55737   0.41927   0.31237   0.00000  Uiso   1.00
H328   H     0.54807   0.37357   0.34804   0.00000  Uiso   1.00
H329   H     0.58803   0.37101   0.31033   0.00000  Uiso   1.00
H330   H     0.44263   0.58073   0.18763   0.00000  Uiso   1.00
H331   H     0.41198   0.62899   0.18967   0.00000  Uiso   1.00
H332   H     0.45193   0.62643   0.15196   0.00000  Uiso   1.00
H333   H     0.49554   0.42587   0.11019   0.00000  Uiso   1.00
H334   H     0.49574   0.42583   0.38904   0.00000  Uiso   1.00
H335   H     0.50426   0.57417   0.11096   0.00000  Uiso   1.00
H336   H     0.49293   0.38382   0.45832   0.00000  Uiso   1.00
H337   H     0.50707   0.61618   0.04168   0.00000  Uiso   1.00
H338   H     0.44274   0.41929   0.18750   0.00000  Uiso   1.00
H339   H     0.44995   0.37263   0.15235   0.00000  Uiso   1.00
H340   H     0.41144   0.37177   0.19183   0.00000  Uiso   1.00
N341   N     0.50000   0.61736   0.25000   0.00000  Uiso   1.00
N342   N     0.50000   0.38264   0.25000   0.00000  Uiso   1.00
O343   O     0.43988   0.53958   0.25000   0.00000  Uiso   1.00
O344   O     0.56012   0.46042   0.25001   0.00000  Uiso   1.00
O345   O     0.56012   0.53958   0.25001   0.00000  Uiso   1.00
O346   O     0.43988   0.46042   0.25000   0.00000  Uiso   1.00
O347   O     0.49999   0.53960   0.18513   0.00000  Uiso   1.00
O348   O     0.50001   0.46040   0.31487   0.00000  Uiso   1.00
O349   O     0.50001   0.53960   0.31487   0.00000  Uiso   1.00
O350   O     0.49999   0.46040   0.18513   0.00000  Uiso   1.00
C351   C     0.75417   0.50001   0.25009   0.00000  Uiso   1.00
C352   C     0.70950   0.50002   0.25032   0.00000  Uiso   1.00
C353   C     0.80691   0.35806   0.22037   0.00000  Uiso   1.00
C354   C     0.85976   0.64194   0.27964   0.00000  Uiso   1.00
C355   C     0.85970   0.35806   0.27969   0.00000  Uiso   1.00
C356   C     0.80696   0.64194   0.22031   0.00000  Uiso   1.00
C357   C     0.83317   0.49999   0.16443   0.00000  Uiso   1.00
C358   C     0.83350   0.50001   0.33557   0.00000  Uiso   1.00
C359   C     0.83594   0.54185   0.40756   0.00000  Uiso   1.00
C360   C     0.83073   0.45815   0.09244   0.00000  Uiso   1.00
C361   C     0.83353   0.50003   0.38408   0.00000  Uiso   1.00
C362   C     0.91250   0.49999   0.24991   0.00000  Uiso   1.00
C363   C     0.83314   0.49997   0.11592   0.00000  Uiso   1.00
C364   C     0.83106   0.45823   0.40704   0.00000  Uiso   1.00
C365   C     0.83561   0.54177   0.09296   0.00000  Uiso   1.00
C366   C     0.83092   0.45796   0.45321   0.00000  Uiso   1.00
C367   C     0.83575   0.54204   0.04679   0.00000  Uiso   1.00
C368   C     0.83339   0.50006   0.47675   0.00000  Uiso   1.00
C369   C     0.83327   0.49994   0.02325   0.00000  Uiso   1.00
C370   C     0.83597   0.54225   0.45383   0.00000  Uiso   1.00
C371   C     0.83070   0.45775   0.04617   0.00000  Uiso   1.00
C372   C     0.82828   0.41627   0.47618   0.00000  Uiso   1.00
C373   C     0.82816   0.41605   0.02238   0.00000  Uiso   1.00
C374   C     0.83839   0.58373   0.02382   0.00000  Uiso   1.00
C375   C     0.77665   0.38200   0.18663   0.00000  Uiso   1.00
C376   C     0.89002   0.61800   0.31337   0.00000  Uiso   1.00
C377   C     0.88938   0.38203   0.31402   0.00000  Uiso   1.00
C378   C     0.77728   0.61797   0.18598   0.00000  Uiso   1.00
C379   C     0.83851   0.58395   0.47762   0.00000  Uiso   1.00
C380   C     0.68797   0.45812   0.25135   0.00000  Uiso   1.00
C381   C     0.97870   0.54188   0.24865   0.00000  Uiso   1.00
C382   C     0.97893   0.45810   0.25075   0.00000  Uiso   1.00
C383   C     0.68774   0.54190   0.24925   0.00000  Uiso   1.00
C384   C     0.95717   0.49998   0.24968   0.00000  Uiso   1.00
Cu385  Cu    0.83333   0.54689   0.25000   0.00000  Uiso   1.00
Cu386  Cu    0.83333   0.45311   0.25000   0.00000  Uiso   1.00
F387   F     0.82548   0.37513   0.04375   0.00000  Uiso   1.00
F388   F     0.84118   0.62487   0.45625   0.00000  Uiso   1.00
F389   F     0.70760   0.41680   0.25329   0.00000  Uiso   1.00
F390   F     0.95907   0.58320   0.24671   0.00000  Uiso   1.00
F391   F     0.95955   0.41673   0.25103   0.00000  Uiso   1.00
F392   F     0.70712   0.58327   0.24897   0.00000  Uiso   1.00
H393   H     0.83780   0.57413   0.38981   0.00000  Uiso   1.00
H394   H     0.89059   0.58071   0.31250   0.00000  Uiso   1.00
H395   H     0.92189   0.62823   0.30817   0.00000  Uiso   1.00
H396   H     0.88338   0.62737   0.34765   0.00000  Uiso   1.00
H397   H     0.89070   0.41927   0.31237   0.00000  Uiso   1.00
H398   H     0.88140   0.37357   0.34804   0.00000  Uiso   1.00
H399   H     0.92136   0.37101   0.31033   0.00000  Uiso   1.00
H400   H     0.77596   0.58073   0.18763   0.00000  Uiso   1.00
H401   H     0.74531   0.62899   0.18967   0.00000  Uiso   1.00
H402   H     0.78526   0.62643   0.15196   0.00000  Uiso   1.00
H403   H     0.82887   0.42587   0.11019   0.00000  Uiso   1.00
H404   H     0.82908   0.42583   0.38904   0.00000  Uiso   1.00
H405   H     0.83759   0.57417   0.11096   0.00000  Uiso   1.00
H406   H     0.82626   0.38382   0.45832   0.00000  Uiso   1.00
H407   H     0.84041   0.61618   0.04168   0.00000  Uiso   1.00
H408   H     0.77607   0.41929   0.18750   0.00000  Uiso   1.00
H409   H     0.78329   0.37263   0.15235   0.00000  Uiso   1.00
H410   H     0.74477   0.37177   0.19183   0.00000  Uiso   1.00
N411   N     0.83333   0.61736   0.25000   0.00000  Uiso   1.00
N412   N     0.83333   0.38264   0.25000   0.00000  Uiso   1.00
O413   O     0.77321   0.53958   0.25000   0.00000  Uiso   1.00
O414   O     0.89345   0.46042   0.25001   0.00000  Uiso   1.00
O415   O     0.89345   0.53958   0.25001   0.00000  Uiso   1.00
O416   O     0.77321   0.46042   0.25000   0.00000  Uiso   1.00
O417   O     0.83332   0.53960   0.18513   0.00000  Uiso   1.00
O418   O     0.83334   0.46040   0.31487   0.00000  Uiso   1.00
O419   O     0.83334   0.53960   0.31487   0.00000  Uiso   1.00
O420   O     0.83332   0.46040   0.18513   0.00000  Uiso   1.00
C421   C     0.08751   0.83334   0.25009   0.00000  Uiso   1.00
C422   C     0.04283   0.83335   0.25032   0.00000  Uiso   1.00
C423   C     0.14024   0.69139   0.22037   0.00000  Uiso   1.00
C424   C     0.19309   0.97528   0.27964   0.00000  Uiso   1.00
C425   C     0.19304   0.69140   0.27969   0.00000  Uiso   1.00
C426   C     0.14030   0.97527   0.22031   0.00000  Uiso   1.00
C427   C     0.16650   0.83332   0.16443   0.00000  Uiso   1.00
C428   C     0.16683   0.83334   0.33557   0.00000  Uiso   1.00
C429   C     0.16927   0.87519   0.40756   0.00000  Uiso   1.00
C430   C     0.16406   0.79148   0.09244   0.00000  Uiso   1.00
C431   C     0.16686   0.83336   0.38408   0.00000  Uiso   1.00
C432   C     0.24583   0.83332   0.24991   0.00000  Uiso   1.00
C433   C     0.16647   0.83331   0.11592   0.00000  Uiso   1.00
C434   C     0.16439   0.79157   0.40704   0.00000  Uiso   1.00
C435   C     0.16894   0.87510   0.09296   0.00000  Uiso   1.00
C436   C     0.16425   0.79130   0.45321   0.00000  Uiso   1.00
C437   C     0.16908   0.87537   0.04679   0.00000  Uiso   1.00
C438   C     0.16673   0.83339   0.47675   0.00000  Uiso   1.00
C439   C     0.16661   0.83328   0.02325   0.00000  Uiso   1.00
C440   C     0.16930   0.87558   0.45383   0.00000  Uiso   1.00
C441   C     0.16403   0.79109   0.04617   0.00000  Uiso   1.00
C442   C     0.16161   0.74960   0.47618   0.00000  Uiso   1.00
C443   C     0.16149   0.74939   0.02238   0.00000  Uiso   1.00
C444   C     0.17172   0.91707   0.02382   0.00000  Uiso   1.00
C445   C     0.10998   0.71533   0.18663   0.00000  Uiso   1.00
C446   C     0.22335   0.95133   0.31337   0.00000  Uiso   1.00
C447   C     0.22272   0.71536   0.31402   0.00000  Uiso   1.00
C448   C     0.11062   0.95130   0.18598   0.00000  Uiso   1.00
C449   C     0.17184   0.91728   0.47762   0.00000  Uiso   1.00
C450   C     0.02131   0.79145   0.25135   0.00000  Uiso   1.00
C451   C     0.31203   0.87521   0.24865   0.00000  Uiso   1.00
C452   C     0.31226   0.79143   0.25075   0.00000  Uiso   1.00
C453   C     0.02107   0.87524   0.24925   0.00000  Uiso   1.00
C454   C     0.29050   0.83332   0.24968   0.00000  Uiso   1.00
Cu455  Cu    0.16667   0.88022   0.25000   0.00000  Uiso   1.00
Cu456  Cu    0.16667   0.78645   0.25000   0.00000  Uiso   1.00
F457   F     0.15882   0.70846   0.04375   0.00000  Uiso   1.00
F458   F     0.17452   0.95820   0.45625   0.00000  Uiso   1.00
F459   F     0.04093   0.75014   0.25329   0.00000  Uiso   1.00
F460   F     0.29240   0.91653   0.24671   0.00000  Uiso   1.00
F461   F     0.29288   0.75006   0.25103   0.00000  Uiso   1.00
F462   F     0.04045   0.91660   0.24897   0.00000  Uiso   1.00
H463   H     0.17113   0.90746   0.38981   0.00000  Uiso   1.00
H464   H     0.22393   0.91404   0.31250   0.00000  Uiso   1.00
H465   H     0.25523   0.96157   0.30817   0.00000  Uiso   1.00
H466   H     0.21671   0.96070   0.34765   0.00000  Uiso   1.00
H467   H     0.22404   0.75260   0.31237   0.00000  Uiso   1.00
H468   H     0.21474   0.70691   0.34804   0.00000  Uiso   1.00
H469   H     0.25469   0.70434   0.31033   0.00000  Uiso   1.00
H470   H     0.10930   0.91406   0.18763   0.00000  Uiso   1.00
H471   H     0.07864   0.96232   0.18967   0.00000  Uiso   1.00
H472   H     0.11860   0.95976   0.15196   0.00000  Uiso   1.00
H473   H     0.16220   0.75921   0.11019   0.00000  Uiso   1.00
H474   H     0.16241   0.75916   0.38904   0.00000  Uiso   1.00
H475   H     0.17092   0.90750   0.11096   0.00000  Uiso   1.00
H476   H     0.15959   0.71715   0.45832   0.00000  Uiso   1.00
H477   H     0.17374   0.94951   0.04168   0.00000  Uiso   1.00
H478   H     0.10941   0.75263   0.18750   0.00000  Uiso   1.00
H479   H     0.11662   0.70596   0.15235   0.00000  Uiso   1.00
H480   H     0.07811   0.70510   0.19183   0.00000  Uiso   1.00
N481   N     0.16667   0.95069   0.25000   0.00000  Uiso   1.00
N482   N     0.16667   0.71598   0.25000   0.00000  Uiso   1.00
O483   O     0.10655   0.87291   0.25000   0.00000  Uiso   1.00
O484   O     0.22679   0.79375   0.25001   0.00000  Uiso   1.00
O485   O     0.22679   0.87291   0.25001   0.00000  Uiso   1.00
O486   O     0.10655   0.79375   0.25000   0.00000  Uiso   1.00
O487   O     0.16666   0.87293   0.18513   0.00000  Uiso   1.00
O488   O     0.16668   0.79373   0.31487   0.00000  Uiso   1.00
O489   O     0.16668   0.87293   0.31487   0.00000  Uiso   1.00
O490   O     0.16666   0.79373   0.18513   0.00000  Uiso   1.00
C491   C     0.42084   0.83334   0.25009   0.00000  Uiso   1.00
C492   C     0.37616   0.83335   0.25032   0.00000  Uiso   1.00
C493   C     0.47357   0.69139   0.22037   0.00000  Uiso   1.00
C494   C     0.52643   0.97528   0.27964   0.00000  Uiso   1.00
C495   C     0.52637   0.69140   0.27969   0.00000  Uiso   1.00
C496   C     0.47363   0.97527   0.22031   0.00000  Uiso   1.00
C497   C     0.49984   0.83332   0.16443   0.00000  Uiso   1.00
C498   C     0.50016   0.83334   0.33557   0.00000  Uiso   1.00
C499   C     0.50260   0.87519   0.40756   0.00000  Uiso   1.00
C500   C     0.49740   0.79148   0.09244   0.00000  Uiso   1.00
C501   C     0.50019   0.83336   0.38408   0.00000  Uiso   1.00
C502   C     0.57916   0.83332   0.24991   0.00000  Uiso   1.00
C503   C     0.49981   0.83331   0.11592   0.00000  Uiso   1.00
C504   C     0.49773   0.79157   0.40704   0.00000  Uiso   1.00
C505   C     0.50227   0.87510   0.09296   0.00000  Uiso   1.00
C506   C     0.49759   0.79130   0.45321   0.00000  Uiso   1.00
C507   C     0.50241   0.87537   0.04679   0.00000  Uiso   1.00
C508   C     0.50006   0.83339   0.47675   0.00000  Uiso   1.00
C509   C     0.49994   0.83328   0.02325   0.00000  Uiso   1.00
C510   C     0.50264   0.87558   0.45383   0.00000  Uiso   1.00
C511   C     0.49737   0.79109   0.04617   0.00000  Uiso   1.00
C512   C     0.49494   0.74960   0.47618   0.00000  Uiso   1.00
C513   C     0.49482   0.74939   0.02238   0.00000  Uiso   1.00
C514   C     0.50506   0.91707   0.02382   0.00000  Uiso   1.00
C515   C     0.44331   0.71533   0.18663   0.00000  Uiso   1.00
C516   C     0.55669   0.95133   0.31337   0.00000  Uiso   1.00
C517   C     0.55605   0.71536   0.31402   0.00000  Uiso   1.00
C518   C     0.44395   0.95130   0.18598   0.00000  Uiso   1.00
C519   C     0.50518   0.91728   0.47762   0.00000  Uiso   1.00
C520   C     0.35464   0.79145   0.25135   0.00000  Uiso   1.00
C521   C     0.64536   0.87521   0.24865   0.00000  Uiso   1.00
C522   C     0.64560   0.79143   0.25075   0.00000  Uiso   1.00
C523   C     0.35440   0.87524   0.24925   0.00000  Uiso   1.00
C524   C     0.62384   0.83332   0.24968   0.00000  Uiso   1.00
Cu525  Cu    0.50000   0.88022   0.25000   0.00000  Uiso   1.00
Cu526  Cu    0.50000   0.78645   0.25000   0.00000  Uiso   1.00
F527   F     0.49215   0.70846   0.04375   0.00000  Uiso   1.00
F528   F     0.50785   0.95820   0.45625   0.00000  Uiso   1.00
F529   F     0.37427   0.75014   0.25329   0.00000  Uiso   1.00
F530   F     0.62573   0.91653   0.24671   0.00000  Uiso   1.00
F531   F     0.62621   0.75006   0.25103   0.00000  Uiso   1.00
F532   F     0.37379   0.91660   0.24897   0.00000  Uiso   1.00
H533   H     0.50446   0.90746   0.38981   0.00000  Uiso   1.00
H534   H     0.55726   0.91404   0.31250   0.00000  Uiso   1.00
H535   H     0.58856   0.96157   0.30817   0.00000  Uiso   1.00
H536   H     0.55005   0.96070   0.34765   0.00000  Uiso   1.00
H537   H     0.55737   0.75260   0.31237   0.00000  Uiso   1.00
H538   H     0.54807   0.70691   0.34804   0.00000  Uiso   1.00
H539   H     0.58803   0.70434   0.31033   0.00000  Uiso   1.00
H540   H     0.44263   0.91406   0.18763   0.00000  Uiso   1.00
H541   H     0.41198   0.96232   0.18967   0.00000  Uiso   1.00
H542   H     0.45193   0.95976   0.15196   0.00000  Uiso   1.00
H543   H     0.49554   0.75921   0.11019   0.00000  Uiso   1.00
H544   H     0.49574   0.75916   0.38904   0.00000  Uiso   1.00
H545   H     0.50426   0.90750   0.11096   0.00000  Uiso   1.00
H546   H     0.49293   0.71715   0.45832   0.00000  Uiso   1.00
H547   H     0.50707   0.94951   0.04168   0.00000  Uiso   1.00
H548   H     0.44274   0.75263   0.18750   0.00000  Uiso   1.00
H549   H     0.44995   0.70596   0.15235   0.00000  Uiso   1.00
H550   H     0.41144   0.70510   0.19183   0.00000  Uiso   1.00
N551   N     0.50000   0.95069   0.25000   0.00000  Uiso   1.00
N552   N     0.50000   0.71598   0.25000   0.00000  Uiso   1.00
O553   O     0.43988   0.87291   0.25000   0.00000  Uiso   1.00
O554   O     0.56012   0.79375   0.25001   0.00000  Uiso   1.00
O555   O     0.56012   0.87291   0.25001   0.00000  Uiso   1.00
O556   O     0.43988   0.79375   0.25000   0.00000  Uiso   1.00
O557   O     0.49999   0.87293   0.18513   0.00000  Uiso   1.00
O558   O     0.50001   0.79373   0.31487   0.00000  Uiso   1.00
O559   O     0.50001   0.87293   0.31487   0.00000  Uiso   1.00
O560   O     0.49999   0.79373   0.18513   0.00000  Uiso   1.00
C561   C     0.75417   0.83334   0.25009   0.00000  Uiso   1.00
C562   C     0.70950   0.83335   0.25032   0.00000  Uiso   1.00
C563   C     0.80691   0.69139   0.22037   0.00000  Uiso   1.00
C564   C     0.85976   0.97528   0.27964   0.00000  Uiso   1.00
C565   C     0.85970   0.69140   0.27969   0.00000  Uiso   1.00
C566   C     0.80696   0.97527   0.22031   0.00000  Uiso   1.00
C567   C     0.83317   0.83332   0.16443   0.00000  Uiso   1.00
C568   C     0.83350   0.83334   0.33557   0.00000  Uiso   1.00
C569   C     0.83594   0.87519   0.40756   0.00000  Uiso   1.00
C570   C     0.83073   0.79148   0.09244   0.00000  Uiso   1.00
C571   C     0.83353   0.83336   0.38408   0.00000  Uiso   1.00
C572   C     0.91250   0.83332   0.24991   0.00000  Uiso   1.00
C573   C     0.83314   0.83331   0.11592   0.00000  Uiso   1.00
C574   C     0.83106   0.79157   0.40704   0.00000  Uiso   1.00
C575   C     0.83561   0.87510   0.09296   0.00000  Uiso   1.00
C576   C     0.83092   0.79130   0.45321   0.00000  Uiso   1.00
C577   C     0.83575   0.87537   0.04679   0.00000  Uiso   1.00
C578   C     0.83339   0.83339   0.47675   0.00000  Uiso   1.00
C579   C     0.83327   0.83328   0.02325   0.00000  Uiso   1.00
C580   C     0.83597   0.87558   0.45383   0.00000  Uiso   1.00
C581   C     0.83070   0.79109   0.04617   0.00000  Uiso   1.00
C582   C     0.82828   0.74960   0.47618   0.00000  Uiso   1.00
C583   C     0.82816   0.74939   0.02238   0.00000  Uiso   1.00
C584   C     0.83839   0.91707   0.02382   0.00000  Uiso   1.00
C585   C     0.77665   0.71533   0.18663   0.00000  Uiso   1.00
C586   C     0.89002   0.95133   0.31337   0.00000  Uiso   1.00
C587   C     0.88938   0.71536   0.31402   0.00000  Uiso   1.00
C588   C     0.77728   0.95130   0.18598   0.00000  Uiso   1.00
C589   C     0.83851   0.91728   0.47762   0.00000  Uiso   1.00
C590   C     0.68797   0.79145   0.25135   0.00000  Uiso   1.00
C591   C     0.97870   0.87521   0.24865   0.00000  Uiso   1.00
C592   C     0.97893   0.79143   0.25075   0.00000  Uiso   1.00
C593   C     0.68774   0.87524   0.24925   0.00000  Uiso   1.00
C594   C     0.95717   0.83332   0.24968   0.00000  Uiso   1.00
Cu595  Cu    0.83333   0.88022   0.25000   0.00000  Uiso   1.00
Cu596  Cu    0.83333   0.78645   0.25000   0.00000  Uiso   1.00
F597   F     0.82548   0.70846   0.04375   0.00000  Uiso   1.00
F598   F     0.84118   0.95820   0.45625   0.00000  Uiso   1.00
F599   F     0.70760   0.75014   0.25329   0.00000  Uiso   1.00
F600   F     0.95907   0.91653   0.24671   0.00000  Uiso   1.00
F601   F     0.95955   0.75006   0.25103   0.00000  Uiso   1.00
F602   F     0.70712   0.91660   0.24897   0.00000  Uiso   1.00
H603   H     0.83780   0.90746   0.38981   0.00000  Uiso   1.00
H604   H     0.89059   0.91404   0.31250   0.00000  Uiso   1.00
H605   H     0.92189   0.96157   0.30817   0.00000  Uiso   1.00
H606   H     0.88338   0.96070   0.34765   0.00000  Uiso   1.00
H607   H     0.89070   0.75260   0.31237   0.00000  Uiso   1.00
H608   H     0.88140   0.70691   0.34804   0.00000  Uiso   1.00
H609   H     0.92136   0.70434   0.31033   0.00000  Uiso   1.00
H610   H     0.77596   0.91406   0.18763   0.00000  Uiso   1.00
H611   H     0.74531   0.96232   0.18967   0.00000  Uiso   1.00
H612   H     0.78526   0.95976   0.15196   0.00000  Uiso   1.00
H613   H     0.82887   0.75921   0.11019   0.00000  Uiso   1.00
H614   H     0.82908   0.75916   0.38904   0.00000  Uiso   1.00
H615   H     0.83759   0.90750   0.11096   0.00000  Uiso   1.00
H616   H     0.82626   0.71715   0.45832   0.00000  Uiso   1.00
H617   H     0.84041   0.94951   0.04168   0.00000  Uiso   1.00
H618   H     0.77607   0.75263   0.18750   0.00000  Uiso   1.00
H619   H     0.78329   0.70596   0.15235   0.00000  Uiso   1.00
H620   H     0.74477   0.70510   0.19183   0.00000  Uiso   1.00
N621   N     0.83333   0.95069   0.25000   0.00000  Uiso   1.00
N622   N     0.83333   0.71598   0.25000   0.00000  Uiso   1.00
O623   O     0.77321   0.87291   0.25000   0.00000  Uiso   1.00
O624   O     0.89345   0.79375   0.25001   0.00000  Uiso   1.00
O625   O     0.89345   0.87291   0.25001   0.00000  Uiso   1.00
O626   O     0.77321   0.79375   0.25000   0.00000  Uiso   1.00
O627   O     0.83332   0.87293   0.18513   0.00000  Uiso   1.00
O628   O     0.83334   0.79373   0.31487   0.00000  Uiso   1.00
O629   O     0.83334   0.87293   0.31487   0.00000  Uiso   1.00
O630   O     0.83332   0.79373   0.18513   0.00000  Uiso   1.00
C631   C     0.08751   0.16668   0.75009   0.00000  Uiso   1.00
C632   C     0.04283   0.16668   0.75032   0.00000  Uiso   1.00
C633   C     0.14024   0.02472   0.72037   0.00000  Uiso   1.00
C634   C     0.19309   0.30861   0.77964   0.00000  Uiso   1.00
C635   C     0.19304   0.02473   0.77969   0.00000  Uiso   1.00
C636   C     0.14030   0.30860   0.72031   0.00000  Uiso   1.00
C637   C     0.16650   0.16666   0.66443   0.00000  Uiso   1.00
C638   C     0.16683   0.16668   0.83557   0.00000  Uiso   1.00
C639   C     0.16927   0.20852   0.90756   0.00000  Uiso   1.00
C640   C     0.16406   0.12481   0.59244   0.00000  Uiso   1.00
C641   C     0.16686   0.16669   0.88408   0.00000  Uiso   1.00
C642   C     0.24583   0.16666   0.74991   0.00000  Uiso   1.00
C643   C     0.16647   0.16664   0.61592   0.00000  Uiso   1.00
C644   C     0.16439   0.12490   0.90704   0.00000  Uiso   1.00
C645   C     0.16894   0.20844   0.59296   0.00000  Uiso   1.00
C646   C     0.16425   0.12463   0.95321   0.00000  Uiso   1.00
C647   C     0.16908   0.20870   0.54679   0.00000  Uiso   1.00
C648   C     0.16673   0.16673   0.97675   0.00000  Uiso   1.00
C649   C     0.16661   0.16661   0.52325   0.00000  Uiso   1.00
C650   C     0.16930   0.20891   0.95383   0.00000  Uiso   1.00
C651   C     0.16403   0.12442   0.54617   0.00000  Uiso   1.00
C652   C     0.16161   0.08294   0.97618   0.00000  Uiso   1.00
C653   C     0.16149   0.08272   0.52238   0.00000  Uiso   1.00
C654   C     0.17172   0.25040   0.52382   0.00000  Uiso   1.00
C655   C     0.10998   0.04867   0.68663   0.00000  Uiso   1.00
C656   C     0.22335   0.28467   0.81337   0.00000  Uiso   1.00
C657   C     0.22272   0.04870   0.81402   0.00000  Uiso   1.00
C658   C     0.11062   0.28464   0.68598   0.00000  Uiso   1.00
C659   C     0.17184   0.25061   0.97762   0.00000  Uiso   1.00
C660   C     0.02131   0.12479   0.75135   0.00000  Uiso   1.00
C661   C     0.31203   0.20855   0.74865   0.00000  Uiso   1.00
C662   C     0.31226   0.12476   0.75075   0.00000  Uiso   1.00
C663   C     0.02107   0.20857   0.74925   0.00000  Uiso   1.00
C664   C     0.29050   0.16665   0.74968   0.00000  Uiso   1.00
Cu665  Cu    0.16667   0.21355   0.75000   0.00000  Uiso   1.00
Cu666  Cu    0.16667   0.11978   0.75000   0.00000  Uiso   1.00
F667   F     0.15882   0.04180   0.54375   0.00000  Uiso   1.00
F668   F     0.17452   0.29154   0.95625   0.00000  Uiso   1.00
F669   F     0.04093   0.08347   0.75329   0.00000  Uiso   1.00
F670   F     0.29240   0.24986   0.74671   0.00000  Uiso   1.00
F671   F     0.29288   0.08340   0.75103   0.00000  Uiso   1.00
F672   F     0.04045   0.24994   0.74897   0.00000  Uiso   1.00
H673   H     0.17113   0.24079   0.88981   0.00000  Uiso   1.00
H674   H     0.22393   0.24737   0.81250   0.00000  Uiso   1.00
H675   H     0.25523   0.29490   0.80817   0.00000  Uiso   1.00
H676   H     0.21671   0.29404   0.84765   0.00000  Uiso   1.00
H677   H     0.22404   0.08594   0.81237   0.00000  Uiso   1.00
H678   H     0.21474   0.04024   0.84804   0.00000  Uiso   1.00
H679   H     0.25469   0.03768   0.81033   0.00000  Uiso   1.00
H680   H     0.10930   0.24740   0.68763   0.00000  Uiso   1.00
H681   H     0.07864   0.29566   0.68967   0.00000  Uiso   1.00
H682   H     0.11860   0.29309   0.65196   0.00000  Uiso   1.00
H683   H     0.16220   0.09254   0.61019   0.00000  Uiso   1.00
H684   H     0.16241   0.09250   0.88904   0.00000  Uiso   1.00
H685   H     0.17092   0.24084   0.61096   0.00000  Uiso   1.00
H686   H     0.15959   0.05049   0.95832   0.00000  Uiso   1.00
H687   H     0.17374   0.28285   0.54168   0.00000  Uiso   1.00
H688   H     0.10941   0.08596   0.68750   0.00000  Uiso   1.00
H689   H     0.11662   0.03930   0.65235   0.00000  Uiso   1.00
H690   H     0.07811   0.03843   0.69183   0.00000  Uiso   1.00
N691   N     0.16667   0.28402   0.75000   0.00000  Uiso   1.00
N692   N     0.16667   0.04931   0.75000   0.00000  Uiso   1.00
O693   O     0.10655   0.20625   0.75000   0.00000  Uiso   1.00
O694   O     0.22679   0.12709   0.75001   0.00000  Uiso   1.00
O695   O     0.22679   0.20625   0.75001   0.00000  Uiso   1.00
O696   O     0.10655   0.12709   0.75000   0.00000  Uiso   1.00
O697   O     0.16666   0.20627   0.68513   0.00000  Uiso   1.00
O698   O     0.16668   0.12707   0.81487   0.00000  Uiso   1.00
O699   O     0.16668   0.20627   0.81487   0.00000  Uiso   1.00
O700   O     0.16666   0.12707   0.68513   0.00000  Uiso   1.00
C701   C     0.42084   0.16668   0.75009   0.00000  Uiso   1.00
C702   C     0.37616   0.16668   0.75032   0.00000  Uiso   1.00
C703   C     0.47357   0.02472   0.72037   0.00000  Uiso   1.00
C704   C     0.52643   0.30861   0.77964   0.00000  Uiso   1.00
C705   C     0.52637   0.02473   0.77969   0.00000  Uiso   1.00
C706   C     0.47363   0.30860   0.72031   0.00000  Uiso   1.00
C707   C     0.49984   0.16666   0.66443   0.00000  Uiso   1.00
C708   C     0.50016   0.16668   0.83557   0.00000  Uiso   1.00
C709   C     0.50260   0.20852   0.90756   0.00000  Uiso   1.00
C710   C     0.49740   0.12481   0.59244   0.00000  Uiso   1.00
C711   C     0.50019   0.16669   0.88408   0.00000  Uiso   1.00
C712   C     0.57916   0.16666   0.74991   0.00000  Uiso   1.00
C713   C     0.49981   0.16664   0.61592   0.00000  Uiso   1.00
C714   C     0.49773   0.12490   0.90704   0.00000  Uiso   1.00
C715   C     0.50227   0.20844   0.59296   0.00000  Uiso   1.00
C716   C     0.49759   0.12463   0.95321   0.00000  Uiso   1.00
C717   C     0.50241   0.20870   0.54679   0.00000  Uiso   1.00
C718   C     0.50006   0.16673   0.97675   0.00000  Uiso   1.00
C719   C     0.49994   0.16661   0.52325   0.00000  Uiso   1.00
C720   C     0.50264   0.20891   0.95383   0.00000  Uiso   1.00
C721   C     0.49737   0.12442   0.54617   0.00000  Uiso   1.00
C722   C     0.49494   0.08294   0.97618   0.00000  Uiso   1.00
C723   C     0.49482   0.08272   0.52238   0.00000  Uiso   1.00
C724   C     0.50506   0.25040   0.52382   0.00000  Uiso   1.00
C725   C     0.44331   0.04867   0.68663   0.00000  Uiso   1.00
C726   C     0.55669   0.28467   0.81337   0.00000  Uiso   1.00
C727   C     0.55605   0.04870   0.81402   0.00000  Uiso   1.00
C728   C     0.44395   0.28464   0.68598   0.00000  Uiso   1.00
C729   C     0.50518   0.25061   0.97762   0.00000  Uiso   1.00
C730   C     0.35464   0.12479   0.75135   0.00000  Uiso   1.00
C731   C     0.64536   0.20855   0.74865   0.00000  Uiso   1.00
C732   C     0.64560   0.12476   0.75075   0.00000  Uiso   1.00
C733   C     0.35440   0.20857   0.74925   0.00000  Uiso   1.00
C734   C     0.62384   0.16665   0.74968   0.00000  Uiso   1.00
Cu735  Cu    0.50000   0.21355   0.75000   0.00000  Uiso   1.00
Cu736  Cu    0.50000   0.11978   0.75000   0.00000  Uiso   1.00
F737   F     0.49215   0.04180   0.54375   0.00000  Uiso   1.00
F738   F     0.50785   0.29154   0.95625   0.00000  Uiso   1.00
F739   F     0.37427   0.08347   0.75329   0.00000  Uiso   1.00
F740   F     0.62573   0.24986   0.74671   0.00000  Uiso   1.00
F741   F     0.62621   0.08340   0.75103   0.00000  Uiso   1.00
F742   F     0.37379   0.24994   0.74897   0.00000  Uiso   1.00
H743   H     0.50446   0.24079   0.88981   0.00000  Uiso   1.00
H744   H     0.55726   0.24737   0.81250   0.00000  Uiso   1.00
H745   H     0.58856   0.29490   0.80817   0.00000  Uiso   1.00
H746   H     0.55005   0.29404   0.84765   0.00000  Uiso   1.00
H747   H     0.55737   0.08594   0.81237   0.00000  Uiso   1.00
H748   H     0.54807   0.04024   0.84804   0.00000  Uiso   1.00
H749   H     0.58803   0.03768   0.81033   0.00000  Uiso   1.00
H750   H     0.44263   0.24740   0.68763   0.00000  Uiso   1.00
H751   H     0.41198   0.29566   0.68967   0.00000  Uiso   1.00
H752   H     0.45193   0.29309   0.65196   0.00000  Uiso   1.00
H753   H     0.49554   0.09254   0.61019   0.00000  Uiso   1.00
H754   H     0.49574   0.09250   0.88904   0.00000  Uiso   1.00
H755   H     0.50426   0.24084   0.61096   0.00000  Uiso   1.00
H756   H     0.49293   0.05049   0.95832   0.00000  Uiso   1.00
H757   H     0.50707   0.28285   0.54168   0.00000  Uiso   1.00
H758   H     0.44274   0.08596   0.68750   0.00000  Uiso   1.00
H759   H     0.44995   0.03930   0.65235   0.00000  Uiso   1.00
H760   H     0.41144   0.03843   0.69183   0.00000  Uiso   1.00
N761   N     0.50000   0.28402   0.75000   0.00000  Uiso   1.00
N762   N     0.50000   0.04931   0.75000   0.00000  Uiso   1.00
O763   O     0.43988   0.20625   0.75000   0.00000  Uiso   1.00
O764   O     0.56012   0.12709   0.75001   0.00000  Uiso   1.00
O765   O     0.56012   0.20625   0.75001   0.00000  Uiso   1.00
O766   O     0.43988   0.12709   0.75000   0.00000  Uiso   1.00
O767   O     0.49999   0.20627   0.68513   0.00000  Uiso   1.00
O768   O     0.50001   0.12707   0.81487   0.00000  Uiso   1.00
O769   O     0.50001   0.20627   0.81487   0.00000  Uiso   1.00
O770   O     0.49999   0.12707   0.68513   0.00000  Uiso   1.00
C771   C     0.75417   0.16668   0.75009   0.00000  Uiso   1.00
C772   C     0.70950   0.16668   0.75032   0.00000  Uiso   1.00
C773   C     0.80691   0.02472   0.72037   0.00000  Uiso   1.00
C774   C     0.85976   0.30861   0.77964   0.00000  Uiso   1.00
C775   C     0.85970   0.02473   0.77969   0.00000  Uiso   1.00
C776   C     0.80696   0.30860   0.72031   0.00000  Uiso   1.00
C777   C     0.83317   0.16666   0.66443   0.00000  Uiso   1.00
C778   C     0.83350   0.16668   0.83557   0.00000  Uiso   1.00
C779   C     0.83594   0.20852   0.90756   0.00000  Uiso   1.00
C780   C     0.83073   0.12481   0.59244   0.00000  Uiso   1.00
C781   C     0.83353   0.16669   0.88408   0.00000  Uiso   1.00
C782   C     0.91250   0.16666   0.74991   0.00000  Uiso   1.00
C783   C     0.83314   0.16664   0.61592   0.00000  Uiso   1.00
C784   C     0.83106   0.12490   0.90704   0.00000  Uiso   1.00
C785   C     0.83561   0.20844   0.59296   0.00000  Uiso   1.00
C786   C     0.83092   0.12463   0.95321   0.00000  Uiso   1.00
C787   C     0.83575   0.20870   0.54679   0.00000  Uiso   1.00
C788   C     0.83339   0.16673   0.97675   0.00000  Uiso   1.00
C789   C     0.83327   0.16661   0.52325   0.00000  Uiso   1.00
C790   C     0.83597   0.20891   0.95383   0.00000  Uiso   1.00
C791   C     0.83070   0.12442   0.54617   0.00000  Uiso   1.00
C792   C     0.82828   0.08294   0.97618   0.00000  Uiso   1.00
C793   C     0.82816   0.08272   0.52238   0.00000  Uiso   1.00
C794   C     0.83839   0.25040   0.52382   0.00000  Uiso   1.00
C795   C     0.77665   0.04867   0.68663   0.00000  Uiso   1.00
C796   C     0.89002   0.28467   0.81337   0.00000  Uiso   1.00
C797   C     0.88938   0.04870   0.81402   0.00000  Uiso   1.00
C798   C     0.77728   0.28464   0.68598   0.00000  Uiso   1.00
C799   C     0.83851   0.25061   0.97762   0.00000  Uiso   1.00
C800   C     0.68797   0.12479   0.75135   0.00000  Uiso   1.00
C801   C     0.97870   0.20855   0.74865   0.00000  Uiso   1.00
C802   C     0.97893   0.12476   0.75075   0.00000  Uiso   1.00
C803   C     0.68774   0.20857   0.74925   0.00000  Uiso   1.00
C804   C     0.95717   0.16665   0.74968   0.00000  Uiso   1.00
Cu805  Cu    0.83333   0.21355   0.75000   0.00000  Uiso   1.00
Cu806  Cu    0.83333   0.11978   0.75000   0.00000  Uiso   1.00
F807   F     0.82548   0.04180   0.54375   0.00000  Uiso   1.00
F808   F     0.84118   0.29154   0.95625   0.00000  Uiso   1.00
F809   F     0.70760   0.08347   0.75329   0.00000  Uiso   1.00
F810   F     0.95907   0.24986   0.74671   0.00000  Uiso   1.00
F811   F     0.95955   0.08340   0.75103   0.00000  Uiso   1.00
F812   F     0.70712   0.24994   0.74897   0.00000  Uiso   1.00
H813   H     0.83780   0.24079   0.88981   0.00000  Uiso   1.00
H814   H     0.89059   0.24737   0.81250   0.00000  Uiso   1.00
H815   H     0.92189   0.29490   0.80817   0.00000  Uiso   1.00
H816   H     0.88338   0.29404   0.84765   0.00000  Uiso   1.00
H817   H     0.89070   0.08594   0.81237   0.00000  Uiso   1.00
H818   H     0.88140   0.04024   0.84804   0.00000  Uiso   1.00
H819   H     0.92136   0.03768   0.81033   0.00000  Uiso   1.00
H820   H     0.77596   0.24740   0.68763   0.00000  Uiso   1.00
H821   H     0.74531   0.29566   0.68967   0.00000  Uiso   1.00
H822   H     0.78526   0.29309   0.65196   0.00000  Uiso   1.00
H823   H     0.82887   0.09254   0.61019   0.00000  Uiso   1.00
H824   H     0.82908   0.09250   0.88904   0.00000  Uiso   1.00
H825   H     0.83759   0.24084   0.61096   0.00000  Uiso   1.00
H826   H     0.82626   0.05049   0.95832   0.00000  Uiso   1.00
H827   H     0.84041   0.28285   0.54168   0.00000  Uiso   1.00
H828   H     0.77607   0.08596   0.68750   0.00000  Uiso   1.00
H829   H     0.78329   0.03930   0.65235   0.00000  Uiso   1.00
H830   H     0.74477   0.03843   0.69183   0.00000  Uiso   1.00
N831   N     0.83333   0.28402   0.75000   0.00000  Uiso   1.00
N832   N     0.83333   0.04931   0.75000   0.00000  Uiso   1.00
O833   O     0.77321   0.20625   0.75000   0.00000  Uiso   1.00
O834   O     0.89345   0.12709   0.75001   0.00000  Uiso   1.00
O835   O     0.89345   0.20625   0.75001   0.00000  Uiso   1.00
O836   O     0.77321   0.12709   0.75000   0.00000  Uiso   1.00
O837   O     0.83332   0.20627   0.68513   0.00000  Uiso   1.00
O838   O     0.83334   0.12707   0.81487   0.00000  Uiso   1.00
O839   O     0.83334   0.20627   0.81487   0.00000  Uiso   1.00
O840   O     0.83332   0.12707   0.68513   0.00000  Uiso   1.00
C841   C     0.08751   0.50001   0.75009   0.00000  Uiso   1.00
C842   C     0.04283   0.50002   0.75032   0.00000  Uiso   1.00
C843   C     0.14024   0.35806   0.72037   0.00000  Uiso   1.00
C844   C     0.19309   0.64194   0.77964   0.00000  Uiso   1.00
C845   C     0.19304   0.35806   0.77969   0.00000  Uiso   1.00
C846   C     0.14030   0.64194   0.72031   0.00000  Uiso   1.00
C847   C     0.16650   0.49999   0.66443   0.00000  Uiso   1.00
C848   C     0.16683   0.50001   0.83557   0.00000  Uiso   1.00
C849   C     0.16927   0.54185   0.90756   0.00000  Uiso   1.00
C850   C     0.16406   0.45815   0.59244   0.00000  Uiso   1.00
C851   C     0.16686   0.50003   0.88408   0.00000  Uiso   1.00
C852   C     0.24583   0.49999   0.74991   0.00000  Uiso   1.00
C853   C     0.16647   0.49997   0.61592   0.00000  Uiso   1.00
C854   C     0.16439   0.45823   0.90704   0.00000  Uiso   1.00
C855   C     0.16894   0.54177   0.59296   0.00000  Uiso   1.00
C856   C     0.16425   0.45796   0.95321   0.00000  Uiso   1.00
C857   C     0.16908   0.54204   0.54679   0.00000  Uiso   1.00
C858   C     0.16673   0.50006   0.97675   0.00000  Uiso   1.00
C859   C     0.16661   0.49994   0.52325   0.00000  Uiso   1.00
C860   C     0.16930   0.54225   0.95383   0.00000  Uiso   1.00
C861   C     0.16403   0.45775   0.54617   0.00000  Uiso   1.00
C862   C     0.16161   0.41627   0.97618   0.00000  Uiso   1.00
C863   C     0.16149   0.41605   0.52238   0.00000  Uiso   1.00
C864   C     0.17172   0.58373   0.52382   0.00000  Uiso   1.00
C865   C     0.10998   0.38200   0.68663   0.00000  Uiso   1.00
C866   C     0.22335   0.61800   0.81337   0.00000  Uiso   1.00
C867   C     0.22272   0.38203   0.81402   0.00000  Uiso   1.00
C868   C     0.11062   0.61797   0.68598   0.00000  Uiso   1.00
C869   C     0.17184   0.58395   0.97762   0.00000  Uiso   1.00
C870   C     0.02131   0.45812   0.75135   0.00000  Uiso   1.00
C871   C     0.31203   0.54188   0.74865   0.00000  Uiso   1.00
C872   C     0.31226   0.45810   0.75075   0.00000  Uiso   1.00
C873   C     0.02107   0.54190   0.74925   0.00000  Uiso   1.00
C874   C     0.29050   0.49998   0.74968   0.00000  Uiso   1.00
Cu875  Cu    0.16667   0.54689   0.75000   0.00000  Uiso   1.00
Cu876  Cu    0.16667   0.45311   0.75000   0.00000  Uiso   1.00
F877   F     0.15882   0.37513   0.54375   0.00000  Uiso   1.00
F878   F     0.17452   0.62487   0.95625   0.00000  Uiso   1.00
F879   F     0.04093   0.41680   0.75329   0.00000  Uiso   1.00
F880   F     0.29240   0.58320   0.74671   0.00000  Uiso   1.00
F881   F     0.29288   0.41673   0.75103   0.00000  Uiso   1.00
F882   F     0.04045   0.58327   0.74897   0.00000  Uiso   1.00
H883   H     0.17113   0.57413   0.88981   0.00000  Uiso   1.00
H884   H     0.22393   0.58071   0.81250   0.00000  Uiso   1.00
H885   H     0.25523   0.62823   0.80817   0.00000  Uiso   1.00
H886   H     0.21671   0.62737   0.84765   0.00000  Uiso   1.00
H887   H     0.22404   0.41927   0.81237   0.00000  Uiso   1.00
H888   H     0.21474   0.37357   0.84804   0.00000  Uiso   1.00
H889   H     0.25469   0.37101   0.81033   0.00000  Uiso   1.00
H890   H     0.10930   0.58073   0.68763   0.00000  Uiso   1.00
H891   H     0.07864   0.62899   0.68967   0.00000  Uiso   1.00
H892   H     0.11860   0.62643   0.65196   0.00000  Uiso   1.00
H893   H     0.16220   0.42587   0.61019   0.00000  Uiso   1.00
H894   H     0.16241   0.42583   0.88904   0.00000  Uiso   1.00
H895   H     0.17092   0.57417   0.61096   0.00000  Uiso   1.00
H896   H     0.15959   0.38382   0.95832   0.00000  Uiso   1.00
H897   H     0.17374   0.61618   0.54168   0.00000  Uiso   1.00
H898   H     0.10941   0.41929   0.68750   0.00000  Uiso   1.00
H899   H     0.11662   0.37263   0.65235   0.00000  Uiso   1.00
H900   H     0.07811   0.37177   0.69183   0.00000  Uiso   1.00
N901   N     0.16667   0.61736   0.75000   0.00000  Uiso   1.00
N902   N     0.16667   0.38264   0.75000   0.00000  Uiso   1.00
O903   O     0.10655   0.53958   0.75000   0.00000  Uiso   1.00
O904   O     0.22679   0.46042   0.75001   0.00000  Uiso   1.00
O905   O     0.22679   0.53958   0.75001   0.00000  Uiso   1.00
O906   O     0.10655   0.46042   0.75000   0.00000  Uiso   1.00
O907   O     0.16666   0.53960   0.68513   0.00000  Uiso   1.00
O908   O     0.16668   0.46040   0.81487   0.00000  Uiso   1.00
O909   O     0.16668   0.53960   0.81487   0.00000  Uiso   1.00
O910   O     0.16666   0.46040   0.68513   0.00000  Uiso   1.00
C911   C     0.42084   0.50001   0.75009   0.00000  Uiso   1.00
C912   C     0.37616   0.50002   0.75032   0.00000  Uiso   1.00
C913   C     0.47357   0.35806   0.72037   0.00000  Uiso   1.00
C914   C     0.52643   0.64194   0.77964   0.00000  Uiso   1.00
C915   C     0.52637   0.35806   0.77969   0.00000  Uiso   1.00
C916   C     0.47363   0.64194   0.72031   0.00000  Uiso   1.00
C917   C     0.49984   0.49999   0.66443   0.00000  Uiso   1.00
C918   C     0.50016   0.50001   0.83557   0.00000  Uiso   1.00
C919   C     0.50260   0.54185   0.90756   0.00000  Uiso   1.00
C920   C     0.49740   0.45815   0.59244   0.00000  Uiso   1.00
C921   C     0.50019   0.50003   0.88408   0.00000  Uiso   1.00
C922   C     0.57916   0.49999   0.74991   0.00000  Uiso   1.00
C923   C     0.49981   0.49997   0.61592   0.00000  Uiso   1.00
C924   C     0.49773   0.45823   0.90704   0.00000  Uiso   1.00
C925   C     0.50227   0.54177   0.59296   0.00000  Uiso   1.00
C926   C     0.49759   0.45796   0.95321   0.00000  Uiso   1.00
C927   C     0.50241   0.54204   0.54679   0.00000  Uiso   1.00
C928   C     0.50006   0.50006   0.97675   0.00000  Uiso   1.00
C929   C     0.49994   0.49994   0.52325   0.00000  Uiso   1.00
C930   C     0.50264   0.54225   0.95383   0.00000  Uiso   1.00
C931   C     0.49737   0.45775   0.54617   0.00000  Uiso   1.00
C932   C     0.49494   0.41627   0.97618   0.00000  Uiso   1.00
C933   C     0.49482   0.41605   0.52238   0.00000  Uiso   1.00
C934   C     0.50506   0.58373   0.52382   0.00000  Uiso   1.00
C935   C     0.44331   0.38200   0.68663   0.00000  Uiso   1.00
C936   C     0.55669   0.61800   0.81337   0.00000  Uiso   1.00
C937   C     0.55605   0.38203   0.81402   0.00000  Uiso   1.00
C938   C     0.44395   0.61797   0.68598   0.00000  Uiso   1.00
C939   C     0.50518   0.58395   0.97762   0.00000  Uiso   1.00
C940   C     0.35464   0.45812   0.75135   0.00000  Uiso   1.00
C941   C     0.64536   0.54188   0.74865   0.00000  Uiso   1.00
C942   C     0.64560   0.45810   0.75075   0.00000  Uiso   1.00
C943   C     0.35440   0.54190   0.74925   0.00000  Uiso   1.00
C944   C     0.62384   0.49998   0.74968   0.00000  Uiso   1.00
Cu945  Cu    0.50000   0.54689   0.75000   0.00000  Uiso   1.00
Cu946  Cu    0.50000   0.45311   0.75000   0.00000  Uiso   1.00
F947   F     0.49215   0.37513   0.54375   0.00000  Uiso   1.00
F948   F     0.50785   0.62487   0.95625   0.00000  Uiso   1.00
F949   F     0.37427   0.41680   0.75329   0.00000  Uiso   1.00
F950   F     0.62573   0.58320   0.74671   0.00000  Uiso   1.00
F951   F     0.62621   0.41673   0.75103   0.00000  Uiso   1.00
F952   F     0.37379   0.58327   0.74897   0.00000  Uiso   1.00
H953   H     0.50446   0.57413   0.88981   0.00000  Uiso   1.00
H954   H     0.55726   0.58071   0.81250   0.00000  Uiso   1.00
H955   H     0.58856   0.62823   0.80817   0.00000  Uiso   1.00
H956   H     0.55005   0.62737   0.84765   0.00000  Uiso   1.00
H957   H     0.55737   0.41927   0.81237   0.00000  Uiso   1.00
H958   H     0.54807   0.37357   0.84804   0.00000  Uiso   1.00
H959   H     0.58803   0.37101   0.81033   0.00000  Uiso   1.00
H960   H     0.44263   0.58073   0.68763   0.00000  Uiso   1.00
H961   H     0.41198   0.62899   0.68967   0.00000  Uiso   1.00
H962   H     0.45193   0.62643   0.65196   0.00000  Uiso   1.00
H963   H     0.49554   0.42587   0.61019   0.00000  Uiso   1.00
H964   H     0.49574   0.42583   0.88904   0.00000  Uiso   1.00
H965   H     0.50426   0.57417   0.61096   0.00000  Uiso   1.00
H966   H     0.49293   0.38382   0.95832   0.00000  Uiso   1.00
H967   H     0.50707   0.61618   0.54168   0.00000  Uiso   1.00
H968   H     0.44274   0.41929   0.68750   0.00000  Uiso   1.00
H969   H     0.44995   0.37263   0.65235   0.00000  Uiso   1.00
H970   H     0.41144   0.37177   0.69183   0.00000  Uiso   1.00
N971   N     0.50000   0.61736   0.75000   0.00000  Uiso   1.00
N972   N     0.50000   0.38264   0.75000   0.00000  Uiso   1.00
O973   O     0.43988   0.53958   0.75000   0.00000  Uiso   1.00
O974   O     0.56012   0.46042   0.75001   0.00000  Uiso   1.00
O975   O     0.56012   0.53958   0.75001   0.00000  Uiso   1.00
O976   O     0.43988   0.46042   0.75000   0.00000  Uiso   1.00
O977   O     0.49999   0.53960   0.68513   0.00000  Uiso   1.00
O978   O     0.50001   0.46040   0.81487   0.00000  Uiso   1.00
O979   O     0.50001   0.53960   0.81487   0.00000  Uiso   1.00
O980   O     0.49999   0.46040   0.68513   0.00000  Uiso   1.00
C981   C     0.75417   0.50001   0.75009   0.00000  Uiso   1.00
C982   C     0.70950   0.50002   0.75032   0.00000  Uiso   1.00
C983   C     0.80691   0.35806   0.72037   0.00000  Uiso   1.00
C984   C     0.85976   0.64194   0.77964   0.00000  Uiso   1.00
C985   C     0.85970   0.35806   0.77969   0.00000  Uiso   1.00
C986   C     0.80696   0.64194   0.72031   0.00000  Uiso   1.00
C987   C     0.83317   0.49999   0.66443   0.00000  Uiso   1.00
C988   C     0.83350   0.50001   0.83557   0.00000  Uiso   1.00
C989   C     0.83594   0.54185   0.90756   0.00000  Uiso   1.00
C990   C     0.83073   0.45815   0.59244   0.00000  Uiso   1.00
C991   C     0.83353   0.50003   0.88408   0.00000  Uiso   1.00
C992   C     0.91250   0.49999   0.74991   0.00000  Uiso   1.00
C993   C     0.83314   0.49997   0.61592   0.00000  Uiso   1.00
C994   C     0.83106   0.45823   0.90704   0.00000  Uiso   1.00
C995   C     0.83561   0.54177   0.59296   0.00000  Uiso   1.00
C996   C     0.83092   0.45796   0.95321   0.00000  Uiso   1.00
C997   C     0.83575   0.54204   0.54679   0.00000  Uiso   1.00
C998   C     0.83339   0.50006   0.97675   0.00000  Uiso   1.00
C999   C     0.83327   0.49994   0.52325   0.00000  Uiso   1.00
C1000  C     0.83597   0.54225   0.95383   0.00000  Uiso   1.00
C1001  C     0.83070   0.45775   0.54617   0.00000  Uiso   1.00
C1002  C     0.82828   0.41627   0.97618   0.00000  Uiso   1.00
C1003  C     0.82816   0.41605   0.52238   0.00000  Uiso   1.00
C1004  C     0.83839   0.58373   0.52382   0.00000  Uiso   1.00
C1005  C     0.77665   0.38200   0.68663   0.00000  Uiso   1.00
C1006  C     0.89002   0.61800   0.81337   0.00000  Uiso   1.00
C1007  C     0.88938   0.38203   0.81402   0.00000  Uiso   1.00
C1008  C     0.77728   0.61797   0.68598   0.00000  Uiso   1.00
C1009  C     0.83851   0.58395   0.97762   0.00000  Uiso   1.00
C1010  C     0.68797   0.45812   0.75135   0.00000  Uiso   1.00
C1011  C     0.97870   0.54188   0.74865   0.00000  Uiso   1.00
C1012  C     0.97893   0.45810   0.75075   0.00000  Uiso   1.00
C1013  C     0.68774   0.54190   0.74925   0.00000  Uiso   1.00
C1014  C     0.95717   0.49998   0.74968   0.00000  Uiso   1.00
Cu1015 Cu    0.83333   0.54689   0.75000   0.00000  Uiso   1.00
Cu1016 Cu    0.83333   0.45311   0.75000   0.00000  Uiso   1.00
F1017  F     0.82548   0.37513   0.54375   0.00000  Uiso   1.00
F1018  F     0.84118   0.62487   0.95625   0.00000  Uiso   1.00
F1019  F     0.70760   0.41680   0.75329   0.00000  Uiso   1.00
F1020  F     0.95907   0.58320   0.74671   0.00000  Uiso   1.00
F1021  F     0.95955   0.41673   0.75103   0.00000  Uiso   1.00
F1022  F     0.70712   0.58327   0.74897   0.00000  Uiso   1.00
H1023  H     0.83780   0.57413   0.88981   0.00000  Uiso   1.00
H1024  H     0.89059   0.58071   0.81250   0.00000  Uiso   1.00
H1025  H     0.92189   0.62823   0.80817   0.00000  Uiso   1.00
H1026  H     0.88338   0.62737   0.84765   0.00000  Uiso   1.00
H1027  H     0.89070   0.41927   0.81237   0.00000  Uiso   1.00
H1028  H     0.88140   0.37357   0.84804   0.00000  Uiso   1.00
H1029  H     0.92136   0.37101   0.81033   0.00000  Uiso   1.00
H1030  H     0.77596   0.58073   0.68763   0.00000  Uiso   1.00
H1031  H     0.74531   0.62899   0.68967   0.00000  Uiso   1.00
H1032  H     0.78526   0.62643   0.65196   0.00000  Uiso   1.00
H1033  H     0.82887   0.42587   0.61019   0.00000  Uiso   1.00
H1034  H     0.82908   0.42583   0.88904   0.00000  Uiso   1.00
H1035  H     0.83759   0.57417   0.61096   0.00000  Uiso   1.00
H1036  H     0.82626   0.38382   0.95832   0.00000  Uiso   1.00
H1037  H     0.84041   0.61618   0.54168   0.00000  Uiso   1.00
H1038  H     0.77607   0.41929   0.68750   0.00000  Uiso   1.00
H1039  H     0.78329   0.37263   0.65235   0.00000  Uiso   1.00
H1040  H     0.74477   0.37177   0.69183   0.00000  Uiso   1.00
N1041  N     0.83333   0.61736   0.75000   0.00000  Uiso   1.00
N1042  N     0.83333   0.38264   0.75000   0.00000  Uiso   1.00
O1043  O     0.77321   0.53958   0.75000   0.00000  Uiso   1.00
O1044  O     0.89345   0.46042   0.75001   0.00000  Uiso   1.00
O1045  O     0.89345   0.53958   0.75001   0.00000  Uiso   1.00
O1046  O     0.77321   0.46042   0.75000   0.00000  Uiso   1.00
O1047  O     0.83332   0.53960   0.68513   0.00000  Uiso   1.00
O1048  O     0.83334   0.46040   0.81487   0.00000  Uiso   1.00
O1049  O     0.83334   0.53960   0.81487   0.00000  Uiso   1.00
O1050  O     0.83332   0.46040   0.68513   0.00000  Uiso   1.00
C1051  C     0.08751   0.83334   0.75009   0.00000  Uiso   1.00
C1052  C     0.04283   0.83335   0.75032   0.00000  Uiso   1.00
C1053  C     0.14024   0.69139   0.72037   0.00000  Uiso   1.00
C1054  C     0.19309   0.97528   0.77964   0.00000  Uiso   1.00
C1055  C     0.19304   0.69140   0.77969   0.00000  Uiso   1.00
C1056  C     0.14030   0.97527   0.72031   0.00000  Uiso   1.00
C1057  C     0.16650   0.83332   0.66443   0.00000  Uiso   1.00
C1058  C     0.16683   0.83334   0.83557   0.00000  Uiso   1.00
C1059  C     0.16927   0.87519   0.90756   0.00000  Uiso   1.00
C1060  C     0.16406   0.79148   0.59244   0.00000  Uiso   1.00
C1061  C     0.16686   0.83336   0.88408   0.00000  Uiso   1.00
C1062  C     0.24583   0.83332   0.74991   0.00000  Uiso   1.00
C1063  C     0.16647   0.83331   0.61592   0.00000  Uiso   1.00
C1064  C     0.16439   0.79157   0.90704   0.00000  Uiso   1.00
C1065  C     0.16894   0.87510   0.59296   0.00000  Uiso   1.00
C1066  C     0.16425   0.79130   0.95321   0.00000  Uiso   1.00
C1067  C     0.16908   0.87537   0.54679   0.00000  Uiso   1.00
C1068  C     0.16673   0.83339   0.97675   0.00000  Uiso   1.00
C1069  C     0.16661   0.83328   0.52325   0.00000  Uiso   1.00
C1070  C     0.16930   0.87558   0.95383   0.00000  Uiso   1.00
C1071  C     0.16403   0.79109   0.54617   0.00000  Uiso   1.00
C1072  C     0.16161   0.74960   0.97618   0.00000  Uiso   1.00
C1073  C     0.16149   0.74939   0.52238   0.00000  Uiso   1.00
C1074  C     0.17172   0.91707   0.52382   0.00000  Uiso   1.00
C1075  C     0.10998   0.71533   0.68663   0.00000  Uiso   1.00
C1076  C     0.22335   0.95133   0.81337   0.00000  Uiso   1.00
C1077  C     0.22272   0.71536   0.81402   0.00000  Uiso   1.00
C1078  C     0.11062   0.95130   0.68598   0.00000  Uiso   1.00
C1079  C     0.17184   0.91728   0.97762   0.00000  Uiso   1.00
C1080  C     0.02131   0.79145   0.75135   0.00000  Uiso   1.00
C1081  C     0.31203   0.87521   0.74865   0.00000  Uiso   1.00
C1082  C     0.31226   0.79143   0.75075   0.00000  Uiso   1.00
C1083  C     0.02107   0.87524   0.74925   0.00000  Uiso   1.00
C1084  C     0.29050   0.83332   0.74968   0.00000  Uiso   1.00
Cu1085 Cu    0.16667   0.88022   0.75000   0.00000  Uiso   1.00
Cu1086 Cu    0.16667   0.78645   0.75000   0.00000  Uiso   1.00
F1087  F     0.15882   0.70846   0.54375   0.00000  Uiso   1.00
F1088  F     0.17452   0.95820   0.95625   0.00000  Uiso   1.00
F1089  F     0.04093   0.75014   0.75329   0.00000  Uiso   1.00
F1090  F     0.29240   0.91653   0.74671   0.00000  Uiso   1.00
F1091  F     0.29288   0.75006   0.75103   0.00000  Uiso   1.00
F1092  F     0.04045   0.91660   0.74897   0.00000  Uiso   1.00
H1093  H     0.17113   0.90746   0.88981   0.00000  Uiso   1.00
H1094  H     0.22393   0.91404   0.81250   0.00000  Uiso   1.00
H1095  H     0.25523   0.96157   0.80817   0.00000  Uiso   1.00
H1096  H     0.21671   0.96070   0.84765   0.00000  Uiso   1.00
H1097  H     0.22404   0.75260   0.81237   0.00000  Uiso   1.00
H1098  H     0.21474   0.70691   0.84804   0.00000  Uiso   1.00
H1099  H     0.25469   0.70434   0.81033   0.00000  Uiso   1.00
H1100  H     0.10930   0.91406   0.68763   0.00000  Uiso   1.00
H1101  H     0.07864   0.96232   0.68967   0.00000  Uiso   1.00
H1102  H     0.11860   0.95976   0.65196   0.00000  Uiso   1.00
H1103  H     0.16220   0.75921   0.61019   0.00000  Uiso   1.00
H1104  H     0.16241   0.75916   0.88904   0.00000  Uiso   1.00
H1105  H     0.17092   0.90750   0.61096   0.00000  Uiso   1.00
H1106  H     0.15959   0.71715   0.95832   0.00000  Uiso   1.00
H1107  H     0.17374   0.94951   0.54168   0.00000  Uiso   1.00
H1108  H     0.10941   0.75263   0.68750   0.00000  Uiso   1.00
H1109  H     0.11662   0.70596   0.65235   0.00000  Uiso   1.00
H1110  H     0.07811   0.70510   0.69183   0.00000  Uiso   1.00
N1111  N     0.16667   0.95069   0.75000   0.00000  Uiso   1.00
N1112  N     0.16667   0.71598   0.75000   0.00000  Uiso   1.00
O1113  O     0.10655   0.87291   0.75000   0.00000  Uiso   1.00
O1114  O     0.22679   0.79375   0.75001   0.00000  Uiso   1.00
O1115  O     0.22679   0.87291   0.75001   0.00000  Uiso   1.00
O1116  O     0.10655   0.79375   0.75000   0.00000  Uiso   1.00
O1117  O     0.16666   0.87293   0.68513   0.00000  Uiso   1.00
O1118  O     0.16668   0.79373   0.81487   0.00000  Uiso   1.00
O1119  O     0.16668   0.87293   0.81487   0.00000  Uiso   1.00
O1120  O     0.16666   0.79373   0.68513   0.00000  Uiso   1.00
C1121  C     0.42084   0.83334   0.75009   0.00000  Uiso   1.00
C1122  C     0.37616   0.83335   0.75032   0.00000  Uiso   1.00
C1123  C     0.47357   0.69139   0.72037   0.00000  Uiso   1.00
C1124  C     0.52643   0.97528   0.77964   0.00000  Uiso   1.00
C1125  C     0.52637   0.69140   0.77969   0.00000  Uiso   1.00
C1126  C     0.47363   0.97527   0.72031   0.00000  Uiso   1.00
C1127  C     0.49984   0.83332   0.66443   0.00000  Uiso   1.00
C1128  C     0.50016   0.83334   0.83557   0.00000  Uiso   1.00
C1129  C     0.50260   0.87519   0.90756   0.00000  Uiso   1.00
C1130  C     0.49740   0.79148   0.59244   0.00000  Uiso   1.00
C1131  C     0.50019   0.83336   0.88408   0.00000  Uiso   1.00
C1132  C     0.57916   0.83332   0.74991   0.00000  Uiso   1.00
C1133  C     0.49981   0.83331   0.61592   0.00000  Uiso   1.00
C1134  C     0.49773   0.79157   0.90704   0.00000  Uiso   1.00
C1135  C     0.50227   0.87510   0.59296   0.00000  Uiso   1.00
C1136  C     0.49759   0.79130   0.95321   0.00000  Uiso   1.00
C1137  C     0.50241   0.87537   0.54679   0.00000  Uiso   1.00
C1138  C     0.50006   0.83339   0.97675   0.00000  Uiso   1.00
C1139  C     0.49994   0.83328   0.52325   0.00000  Uiso   1.00
C1140  C     0.50264   0.87558   0.95383   0.00000  Uiso   1.00
C1141  C     0.49737   0.79109   0.54617   0.00000  Uiso   1.00
C1142  C     0.49494   0.74960   0.97618   0.00000  Uiso   1.00
C1143  C     0.49482   0.74939   0.52238   0.00000  Uiso   1.00
C1144  C     0.50506   0.91707   0.52382   0.00000  Uiso   1.00
C1145  C     0.44331   0.71533   0.68663   0.00000  Uiso   1.00
C1146  C     0.55669   0.95133   0.81337   0.00000  Uiso   1.00
C1147  C     0.55605   0.71536   0.81402   0.00000  Uiso   1.00
C1148  C     0.44395   0.95130   0.68598   0.00000  Uiso   1.00
C1149  C     0.50518   0.91728   0.97762   0.00000  Uiso   1.00
C1150  C     0.35464   0.79145   0.75135   0.00000  Uiso   1.00
C1151  C     0.64536   0.87521   0.74865   0.00000  Uiso   1.00
C1152  C     0.64560   0.79143   0.75075   0.00000  Uiso   1.00
C1153  C     0.35440   0.87524   0.74925   0.00000  Uiso   1.00
C1154  C     0.62384   0.83332   0.74968   0.00000  Uiso   1.00
Cu1155 Cu    0.50000   0.88022   0.75000   0.00000  Uiso   1.00
Cu1156 Cu    0.50000   0.78645   0.75000   0.00000  Uiso   1.00
F1157  F     0.49215   0.70846   0.54375   0.00000  Uiso   1.00
F1158  F     0.50785   0.95820   0.95625   0.00000  Uiso   1.00
F1159  F     0.37427   0.75014   0.75329   0.00000  Uiso   1.00
F1160  F     0.62573   0.91653   0.74671   0.00000  Uiso   1.00
F1161  F     0.62621   0.75006   0.75103   0.00000  Uiso   1.00
F1162  F     0.37379   0.91660   0.74897   0.00000  Uiso   1.00
H1163  H     0.50446   0.90746   0.88981   0.00000  Uiso   1.00
H1164  H     0.55726   0.91404   0.81250   0.00000  Uiso   1.00
H1165  H     0.58856   0.96157   0.80817   0.00000  Uiso   1.00
H1166  H     0.55005   0.96070   0.84765   0.00000  Uiso   1.00
H1167  H     0.55737   0.75260   0.81237   0.00000  Uiso   1.00
H1168  H     0.54807   0.70691   0.84804   0.00000  Uiso   1.00
H1169  H     0.58803   0.70434   0.81033   0.00000  Uiso   1.00
H1170  H     0.44263   0.91406   0.68763   0.00000  Uiso   1.00
H1171  H     0.41198   0.96232   0.68967   0.00000  Uiso   1.00
H1172  H     0.45193   0.95976   0.65196   0.00000  Uiso   1.00
H1173  H     0.49554   0.75921   0.61019   0.00000  Uiso   1.00
H1174  H     0.49574   0.75916   0.88904   0.00000  Uiso   1.00
H1175  H     0.50426   0.90750   0.61096   0.00000  Uiso   1.00
H1176  H     0.49293   0.71715   0.95832   0.00000  Uiso   1.00
H1177  H     0.50707   0.94951   0.54168   0.00000  Uiso   1.00
H1178  H     0.44274   0.75263   0.68750   0.00000  Uiso   1.00
H1179  H     0.44995   0.70596   0.65235   0.00000  Uiso   1.00
H1180  H     0.41144   0.70510   0.69183   0.00000  Uiso   1.00
N1181  N     0.50000   0.95069   0.75000   0.00000  Uiso   1.00
N1182  N     0.50000   0.71598   0.75000   0.00000  Uiso   1.00
O1183  O     0.43988   0.87291   0.75000   0.00000  Uiso   1.00
O1184  O     0.56012   0.79375   0.75001   0.00000  Uiso   1.00
O1185  O     0.56012   0.87291   0.75001   0.00000  Uiso   1.00
O1186  O     0.43988   0.79375   0.75000   0.00000  Uiso   1.00
O1187  O     0.49999   0.87293   0.68513   0.00000  Uiso   1.00
O1188  O     0.50001   0.79373   0.81487   0.00000  Uiso   1.00
O1189  O     0.50001   0.87293   0.81487   0.00000  Uiso   1.00
O1190  O     0.49999   0.79373   0.68513   0.00000  Uiso   1.00
C1191  C     0.75417   0.83334   0.75009   0.00000  Uiso   1.00
C1192  C     0.70950   0.83335   0.75032   0.00000  Uiso   1.00
C1193  C     0.80691   0.69139   0.72037   0.00000  Uiso   1.00
C1194  C     0.85976   0.97528   0.77964   0.00000  Uiso   1.00
C1195  C     0.85970   0.69140   0.77969   0.00000  Uiso   1.00
C1196  C     0.80696   0.97527   0.72031   0.00000  Uiso   1.00
C1197  C     0.83317   0.83332   0.66443   0.00000  Uiso   1.00
C1198  C     0.83350   0.83334   0.83557   0.00000  Uiso   1.00
C1199  C     0.83594   0.87519   0.90756   0.00000  Uiso   1.00
C1200  C     0.83073   0.79148   0.59244   0.00000  Uiso   1.00
C1201  C     0.83353   0.83336   0.88408   0.00000  Uiso   1.00
C1202  C     0.91250   0.83332   0.74991   0.00000  Uiso   1.00
C1203  C     0.83314   0.83331   0.61592   0.00000  Uiso   1.00
C1204  C     0.83106   0.79157   0.90704   0.00000  Uiso   1.00
C1205  C     0.83561   0.87510   0.59296   0.00000  Uiso   1.00
C1206  C     0.83092   0.79130   0.95321   0.00000  Uiso   1.00
C1207  C     0.83575   0.87537   0.54679   0.00000  Uiso   1.00
C1208  C     0.83339   0.83339   0.97675   0.00000  Uiso   1.00
C1209  C     0.83327   0.83328   0.52325   0.00000  Uiso   1.00
C1210  C     0.83597   0.87558   0.95383   0.00000  Uiso   1.00
C1211  C     0.83070   0.79109   0.54617   0.00000  Uiso   1.00
C1212  C     0.82828   0.74960   0.97618   0.00000  Uiso   1.00
C1213  C     0.82816   0.74939   0.52238   0.00000  Uiso   1.00
C1214  C     0.83839   0.91707   0.52382   0.00000  Uiso   1.00
C1215  C     0.77665   0.71533   0.68663   0.00000  Uiso   1.00
C1216  C     0.89002   0.95133   0.81337   0.00000  Uiso   1.00
C1217  C     0.88938   0.71536   0.81402   0.00000  Uiso   1.00
C1218  C     0.77728   0.95130   0.68598   0.00000  Uiso   1.00
C1219  C     0.83851   0.91728   0.97762   0.00000  Uiso   1.00
C1220  C     0.68797   0.79145   0.75135   0.00000  Uiso   1.00
C1221  C     0.97870   0.87521   0.74865   0.00000  Uiso   1.00
C1222  C     0.97893   0.79143   0.75075   0.00000  Uiso   1.00
C1223  C     0.68774   0.87524   0.74925   0.00000  Uiso   1.00
C1224  C     0.95717   0.83332   0.74968   0.00000  Uiso   1.00
Cu1225 Cu    0.83333   0.88022   0.75000   0.00000  Uiso   1.00
Cu1226 Cu    0.83333   0.78645   0.75000   0.00000  Uiso   1.00
F1227  F     0.82548   0.70846   0.54375   0.00000  Uiso   1.00
F1228  F     0.84118   0.95820   0.95625   0.00000  Uiso   1.00
F1229  F     0.70760   0.75014   0.75329   0.00000  Uiso   1.00
F1230  F     0.95907   0.91653   0.74671   0.00000  Uiso   1.00
F1231  F     0.95955   0.75006   0.75103   0.00000  Uiso   1.00
F1232  F     0.70712   0.91660   0.74897   0.00000  Uiso   1.00
H1233  H     0.83780   0.90746   0.88981   0.00000  Uiso   1.00
H1234  H     0.89059   0.91404   0.81250   0.00000  Uiso   1.00
H1235  H     0.92189   0.96157   0.80817   0.00000  Uiso   1.00
H1236  H     0.88338   0.96070   0.84765   0.00000  Uiso   1.00
H1237  H     0.89070   0.75260   0.81237   0.00000  Uiso   1.00
H1238  H     0.88140   0.70691   0.84804   0.00000  Uiso   1.00
H1239  H     0.92136   0.70434   0.81033   0.00000  Uiso   1.00
H1240  H     0.77596   0.91406   0.68763   0.00000  Uiso   1.00
H1241  H     0.74531   0.96232   0.68967   0.00000  Uiso   1.00
H1242  H     0.78526   0.95976   0.65196   0.00000  Uiso   1.00
H1243  H     0.82887   0.75921   0.61019   0.00000  Uiso   1.00
H1244  H     0.82908   0.75916   0.88904   0.00000  Uiso   1.00
H1245  H     0.83759   0.90750   0.61096   0.00000  Uiso   1.00
H1246  H     0.82626   0.71715   0.95832   0.00000  Uiso   1.00
H1247  H     0.84041   0.94951   0.54168   0.00000  Uiso   1.00
H1248  H     0.77607   0.75263   0.68750   0.00000  Uiso   1.00
H1249  H     0.78329   0.70596   0.65235   0.00000  Uiso   1.00
H1250  H     0.74477   0.70510   0.69183   0.00000  Uiso   1.00
N1251  N     0.83333   0.95069   0.75000   0.00000  Uiso   1.00
N1252  N     0.83333   0.71598   0.75000   0.00000  Uiso   1.00
O1253  O     0.77321   0.87291   0.75000   0.00000  Uiso   1.00
O1254  O     0.89345   0.79375   0.75001   0.00000  Uiso   1.00
O1255  O     0.89345   0.87291   0.75001   0.00000  Uiso   1.00
O1256  O     0.77321   0.79375   0.75000   0.00000  Uiso   1.00
O1257  O     0.83332   0.87293   0.68513   0.00000  Uiso   1.00
O1258  O     0.83334   0.79373   0.81487   0.00000  Uiso   1.00
O1259  O     0.83334   0.87293   0.81487   0.00000  Uiso   1.00
O1260  O     0.83332   0.79373   0.68513   0.00000  Uiso   1.00
loop_
_geom_bond_atom_site_label_1
_geom_bond_atom_site_label_2
_geom_bond_distance
_geom_bond_site_symmetry_2
_ccdc_geom_bond_type
C1     C2      1.460   .     S
C1     O66     1.306   .     A
C1     O63     1.306   .     A
C2     C30     1.406   .     A
C2     C33     1.406   .     A
C3     C25     1.520   .     S
C3     N62     1.382   .     A
C3     C426    1.435   1_545 S
C4     C26     1.520   .     S
C4     N61     1.382   .     A
C4     C215    1.435   .     S
C5     C27     1.520   .     S
C5     N62     1.382   .     A
C5     C424    1.435   1_545 S
C6     N61     1.382   .     A
C6     C28     1.520   .     S
C6     C213    1.435   .     S
C7     O70     1.307   .     A
C7     C13     1.463   .     S
C7     O67     1.307   .     A
C8     O69     1.307   .     A
C8     C11     1.463   .     S
C8     O68     1.307   .     A
C9     C11     1.403   .     A
C9     C20     1.396   .     A
C9     H43     1.083   .     S
C10    C21     1.396   .     A
C10    H53     1.083   .     S
C10    C13     1.403   .     A
C11    C14     1.403   .     A
C12    O65     1.306   .     A
C12    O64     1.306   .     A
C12    C34     1.460   .     S
C13    C15     1.403   .     A
C14    H54     1.084   .     S
C14    C16     1.393   .     A
C15    C17     1.393   .     A
C15    H55     1.084   .     S
C16    C18     1.411   .     A
C16    C22     1.401   .     A
C17    C24     1.401   .     A
C17    C19     1.411   .     A
C18    C20     1.412   .     A
C18    C649    1.403   .     S
C19    C21     1.412   .     A
C19    C648    1.403   1_554 S
C20    C29     1.405   .     A
C21    C23     1.405   .     A
C22    H56     1.083   .     S
C22    C653    1.394   .     S
C23    F37     1.358   .     S
C23    C652    1.394   1_554 S
C24    H57     1.083   .     S
C24    C659    1.394   1_554 S
C25    H59     1.109   .     S
C25    H60     1.108   .     S
C25    H58     1.082   .     S
C26    H44     1.082   .     S
C26    H46     1.109   .     S
C26    H45     1.108   .     S
C27    H47     1.082   .     S
C27    H48     1.110   .     S
C27    H49     1.108   .     S
C28    H52     1.110   .     S
C28    H51     1.108   .     S
C28    H50     1.082   .     S
C29    F38     1.358   .     S
C29    C654    1.394   .     S
C30    F39     1.358   .     S
C30    C172    1.383   1_455 S
C31    C34     1.406   .     A
C31    F40     1.358   .     S
C31    C103    1.383   .     S
C32    F41     1.358   .     S
C32    C34     1.406   .     A
C32    C100    1.383   .     S
C33    F42     1.358   .     S
C33    C171    1.383   1_455 S
Cu35   Cu36    2.720   .     S
Cu35   O67     1.968   .     S
Cu35   N61     2.044   .     S
Cu35   O69     1.968   .     S
Cu35   O65     1.976   .     S
Cu35   O63     1.976   .     S
Cu36   O68     1.968   .     S
Cu36   N62     2.044   .     S
Cu36   O70     1.968   .     S
Cu36   O66     1.976   .     S
Cu36   O64     1.976   .     S
C71    C72     1.460   .     S
C71    O136    1.306   .     A
C71    O133    1.306   .     A
C72    C100    1.406   .     A
C72    C103    1.406   .     A
C73    C95     1.520   .     S
C73    N132    1.382   .     A
C73    C496    1.435   1_545 S
C74    C96     1.520   .     S
C74    N131    1.382   .     A
C74    C285    1.435   .     S
C75    C97     1.520   .     S
C75    N132    1.382   .     A
C75    C494    1.435   1_545 S
C76    N131    1.382   .     A
C76    C98     1.520   .     S
C76    C283    1.435   .     S
C77    O140    1.307   .     A
C77    C83     1.463   .     S
C77    O137    1.307   .     A
C78    O139    1.307   .     A
C78    C81     1.463   .     S
C78    O138    1.307   .     A
C79    C81     1.403   .     A
C79    C90     1.396   .     A
C79    H113    1.083   .     S
C80    C91     1.396   .     A
C80    H123    1.083   .     S
C80    C83     1.403   .     A
C81    C84     1.403   .     A
C82    O135    1.306   .     A
C82    O134    1.306   .     A
C82    C104    1.460   .     S
C83    C85     1.403   .     A
C84    H124    1.084   .     S
C84    C86     1.393   .     A
C85    C87     1.393   .     A
C85    H125    1.084   .     S
C86    C88     1.411   .     A
C86    C92     1.401   .     A
C87    C94     1.401   .     A
C87    C89     1.411   .     A
C88    C90     1.412   .     A
C88    C719    1.403   .     S
C89    C91     1.412   .     A
C89    C718    1.403   1_554 S
C90    C99     1.405   .     A
C91    C93     1.405   .     A
C92    H126    1.083   .     S
C92    C723    1.394   .     S
C93    F107    1.358   .     S
C93    C722    1.394   1_554 S
C94    H127    1.083   .     S
C94    C729    1.394   1_554 S
C95    H129    1.109   .     S
C95    H130    1.108   .     S
C95    H128    1.082   .     S
C96    H114    1.082   .     S
C96    H116    1.109   .     S
C96    H115    1.108   .     S
C97    H117    1.082   .     S
C97    H118    1.110   .     S
C97    H119    1.108   .     S
C98    H122    1.110   .     S
C98    H121    1.108   .     S
C98    H120    1.082   .     S
C99    F108    1.358   .     S
C99    C724    1.394   .     S
C100   F109    1.358   .     S
C101   C104    1.406   .     A
C101   F110    1.358   .     S
C101   C173    1.383   .     S
C102   F111    1.358   .     S
C102   C104    1.406   .     A
C102   C170    1.383   .     S
C103   F112    1.358   .     S
Cu105  Cu106   2.720   .     S
Cu105  O137    1.968   .     S
Cu105  N131    2.044   .     S
Cu105  O139    1.968   .     S
Cu105  O135    1.976   .     S
Cu105  O133    1.976   .     S
Cu106  O138    1.968   .     S
Cu106  N132    2.044   .     S
Cu106  O140    1.968   .     S
Cu106  O136    1.976   .     S
Cu106  O134    1.976   .     S
C141   C142    1.460   .     S
C141   O206    1.306   .     A
C141   O203    1.306   .     A
C142   C170    1.406   .     A
C142   C173    1.406   .     A
C143   C165    1.520   .     S
C143   N202    1.382   .     A
C143   C566    1.435   1_545 S
C144   C166    1.520   .     S
C144   N201    1.382   .     A
C144   C355    1.435   .     S
C145   C167    1.520   .     S
C145   N202    1.382   .     A
C145   C564    1.435   1_545 S
C146   N201    1.382   .     A
C146   C168    1.520   .     S
C146   C353    1.435   .     S
C147   O210    1.307   .     A
C147   C153    1.463   .     S
C147   O207    1.307   .     A
C148   O209    1.307   .     A
C148   C151    1.463   .     S
C148   O208    1.307   .     A
C149   C151    1.403   .     A
C149   C160    1.396   .     A
C149   H183    1.083   .     S
C150   C161    1.396   .     A
C150   H193    1.083   .     S
C150   C153    1.403   .     A
C151   C154    1.403   .     A
C152   O205    1.306   .     A
C152   O204    1.306   .     A
C152   C174    1.460   .     S
C153   C155    1.403   .     A
C154   H194    1.084   .     S
C154   C156    1.393   .     A
C155   C157    1.393   .     A
C155   H195    1.084   .     S
C156   C158    1.411   .     A
C156   C162    1.401   .     A
C157   C164    1.401   .     A
C157   C159    1.411   .     A
C158   C160    1.412   .     A
C158   C789    1.403   .     S
C159   C161    1.412   .     A
C159   C788    1.403   1_554 S
C160   C169    1.405   .     A
C161   C163    1.405   .     A
C162   H196    1.083   .     S
C162   C793    1.394   .     S
C163   F177    1.358   .     S
C163   C792    1.394   1_554 S
C164   H197    1.083   .     S
C164   C799    1.394   1_554 S
C165   H199    1.109   .     S
C165   H200    1.108   .     S
C165   H198    1.082   .     S
C166   H184    1.082   .     S
C166   H186    1.109   .     S
C166   H185    1.108   .     S
C167   H187    1.082   .     S
C167   H188    1.110   .     S
C167   H189    1.108   .     S
C168   H192    1.110   .     S
C168   H191    1.108   .     S
C168   H190    1.082   .     S
C169   F178    1.358   .     S
C169   C794    1.394   .     S
C170   F179    1.358   .     S
C171   C174    1.406   .     A
C171   F180    1.358   .     S
C171   C33     1.383   1_655 S
C172   F181    1.358   .     S
C172   C174    1.406   .     A
C172   C30     1.383   1_655 S
C173   F182    1.358   .     S
Cu175  Cu176   2.720   .     S
Cu175  O207    1.968   .     S
Cu175  N201    2.044   .     S
Cu175  O209    1.968   .     S
Cu175  O205    1.976   .     S
Cu175  O203    1.976   .     S
Cu176  O208    1.968   .     S
Cu176  N202    2.044   .     S
Cu176  O210    1.968   .     S
Cu176  O206    1.976   .     S
Cu176  O204    1.976   .     S
C211   C212    1.460   .     S
C211   O276    1.306   .     A
C211   O273    1.306   .     A
C212   C240    1.406   .     A
C212   C243    1.406   .     A
C213   C235    1.520   .     S
C213   N272    1.382   .     A
C214   C236    1.520   .     S
C214   N271    1.382   .     A
C214   C425    1.435   .     S
C215   C237    1.520   .     S
C215   N272    1.382   .     A
C216   N271    1.382   .     A
C216   C238    1.520   .     S
C216   C423    1.435   .     S
C217   O280    1.307   .     A
C217   C223    1.463   .     S
C217   O277    1.307   .     A
C218   O279    1.307   .     A
C218   C221    1.463   .     S
C218   O278    1.307   .     A
C219   C221    1.403   .     A
C219   C230    1.396   .     A
C219   H253    1.083   .     S
C220   C231    1.396   .     A
C220   H263    1.083   .     S
C220   C223    1.403   .     A
C221   C224    1.403   .     A
C222   O275    1.306   .     A
C222   O274    1.306   .     A
C222   C244    1.460   .     S
C223   C225    1.403   .     A
C224   H264    1.084   .     S
C224   C226    1.393   .     A
C225   C227    1.393   .     A
C225   H265    1.084   .     S
C226   C228    1.411   .     A
C226   C232    1.401   .     A
C227   C234    1.401   .     A
C227   C229    1.411   .     A
C228   C230    1.412   .     A
C228   C859    1.403   .     S
C229   C231    1.412   .     A
C229   C858    1.403   1_554 S
C230   C239    1.405   .     A
C231   C233    1.405   .     A
C232   H266    1.083   .     S
C232   C863    1.394   .     S
C233   F247    1.358   .     S
C233   C862    1.394   1_554 S
C234   H267    1.083   .     S
C234   C869    1.394   1_554 S
C235   H269    1.109   .     S
C235   H270    1.108   .     S
C235   H268    1.082   .     S
C236   H254    1.082   .     S
C236   H256    1.109   .     S
C236   H255    1.108   .     S
C237   H257    1.082   .     S
C237   H258    1.110   .     S
C237   H259    1.108   .     S
C238   H262    1.110   .     S
C238   H261    1.108   .     S
C238   H260    1.082   .     S
C239   F248    1.358   .     S
C239   C864    1.394   .     S
C240   F249    1.358   .     S
C240   C382    1.383   1_455 S
C241   C244    1.406   .     A
C241   F250    1.358   .     S
C241   C313    1.383   .     S
C242   F251    1.358   .     S
C242   C244    1.406   .     A
C242   C310    1.383   .     S
C243   F252    1.358   .     S
C243   C381    1.383   1_455 S
Cu245  Cu246   2.720   .     S
Cu245  O277    1.968   .     S
Cu245  N271    2.044   .     S
Cu245  O279    1.968   .     S
Cu245  O275    1.976   .     S
Cu245  O273    1.976   .     S
Cu246  O278    1.968   .     S
Cu246  N272    2.044   .     S
Cu246  O280    1.968   .     S
Cu246  O276    1.976   .     S
Cu246  O274    1.976   .     S
C281   C282    1.460   .     S
C281   O346    1.306   .     A
C281   O343    1.306   .     A
C282   C310    1.406   .     A
C282   C313    1.406   .     A
C283   C305    1.520   .     S
C283   N342    1.382   .     A
C284   C306    1.520   .     S
C284   N341    1.382   .     A
C284   C495    1.435   .     S
C285   C307    1.520   .     S
C285   N342    1.382   .     A
C286   N341    1.382   .     A
C286   C308    1.520   .     S
C286   C493    1.435   .     S
C287   O350    1.307   .     A
C287   C293    1.463   .     S
C287   O347    1.307   .     A
C288   O349    1.307   .     A
C288   C291    1.463   .     S
C288   O348    1.307   .     A
C289   C291    1.403   .     A
C289   C300    1.396   .     A
C289   H323    1.083   .     S
C290   C301    1.396   .     A
C290   H333    1.083   .     S
C290   C293    1.403   .     A
C291   C294    1.403   .     A
C292   O345    1.306   .     A
C292   O344    1.306   .     A
C292   C314    1.460   .     S
C293   C295    1.403   .     A
C294   H334    1.084   .     S
C294   C296    1.393   .     A
C295   C297    1.393   .     A
C295   H335    1.084   .     S
C296   C298    1.411   .     A
C296   C302    1.401   .     A
C297   C304    1.401   .     A
C297   C299    1.411   .     A
C298   C300    1.412   .     A
C298   C929    1.403   .     S
C299   C301    1.412   .     A
C299   C928    1.403   1_554 S
C300   C309    1.405   .     A
C301   C303    1.405   .     A
C302   H336    1.083   .     S
C302   C933    1.394   .     S
C303   F317    1.358   .     S
C303   C932    1.394   1_554 S
C304   H337    1.083   .     S
C304   C939    1.394   1_554 S
C305   H339    1.109   .     S
C305   H340    1.108   .     S
C305   H338    1.082   .     S
C306   H324    1.082   .     S
C306   H326    1.109   .     S
C306   H325    1.108   .     S
C307   H327    1.082   .     S
C307   H328    1.110   .     S
C307   H329    1.108   .     S
C308   H332    1.110   .     S
C308   H331    1.108   .     S
C308   H330    1.082   .     S
C309   F318    1.358   .     S
C309   C934    1.394   .     S
C310   F319    1.358   .     S
C311   C314    1.406   .     A
C311   F320    1.358   .     S
C311   C383    1.383   .     S
C312   F321    1.358   .     S
C312   C314    1.406   .     A
C312   C380    1.383   .     S
C313   F322    1.358   .     S
Cu315  Cu316   2.720   .     S
Cu315  O347    1.968   .     S
Cu315  N341    2.044   .     S
Cu315  O349    1.968   .     S
Cu315  O345    1.976   .     S
Cu315  O343    1.976   .     S
Cu316  O348    1.968   .     S
Cu316  N342    2.044   .     S
Cu316  O350    1.968   .     S
Cu316  O346    1.976   .     S
Cu316  O344    1.976   .     S
C351   C352    1.460   .     S
C351   O416    1.306   .     A
C351   O413    1.306   .     A
C352   C380    1.406   .     A
C352   C383    1.406   .     A
C353   C375    1.520   .     S
C353   N412    1.382   .     A
C354   C376    1.520   .     S
C354   N411    1.382   .     A
C354   C565    1.435   .     S
C355   C377    1.520   .     S
C355   N412    1.382   .     A
C356   N411    1.382   .     A
C356   C378    1.520   .     S
C356   C563    1.435   .     S
C357   O420    1.307   .     A
C357   C363    1.463   .     S
C357   O417    1.307   .     A
C358   O419    1.307   .     A
C358   C361    1.463   .     S
C358   O418    1.307   .     A
C359   C361    1.403   .     A
C359   C370    1.396   .     A
C359   H393    1.083   .     S
C360   C371    1.396   .     A
C360   H403    1.083   .     S
C360   C363    1.403   .     A
C361   C364    1.403   .     A
C362   O415    1.306   .     A
C362   O414    1.306   .     A
C362   C384    1.460   .     S
C363   C365    1.403   .     A
C364   H404    1.084   .     S
C364   C366    1.393   .     A
C365   C367    1.393   .     A
C365   H405    1.084   .     S
C366   C368    1.411   .     A
C366   C372    1.401   .     A
C367   C374    1.401   .     A
C367   C369    1.411   .     A
C368   C370    1.412   .     A
C368   C999    1.403   .     S
C369   C371    1.412   .     A
C369   C998    1.403   1_554 S
C370   C379    1.405   .     A
C371   C373    1.405   .     A
C372   H406    1.083   .     S
C372   C1003   1.394   .     S
C373   F387    1.358   .     S
C373   C1002   1.394   1_554 S
C374   H407    1.083   .     S
C374   C1009   1.394   1_554 S
C375   H409    1.109   .     S
C375   H410    1.108   .     S
C375   H408    1.082   .     S
C376   H394    1.082   .     S
C376   H396    1.109   .     S
C376   H395    1.108   .     S
C377   H397    1.082   .     S
C377   H398    1.110   .     S
C377   H399    1.108   .     S
C378   H402    1.110   .     S
C378   H401    1.108   .     S
C378   H400    1.082   .     S
C379   F388    1.358   .     S
C379   C1004   1.394   .     S
C380   F389    1.358   .     S
C381   C384    1.406   .     A
C381   F390    1.358   .     S
C381   C243    1.383   1_655 S
C382   F391    1.358   .     S
C382   C384    1.406   .     A
C382   C240    1.383   1_655 S
C383   F392    1.358   .     S
Cu385  Cu386   2.720   .     S
Cu385  O417    1.968   .     S
Cu385  N411    2.044   .     S
Cu385  O419    1.968   .     S
Cu385  O415    1.976   .     S
Cu385  O413    1.976   .     S
Cu386  O418    1.968   .     S
Cu386  N412    2.044   .     S
Cu386  O420    1.968   .     S
Cu386  O416    1.976   .     S
Cu386  O414    1.976   .     S
C421   C422    1.460   .     S
C421   O486    1.306   .     A
C421   O483    1.306   .     A
C422   C450    1.406   .     A
C422   C453    1.406   .     A
C423   C445    1.520   .     S
C423   N482    1.382   .     A
C424   C446    1.520   .     S
C424   N481    1.382   .     A
C424   C5      1.435   1_565 S
C425   C447    1.520   .     S
C425   N482    1.382   .     A
C426   N481    1.382   .     A
C426   C448    1.520   .     S
C426   C3      1.435   1_565 S
C427   O490    1.307   .     A
C427   C433    1.463   .     S
C427   O487    1.307   .     A
C428   O489    1.307   .     A
C428   C431    1.463   .     S
C428   O488    1.307   .     A
C429   C431    1.403   .     A
C429   C440    1.396   .     A
C429   H463    1.083   .     S
C430   C441    1.396   .     A
C430   H473    1.083   .     S
C430   C433    1.403   .     A
C431   C434    1.403   .     A
C432   O485    1.306   .     A
C432   O484    1.306   .     A
C432   C454    1.460   .     S
C433   C435    1.403   .     A
C434   H474    1.084   .     S
C434   C436    1.393   .     A
C435   C437    1.393   .     A
C435   H475    1.084   .     S
C436   C438    1.411   .     A
C436   C442    1.401   .     A
C437   C444    1.401   .     A
C437   C439    1.411   .     A
C438   C440    1.412   .     A
C438   C1069   1.403   .     S
C439   C441    1.412   .     A
C439   C1068   1.403   1_554 S
C440   C449    1.405   .     A
C441   C443    1.405   .     A
C442   H476    1.083   .     S
C442   C1073   1.394   .     S
C443   F457    1.358   .     S
C443   C1072   1.394   1_554 S
C444   H477    1.083   .     S
C444   C1079   1.394   1_554 S
C445   H479    1.109   .     S
C445   H480    1.108   .     S
C445   H478    1.082   .     S
C446   H464    1.082   .     S
C446   H466    1.109   .     S
C446   H465    1.108   .     S
C447   H467    1.082   .     S
C447   H468    1.110   .     S
C447   H469    1.108   .     S
C448   H472    1.110   .     S
C448   H471    1.108   .     S
C448   H470    1.082   .     S
C449   F458    1.358   .     S
C449   C1074   1.394   .     S
C450   F459    1.358   .     S
C450   C592    1.383   1_455 S
C451   C454    1.406   .     A
C451   F460    1.358   .     S
C451   C523    1.383   .     S
C452   F461    1.358   .     S
C452   C454    1.406   .     A
C452   C520    1.383   .     S
C453   F462    1.358   .     S
C453   C591    1.383   1_455 S
Cu455  Cu456   2.720   .     S
Cu455  O487    1.968   .     S
Cu455  N481    2.044   .     S
Cu455  O489    1.968   .     S
Cu455  O485    1.976   .     S
Cu455  O483    1.976   .     S
Cu456  O488    1.968   .     S
Cu456  N482    2.044   .     S
Cu456  O490    1.968   .     S
Cu456  O486    1.976   .     S
Cu456  O484    1.976   .     S
C491   C492    1.460   .     S
C491   O556    1.306   .     A
C491   O553    1.306   .     A
C492   C520    1.406   .     A
C492   C523    1.406   .     A
C493   C515    1.520   .     S
C493   N552    1.382   .     A
C494   C516    1.520   .     S
C494   N551    1.382   .     A
C494   C75     1.435   1_565 S
C495   C517    1.520   .     S
C495   N552    1.382   .     A
C496   N551    1.382   .     A
C496   C518    1.520   .     S
C496   C73     1.435   1_565 S
C497   O560    1.307   .     A
C497   C503    1.463   .     S
C497   O557    1.307   .     A
C498   O559    1.307   .     A
C498   C501    1.463   .     S
C498   O558    1.307   .     A
C499   C501    1.403   .     A
C499   C510    1.396   .     A
C499   H533    1.083   .     S
C500   C511    1.396   .     A
C500   H543    1.083   .     S
C500   C503    1.403   .     A
C501   C504    1.403   .     A
C502   O555    1.306   .     A
C502   O554    1.306   .     A
C502   C524    1.460   .     S
C503   C505    1.403   .     A
C504   H544    1.084   .     S
C504   C506    1.393   .     A
C505   C507    1.393   .     A
C505   H545    1.084   .     S
C506   C508    1.411   .     A
C506   C512    1.401   .     A
C507   C514    1.401   .     A
C507   C509    1.411   .     A
C508   C510    1.412   .     A
C508   C1139   1.403   .     S
C509   C511    1.412   .     A
C509   C1138   1.403   1_554 S
C510   C519    1.405   .     A
C511   C513    1.405   .     A
C512   H546    1.083   .     S
C512   C1143   1.394   .     S
C513   F527    1.358   .     S
C513   C1142   1.394   1_554 S
C514   H547    1.083   .     S
C514   C1149   1.394   1_554 S
C515   H549    1.109   .     S
C515   H550    1.108   .     S
C515   H548    1.082   .     S
C516   H534    1.082   .     S
C516   H536    1.109   .     S
C516   H535    1.108   .     S
C517   H537    1.082   .     S
C517   H538    1.110   .     S
C517   H539    1.108   .     S
C518   H542    1.110   .     S
C518   H541    1.108   .     S
C518   H540    1.082   .     S
C519   F528    1.358   .     S
C519   C1144   1.394   .     S
C520   F529    1.358   .     S
C521   C524    1.406   .     A
C521   F530    1.358   .     S
C521   C593    1.383   .     S
C522   F531    1.358   .     S
C522   C524    1.406   .     A
C522   C590    1.383   .     S
C523   F532    1.358   .     S
Cu525  Cu526   2.720   .     S
Cu525  O557    1.968   .     S
Cu525  N551    2.044   .     S
Cu525  O559    1.968   .     S
Cu525  O555    1.976   .     S
Cu525  O553    1.976   .     S
Cu526  O558    1.968   .     S
Cu526  N552    2.044   .     S
Cu526  O560    1.968   .     S
Cu526  O556    1.976   .     S
Cu526  O554    1.976   .     S
C561   C562    1.460   .     S
C561   O626    1.306   .     A
C561   O623    1.306   .     A
C562   C590    1.406   .     A
C562   C593    1.406   .     A
C563   C585    1.520   .     S
C563   N622    1.382   .     A
C564   C586    1.520   .     S
C564   N621    1.382   .     A
C564   C145    1.435   1_565 S
C565   C587    1.520   .     S
C565   N622    1.382   .     A
C566   N621    1.382   .     A
C566   C588    1.520   .     S
C566   C143    1.435   1_565 S
C567   O630    1.307   .     A
C567   C573    1.463   .     S
C567   O627    1.307   .     A
C568   O629    1.307   .     A
C568   C571    1.463   .     S
C568   O628    1.307   .     A
C569   C571    1.403   .     A
C569   C580    1.396   .     A
C569   H603    1.083   .     S
C570   C581    1.396   .     A
C570   H613    1.083   .     S
C570   C573    1.403   .     A
C571   C574    1.403   .     A
C572   O625    1.306   .     A
C572   O624    1.306   .     A
C572   C594    1.460   .     S
C573   C575    1.403   .     A
C574   H614    1.084   .     S
C574   C576    1.393   .     A
C575   C577    1.393   .     A
C575   H615    1.084   .     S
C576   C578    1.411   .     A
C576   C582    1.401   .     A
C577   C584    1.401   .     A
C577   C579    1.411   .     A
C578   C580    1.412   .     A
C578   C1209   1.403   .     S
C579   C581    1.412   .     A
C579   C1208   1.403   1_554 S
C580   C589    1.405   .     A
C581   C583    1.405   .     A
C582   H616    1.083   .     S
C582   C1213   1.394   .     S
C583   F597    1.358   .     S
C583   C1212   1.394   1_554 S
C584   H617    1.083   .     S
C584   C1219   1.394   1_554 S
C585   H619    1.109   .     S
C585   H620    1.108   .     S
C585   H618    1.082   .     S
C586   H604    1.082   .     S
C586   H606    1.109   .     S
C586   H605    1.108   .     S
C587   H607    1.082   .     S
C587   H608    1.110   .     S
C587   H609    1.108   .     S
C588   H612    1.110   .     S
C588   H611    1.108   .     S
C588   H610    1.082   .     S
C589   F598    1.358   .     S
C589   C1214   1.394   .     S
C590   F599    1.358   .     S
C591   C594    1.406   .     A
C591   F600    1.358   .     S
C591   C453    1.383   1_655 S
C592   F601    1.358   .     S
C592   C594    1.406   .     A
C592   C450    1.383   1_655 S
C593   F602    1.358   .     S
Cu595  Cu596   2.720   .     S
Cu595  O627    1.968   .     S
Cu595  N621    2.044   .     S
Cu595  O629    1.968   .     S
Cu595  O625    1.976   .     S
Cu595  O623    1.976   .     S
Cu596  O628    1.968   .     S
Cu596  N622    2.044   .     S
Cu596  O630    1.968   .     S
Cu596  O626    1.976   .     S
Cu596  O624    1.976   .     S
C631   C632    1.460   .     S
C631   O696    1.306   .     A
C631   O693    1.306   .     A
C632   C660    1.406   .     A
C632   C663    1.406   .     A
C633   C655    1.520   .     S
C633   N692    1.382   .     A
C633   C1056   1.435   1_545 S
C634   C656    1.520   .     S
C634   N691    1.382   .     A
C634   C845    1.435   .     S
C635   C657    1.520   .     S
C635   N692    1.382   .     A
C635   C1054   1.435   1_545 S
C636   N691    1.382   .     A
C636   C658    1.520   .     S
C636   C843    1.435   .     S
C637   O700    1.307   .     A
C637   C643    1.463   .     S
C637   O697    1.307   .     A
C638   O699    1.307   .     A
C638   C641    1.463   .     S
C638   O698    1.307   .     A
C639   C641    1.403   .     A
C639   C650    1.396   .     A
C639   H673    1.083   .     S
C640   C651    1.396   .     A
C640   H683    1.083   .     S
C640   C643    1.403   .     A
C641   C644    1.403   .     A
C642   O695    1.306   .     A
C642   O694    1.306   .     A
C642   C664    1.460   .     S
C643   C645    1.403   .     A
C644   H684    1.084   .     S
C644   C646    1.393   .     A
C645   C647    1.393   .     A
C645   H685    1.084   .     S
C646   C648    1.411   .     A
C646   C652    1.401   .     A
C647   C654    1.401   .     A
C647   C649    1.411   .     A
C648   C650    1.412   .     A
C648   C19     1.403   1_556 S
C649   C651    1.412   .     A
C650   C659    1.405   .     A
C651   C653    1.405   .     A
C652   H686    1.083   .     S
C652   C23     1.394   1_556 S
C653   F667    1.358   .     S
C654   H687    1.083   .     S
C655   H689    1.109   .     S
C655   H690    1.108   .     S
C655   H688    1.082   .     S
C656   H674    1.082   .     S
C656   H676    1.109   .     S
C656   H675    1.108   .     S
C657   H677    1.082   .     S
C657   H678    1.110   .     S
C657   H679    1.108   .     S
C658   H682    1.110   .     S
C658   H681    1.108   .     S
C658   H680    1.082   .     S
C659   F668    1.358   .     S
C659   C24     1.394   1_556 S
C660   F669    1.358   .     S
C660   C802    1.383   1_455 S
C661   C664    1.406   .     A
C661   F670    1.358   .     S
C661   C733    1.383   .     S
C662   F671    1.358   .     S
C662   C664    1.406   .     A
C662   C730    1.383   .     S
C663   F672    1.358   .     S
C663   C801    1.383   1_455 S
Cu665  Cu666   2.720   .     S
Cu665  O697    1.968   .     S
Cu665  N691    2.044   .     S
Cu665  O699    1.968   .     S
Cu665  O695    1.976   .     S
Cu665  O693    1.976   .     S
Cu666  O698    1.968   .     S
Cu666  N692    2.044   .     S
Cu666  O700    1.968   .     S
Cu666  O696    1.976   .     S
Cu666  O694    1.976   .     S
C701   C702    1.460   .     S
C701   O766    1.306   .     A
C701   O763    1.306   .     A
C702   C730    1.406   .     A
C702   C733    1.406   .     A
C703   C725    1.520   .     S
C703   N762    1.382   .     A
C703   C1126   1.435   1_545 S
C704   C726    1.520   .     S
C704   N761    1.382   .     A
C704   C915    1.435   .     S
C705   C727    1.520   .     S
C705   N762    1.382   .     A
C705   C1124   1.435   1_545 S
C706   N761    1.382   .     A
C706   C728    1.520   .     S
C706   C913    1.435   .     S
C707   O770    1.307   .     A
C707   C713    1.463   .     S
C707   O767    1.307   .     A
C708   O769    1.307   .     A
C708   C711    1.463   .     S
C708   O768    1.307   .     A
C709   C711    1.403   .     A
C709   C720    1.396   .     A
C709   H743    1.083   .     S
C710   C721    1.396   .     A
C710   H753    1.083   .     S
C710   C713    1.403   .     A
C711   C714    1.403   .     A
C712   O765    1.306   .     A
C712   O764    1.306   .     A
C712   C734    1.460   .     S
C713   C715    1.403   .     A
C714   H754    1.084   .     S
C714   C716    1.393   .     A
C715   C717    1.393   .     A
C715   H755    1.084   .     S
C716   C718    1.411   .     A
C716   C722    1.401   .     A
C717   C724    1.401   .     A
C717   C719    1.411   .     A
C718   C720    1.412   .     A
C718   C89     1.403   1_556 S
C719   C721    1.412   .     A
C720   C729    1.405   .     A
C721   C723    1.405   .     A
C722   H756    1.083   .     S
C722   C93     1.394   1_556 S
C723   F737    1.358   .     S
C724   H757    1.083   .     S
C725   H759    1.109   .     S
C725   H760    1.108   .     S
C725   H758    1.082   .     S
C726   H744    1.082   .     S
C726   H746    1.109   .     S
C726   H745    1.108   .     S
C727   H747    1.082   .     S
C727   H748    1.110   .     S
C727   H749    1.108   .     S
C728   H752    1.110   .     S
C728   H751    1.108   .     S
C728   H750    1.082   .     S
C729   F738    1.358   .     S
C729   C94     1.394   1_556 S
C730   F739    1.358   .     S
C731   C734    1.406   .     A
C731   F740    1.358   .     S
C731   C803    1.383   .     S
C732   F741    1.358   .     S
C732   C734    1.406   .     A
C732   C800    1.383   .     S
C733   F742    1.358   .     S
Cu735  Cu736   2.720   .     S
Cu735  O767    1.968   .     S
Cu735  N761    2.044   .     S
Cu735  O769    1.968   .     S
Cu735  O765    1.976   .     S
Cu735  O763    1.976   .     S
Cu736  O768    1.968   .     S
Cu736  N762    2.044   .     S
Cu736  O770    1.968   .     S
Cu736  O766    1.976   .     S
Cu736  O764    1.976   .     S
C771   C772    1.460   .     S
C771   O836    1.306   .     A
C771   O833    1.306   .     A
C772   C800    1.406   .     A
C772   C803    1.406   .     A
C773   C795    1.520   .     S
C773   N832    1.382   .     A
C773   C1196   1.435   1_545 S
C774   C796    1.520   .     S
C774   N831    1.382   .     A
C774   C985    1.435   .     S
C775   C797    1.520   .     S
C775   N832    1.382   .     A
C775   C1194   1.435   1_545 S
C776   N831    1.382   .     A
C776   C798    1.520   .     S
C776   C983    1.435   .     S
C777   O840    1.307   .     A
C777   C783    1.463   .     S
C777   O837    1.307   .     A
C778   O839    1.307   .     A
C778   C781    1.463   .     S
C778   O838    1.307   .     A
C779   C781    1.403   .     A
C779   C790    1.396   .     A
C779   H813    1.083   .     S
C780   C791    1.396   .     A
C780   H823    1.083   .     S
C780   C783    1.403   .     A
C781   C784    1.403   .     A
C782   O835    1.306   .     A
C782   O834    1.306   .     A
C782   C804    1.460   .     S
C783   C785    1.403   .     A
C784   H824    1.084   .     S
C784   C786    1.393   .     A
C785   C787    1.393   .     A
C785   H825    1.084   .     S
C786   C788    1.411   .     A
C786   C792    1.401   .     A
C787   C794    1.401   .     A
C787   C789    1.411   .     A
C788   C790    1.412   .     A
C788   C159    1.403   1_556 S
C789   C791    1.412   .     A
C790   C799    1.405   .     A
C791   C793    1.405   .     A
C792   H826    1.083   .     S
C792   C163    1.394   1_556 S
C793   F807    1.358   .     S
C794   H827    1.083   .     S
C795   H829    1.109   .     S
C795   H830    1.108   .     S
C795   H828    1.082   .     S
C796   H814    1.082   .     S
C796   H816    1.109   .     S
C796   H815    1.108   .     S
C797   H817    1.082   .     S
C797   H818    1.110   .     S
C797   H819    1.108   .     S
C798   H822    1.110   .     S
C798   H821    1.108   .     S
C798   H820    1.082   .     S
C799   F808    1.358   .     S
C799   C164    1.394   1_556 S
C800   F809    1.358   .     S
C801   C804    1.406   .     A
C801   F810    1.358   .     S
C801   C663    1.383   1_655 S
C802   F811    1.358   .     S
C802   C804    1.406   .     A
C802   C660    1.383   1_655 S
C803   F812    1.358   .     S
Cu805  Cu806   2.720   .     S
Cu805  O837    1.968   .     S
Cu805  N831    2.044   .     S
Cu805  O839    1.968   .     S
Cu805  O835    1.976   .     S
Cu805  O833    1.976   .     S
Cu806  O838    1.968   .     S
Cu806  N832    2.044   .     S
Cu806  O840    1.968   .     S
Cu806  O836    1.976   .     S
Cu806  O834    1.976   .     S
C841   C842    1.460   .     S
C841   O906    1.306   .     A
C841   O903    1.306   .     A
C842   C870    1.406   .     A
C842   C873    1.406   .     A
C843   C865    1.520   .     S
C843   N902    1.382   .     A
C844   C866    1.520   .     S
C844   N901    1.382   .     A
C844   C1055   1.435   .     S
C845   C867    1.520   .     S
C845   N902    1.382   .     A
C846   N901    1.382   .     A
C846   C868    1.520   .     S
C846   C1053   1.435   .     S
C847   O910    1.307   .     A
C847   C853    1.463   .     S
C847   O907    1.307   .     A
C848   O909    1.307   .     A
C848   C851    1.463   .     S
C848   O908    1.307   .     A
C849   C851    1.403   .     A
C849   C860    1.396   .     A
C849   H883    1.083   .     S
C850   C861    1.396   .     A
C850   H893    1.083   .     S
C850   C853    1.403   .     A
C851   C854    1.403   .     A
C852   O905    1.306   .     A
C852   O904    1.306   .     A
C852   C874    1.460   .     S
C853   C855    1.403   .     A
C854   H894    1.084   .     S
C854   C856    1.393   .     A
C855   C857    1.393   .     A
C855   H895    1.084   .     S
C856   C858    1.411   .     A
C856   C862    1.401   .     A
C857   C864    1.401   .     A
C857   C859    1.411   .     A
C858   C860    1.412   .     A
C858   C229    1.403   1_556 S
C859   C861    1.412   .     A
C860   C869    1.405   .     A
C861   C863    1.405   .     A
C862   H896    1.083   .     S
C862   C233    1.394   1_556 S
C863   F877    1.358   .     S
C864   H897    1.083   .     S
C865   H899    1.109   .     S
C865   H900    1.108   .     S
C865   H898    1.082   .     S
C866   H884    1.082   .     S
C866   H886    1.109   .     S
C866   H885    1.108   .     S
C867   H887    1.082   .     S
C867   H888    1.110   .     S
C867   H889    1.108   .     S
C868   H892    1.110   .     S
C868   H891    1.108   .     S
C868   H890    1.082   .     S
C869   F878    1.358   .     S
C869   C234    1.394   1_556 S
C870   F879    1.358   .     S
C870   C1012   1.383   1_455 S
C871   C874    1.406   .     A
C871   F880    1.358   .     S
C871   C943    1.383   .     S
C872   F881    1.358   .     S
C872   C874    1.406   .     A
C872   C940    1.383   .     S
C873   F882    1.358   .     S
C873   C1011   1.383   1_455 S
Cu875  Cu876   2.720   .     S
Cu875  O907    1.968   .     S
Cu875  N901    2.044   .     S
Cu875  O909    1.968   .     S
Cu875  O905    1.976   .     S
Cu875  O903    1.976   .     S
Cu876  O908    1.968   .     S
Cu876  N902    2.044   .     S
Cu876  O910    1.968   .     S
Cu876  O906    1.976   .     S
Cu876  O904    1.976   .     S
C911   C912    1.460   .     S
C911   O976    1.306   .     A
C911   O973    1.306   .     A
C912   C940    1.406   .     A
C912   C943    1.406   .     A
C913   C935    1.520   .     S
C913   N972    1.382   .     A
C914   C936    1.520   .     S
C914   N971    1.382   .     A
C914   C1125   1.435   .     S
C915   C937    1.520   .     S
C915   N972    1.382   .     A
C916   N971    1.382   .     A
C916   C938    1.520   .     S
C916   C1123   1.435   .     S
C917   O980    1.307   .     A
C917   C923    1.463   .     S
C917   O977    1.307   .     A
C918   O979    1.307   .     A
C918   C921    1.463   .     S
C918   O978    1.307   .     A
C919   C921    1.403   .     A
C919   C930    1.396   .     A
C919   H953    1.083   .     S
C920   C931    1.396   .     A
C920   H963    1.083   .     S
C920   C923    1.403   .     A
C921   C924    1.403   .     A
C922   O975    1.306   .     A
C922   O974    1.306   .     A
C922   C944    1.460   .     S
C923   C925    1.403   .     A
C924   H964    1.084   .     S
C924   C926    1.393   .     A
C925   C927    1.393   .     A
C925   H965    1.084   .     S
C926   C928    1.411   .     A
C926   C932    1.401   .     A
C927   C934    1.401   .     A
C927   C929    1.411   .     A
C928   C930    1.412   .     A
C928   C299    1.403   1_556 S
C929   C931    1.412   .     A
C930   C939    1.405   .     A
C931   C933    1.405   .     A
C932   H966    1.083   .     S
C932   C303    1.394   1_556 S
C933   F947    1.358   .     S
C934   H967    1.083   .     S
C935   H969    1.109   .     S
C935   H970    1.108   .     S
C935   H968    1.082   .     S
C936   H954    1.082   .     S
C936   H956    1.109   .     S
C936   H955    1.108   .     S
C937   H957    1.082   .     S
C937   H958    1.110   .     S
C937   H959    1.108   .     S
C938   H962    1.110   .     S
C938   H961    1.108   .     S
C938   H960    1.082   .     S
C939   F948    1.358   .     S
C939   C304    1.394   1_556 S
C940   F949    1.358   .     S
C941   C944    1.406   .     A
C941   F950    1.358   .     S
C941   C1013   1.383   .     S
C942   F951    1.358   .     S
C942   C944    1.406   .     A
C942   C1010   1.383   .     S
C943   F952    1.358   .     S
Cu945  Cu946   2.720   .     S
Cu945  O977    1.968   .     S
Cu945  N971    2.044   .     S
Cu945  O979    1.968   .     S
Cu945  O975    1.976   .     S
Cu945  O973    1.976   .     S
Cu946  O978    1.968   .     S
Cu946  N972    2.044   .     S
Cu946  O980    1.968   .     S
Cu946  O976    1.976   .     S
Cu946  O974    1.976   .     S
C981   C982    1.460   .     S
C981   O1046   1.306   .     A
C981   O1043   1.306   .     A
C982   C1010   1.406   .     A
C982   C1013   1.406   .     A
C983   C1005   1.520   .     S
C983   N1042   1.382   .     A
C984   C1006   1.520   .     S
C984   N1041   1.382   .     A
C984   C1195   1.435   .     S
C985   C1007   1.520   .     S
C985   N1042   1.382   .     A
C986   N1041   1.382   .     A
C986   C1008   1.520   .     S
C986   C1193   1.435   .     S
C987   O1050   1.307   .     A
C987   C993    1.463   .     S
C987   O1047   1.307   .     A
C988   O1049   1.307   .     A
C988   C991    1.463   .     S
C988   O1048   1.307   .     A
C989   C991    1.403   .     A
C989   C1000   1.396   .     A
C989   H1023   1.083   .     S
C990   C1001   1.396   .     A
C990   H1033   1.083   .     S
C990   C993    1.403   .     A
C991   C994    1.403   .     A
C992   O1045   1.306   .     A
C992   O1044   1.306   .     A
C992   C1014   1.460   .     S
C993   C995    1.403   .     A
C994   H1034   1.084   .     S
C994   C996    1.393   .     A
C995   C997    1.393   .     A
C995   H1035   1.084   .     S
C996   C998    1.411   .     A
C996   C1002   1.401   .     A
C997   C1004   1.401   .     A
C997   C999    1.411   .     A
C998   C1000   1.412   .     A
C998   C369    1.403   1_556 S
C999   C1001   1.412   .     A
C1000  C1009   1.405   .     A
C1001  C1003   1.405   .     A
C1002  H1036   1.083   .     S
C1002  C373    1.394   1_556 S
C1003  F1017   1.358   .     S
C1004  H1037   1.083   .     S
C1005  H1039   1.109   .     S
C1005  H1040   1.108   .     S
C1005  H1038   1.082   .     S
C1006  H1024   1.082   .     S
C1006  H1026   1.109   .     S
C1006  H1025   1.108   .     S
C1007  H1027   1.082   .     S
C1007  H1028   1.110   .     S
C1007  H1029   1.108   .     S
C1008  H1032   1.110   .     S
C1008  H1031   1.108   .     S
C1008  H1030   1.082   .     S
C1009  F1018   1.358   .     S
C1009  C374    1.394   1_556 S
C1010  F1019   1.358   .     S
C1011  C1014   1.406   .     A
C1011  F1020   1.358   .     S
C1011  C873    1.383   1_655 S
C1012  F1021   1.358   .     S
C1012  C1014   1.406   .     A
C1012  C870    1.383   1_655 S
C1013  F1022   1.358   .     S
Cu1015 Cu1016  2.720   .     S
Cu1015 O1047   1.968   .     S
Cu1015 N1041   2.044   .     S
Cu1015 O1049   1.968   .     S
Cu1015 O1045   1.976   .     S
Cu1015 O1043   1.976   .     S
Cu1016 O1048   1.968   .     S
Cu1016 N1042   2.044   .     S
Cu1016 O1050   1.968   .     S
Cu1016 O1046   1.976   .     S
Cu1016 O1044   1.976   .     S
C1051  C1052   1.460   .     S
C1051  O1116   1.306   .     A
C1051  O1113   1.306   .     A
C1052  C1080   1.406   .     A
C1052  C1083   1.406   .     A
C1053  C1075   1.520   .     S
C1053  N1112   1.382   .     A
C1054  C1076   1.520   .     S
C1054  N1111   1.382   .     A
C1054  C635    1.435   1_565 S
C1055  C1077   1.520   .     S
C1055  N1112   1.382   .     A
C1056  N1111   1.382   .     A
C1056  C1078   1.520   .     S
C1056  C633    1.435   1_565 S
C1057  O1120   1.307   .     A
C1057  C1063   1.463   .     S
C1057  O1117   1.307   .     A
C1058  O1119   1.307   .     A
C1058  C1061   1.463   .     S
C1058  O1118   1.307   .     A
C1059  C1061   1.403   .     A
C1059  C1070   1.396   .     A
C1059  H1093   1.083   .     S
C1060  C1071   1.396   .     A
C1060  H1103   1.083   .     S
C1060  C1063   1.403   .     A
C1061  C1064   1.403   .     A
C1062  O1115   1.306   .     A
C1062  O1114   1.306   .     A
C1062  C1084   1.460   .     S
C1063  C1065   1.403   .     A
C1064  H1104   1.084   .     S
C1064  C1066   1.393   .     A
C1065  C1067   1.393   .     A
C1065  H1105   1.084   .     S
C1066  C1068   1.411   .     A
C1066  C1072   1.401   .     A
C1067  C1074   1.401   .     A
C1067  C1069   1.411   .     A
C1068  C1070   1.412   .     A
C1068  C439    1.403   1_556 S
C1069  C1071   1.412   .     A
C1070  C1079   1.405   .     A
C1071  C1073   1.405   .     A
C1072  H1106   1.083   .     S
C1072  C443    1.394   1_556 S
C1073  F1087   1.358   .     S
C1074  H1107   1.083   .     S
C1075  H1109   1.109   .     S
C1075  H1110   1.108   .     S
C1075  H1108   1.082   .     S
C1076  H1094   1.082   .     S
C1076  H1096   1.109   .     S
C1076  H1095   1.108   .     S
C1077  H1097   1.082   .     S
C1077  H1098   1.110   .     S
C1077  H1099   1.108   .     S
C1078  H1102   1.110   .     S
C1078  H1101   1.108   .     S
C1078  H1100   1.082   .     S
C1079  F1088   1.358   .     S
C1079  C444    1.394   1_556 S
C1080  F1089   1.358   .     S
C1080  C1222   1.383   1_455 S
C1081  C1084   1.406   .     A
C1081  F1090   1.358   .     S
C1081  C1153   1.383   .     S
C1082  F1091   1.358   .     S
C1082  C1084   1.406   .     A
C1082  C1150   1.383   .     S
C1083  F1092   1.358   .     S
C1083  C1221   1.383   1_455 S
Cu1085 Cu1086  2.720   .     S
Cu1085 O1117   1.968   .     S
Cu1085 N1111   2.044   .     S
Cu1085 O1119   1.968   .     S
Cu1085 O1115   1.976   .     S
Cu1085 O1113   1.976   .     S
Cu1086 O1118   1.968   .     S
Cu1086 N1112   2.044   .     S
Cu1086 O1120   1.968   .     S
Cu1086 O1116   1.976   .     S
Cu1086 O1114   1.976   .     S
C1121  C1122   1.460   .     S
C1121  O1186   1.306   .     A
C1121  O1183   1.306   .     A
C1122  C1150   1.406   .     A
C1122  C1153   1.406   .     A
C1123  C1145   1.520   .     S
C1123  N1182   1.382   .     A
C1124  C1146   1.520   .     S
C1124  N1181   1.382   .     A
C1124  C705    1.435   1_565 S
C1125  C1147   1.520   .     S
C1125  N1182   1.382   .     A
C1126  N1181   1.382   .     A
C1126  C1148   1.520   .     S
C1126  C703    1.435   1_565 S
C1127  O1190   1.307   .     A
C1127  C1133   1.463   .     S
C1127  O1187   1.307   .     A
C1128  O1189   1.307   .     A
C1128  C1131   1.463   .     S
C1128  O1188   1.307   .     A
C1129  C1131   1.403   .     A
C1129  C1140   1.396   .     A
C1129  H1163   1.083   .     S
C1130  C1141   1.396   .     A
C1130  H1173   1.083   .     S
C1130  C1133   1.403   .     A
C1131  C1134   1.403   .     A
C1132  O1185   1.306   .     A
C1132  O1184   1.306   .     A
C1132  C1154   1.460   .     S
C1133  C1135   1.403   .     A
C1134  H1174   1.084   .     S
C1134  C1136   1.393   .     A
C1135  C1137   1.393   .     A
C1135  H1175   1.084   .     S
C1136  C1138   1.411   .     A
C1136  C1142   1.401   .     A
C1137  C1144   1.401   .     A
C1137  C1139   1.411   .     A
C1138  C1140   1.412   .     A
C1138  C509    1.403   1_556 S
C1139  C1141   1.412   .     A
C1140  C1149   1.405   .     A
C1141  C1143   1.405   .     A
C1142  H1176   1.083   .     S
C1142  C513    1.394   1_556 S
C1143  F1157   1.358   .     S
C1144  H1177   1.083   .     S
C1145  H1179   1.109   .     S
C1145  H1180   1.108   .     S
C1145  H1178   1.082   .     S
C1146  H1164   1.082   .     S
C1146  H1166   1.109   .     S
C1146  H1165   1.108   .     S
C1147  H1167   1.082   .     S
C1147  H1168   1.110   .     S
C1147  H1169   1.108   .     S
C1148  H1172   1.110   .     S
C1148  H1171   1.108   .     S
C1148  H1170   1.082   .     S
C1149  F1158   1.358   .     S
C1149  C514    1.394   1_556 S
C1150  F1159   1.358   .     S
C1151  C1154   1.406   .     A
C1151  F1160   1.358   .     S
C1151  C1223   1.383   .     S
C1152  F1161   1.358   .     S
C1152  C1154   1.406   .     A
C1152  C1220   1.383   .     S
C1153  F1162   1.358   .     S
Cu1155 Cu1156  2.720   .     S
Cu1155 O1187   1.968   .     S
Cu1155 N1181   2.044   .     S
Cu1155 O1189   1.968   .     S
Cu1155 O1185   1.976   .     S
Cu1155 O1183   1.976   .     S
Cu1156 O1188   1.968   .     S
Cu1156 N1182   2.044   .     S
Cu1156 O1190   1.968   .     S
Cu1156 O1186   1.976   .     S
Cu1156 O1184   1.976   .     S
C1191  C1192   1.460   .     S
C1191  O1256   1.306   .     A
C1191  O1253   1.306   .     A
C1192  C1220   1.406   .     A
C1192  C1223   1.406   .     A
C1193  C1215   1.520   .     S
C1193  N1252   1.382   .     A
C1194  C1216   1.520   .     S
C1194  N1251   1.382   .     A
C1194  C775    1.435   1_565 S
C1195  C1217   1.520   .     S
C1195  N1252   1.382   .     A
C1196  N1251   1.382   .     A
C1196  C1218   1.520   .     S
C1196  C773    1.435   1_565 S
C1197  O1260   1.307   .     A
C1197  C1203   1.463   .     S
C1197  O1257   1.307   .     A
C1198  O1259   1.307   .     A
C1198  C1201   1.463   .     S
C1198  O1258   1.307   .     A
C1199  C1201   1.403   .     A
C1199  C1210   1.396   .     A
C1199  H1233   1.083   .     S
C1200  C1211   1.396   .     A
C1200  H1243   1.083   .     S
C1200  C1203   1.403   .     A
C1201  C1204   1.403   .     A
C1202  O1255   1.306   .     A
C1202  O1254   1.306   .     A
C1202  C1224   1.460   .     S
C1203  C1205   1.403   .     A
C1204  H1244   1.084   .     S
C1204  C1206   1.393   .     A
C1205  C1207   1.393   .     A
C1205  H1245   1.084   .     S
C1206  C1208   1.411   .     A
C1206  C1212   1.401   .     A
C1207  C1214   1.401   .     A
C1207  C1209   1.411   .     A
C1208  C1210   1.412   .     A
C1208  C579    1.403   1_556 S
C1209  C1211   1.412   .     A
C1210  C1219   1.405   .     A
C1211  C1213   1.405   .     A
C1212  H1246   1.083   .     S
C1212  C583    1.394   1_556 S
C1213  F1227   1.358   .     S
C1214  H1247   1.083   .     S
C1215  H1249   1.109   .     S
C1215  H1250   1.108   .     S
C1215  H1248   1.082   .     S
C1216  H1234   1.082   .     S
C1216  H1236   1.109   .     S
C1216  H1235   1.108   .     S
C1217  H1237   1.082   .     S
C1217  H1238   1.110   .     S
C1217  H1239   1.108   .     S
C1218  H1242   1.110   .     S
C1218  H1241   1.108   .     S
C1218  H1240   1.082   .     S
C1219  F1228   1.358   .     S
C1219  C584    1.394   1_556 S
C1220  F1229   1.358   .     S
C1221  C1224   1.406   .     A
C1221  F1230   1.358   .     S
C1221  C1083   1.383   1_655 S
C1222  F1231   1.358   .     S
C1222  C1224   1.406   .     A
C1222  C1080   1.383   1_655 S
C1223  F1232   1.358   .     S
Cu1225 Cu1226  2.720   .     S
Cu1225 O1257   1.968   .     S
Cu1225 N1251   2.044   .     S
Cu1225 O1259   1.968   .     S
Cu1225 O1255   1.976   .     S
Cu1225 O1253   1.976   .     S
Cu1226 O1258   1.968   .     S
Cu1226 N1252   2.044   .     S
Cu1226 O1260   1.968   .     S
Cu1226 O1256   1.976   .     S
Cu1226 O1254   1.976   .     S
