data_str_m1_o10_o18_pcu_sym.73
_audit_creation_date              2020-01-03
_audit_creation_method            'Materials Studio'
_symmetry_space_group_name_H-M    'P1'
_symmetry_Int_Tables_number       1
_symmetry_cell_setting            triclinic
loop_
_symmetry_equiv_pos_as_xyz
  x,y,z
_cell_length_a                    32.7296
_cell_length_b                    32.5891
_cell_length_c                    35.6617
_cell_angle_alpha                 97.8940
_cell_angle_beta                  72.3318
_cell_angle_gamma                 97.4545
loop_
_atom_site_label
_atom_site_type_symbol
_atom_site_fract_x
_atom_site_fract_y
_atom_site_fract_z
_atom_site_U_iso_or_equiv
_atom_site_adp_type
_atom_site_occupancy
C1     C     0.05264   0.16037   0.25951   0.00000  Uiso   1.00
C2     C     0.20403   0.14238   0.45891   0.00000  Uiso   1.00
C3     C     0.22991   0.12701   0.47709   0.00000  Uiso   1.00
C4     C     0.28104   0.17326   0.24109   0.00000  Uiso   1.00
C5     C     0.22014   0.13088   0.01836   0.00000  Uiso   1.00
C6     C     0.18313   0.15058   0.04171   0.00000  Uiso   1.00
C7     C     0.24757   0.11610   0.03648   0.00000  Uiso   1.00
C8     C     0.23677   0.11851   0.07822   0.00000  Uiso   1.00
C9     C     0.17263   0.15184   0.08306   0.00000  Uiso   1.00
C10    C     0.32717   0.17305   0.23563   0.00000  Uiso   1.00
C11    C     0.00749   0.16151   0.26479   0.00000  Uiso   1.00
C12    C     0.10523   0.22542   0.42168   0.00000  Uiso   1.00
C13    C     0.17687   0.32128   0.23686   0.00000  Uiso   1.00
C14    C     0.15294   0.01365   0.26543   0.00000  Uiso   1.00
C15    C     0.15647   0.05652   0.25912   0.00000  Uiso   1.00
C16    C     0.17637   0.27763   0.24142   0.00000  Uiso   1.00
C17    C     0.18868   0.14530   0.14408   0.00000  Uiso   1.00
C18    C     0.14382   0.18665   0.35668   0.00000  Uiso   1.00
C19    C     0.13060   0.19279   0.40077   0.00000  Uiso   1.00
C20    C     0.19925   0.13716   0.10106   0.00000  Uiso   1.00
C21    C     0.09346   0.22995   0.46326   0.00000  Uiso   1.00
C22    C     0.07907   0.25025   0.05023   0.00000  Uiso   1.00
C23    C     0.14181   0.16522   0.42268   0.00000  Uiso   1.00
C24    C     0.31886   0.13026   0.00559   0.00000  Uiso   1.00
C25    C     0.02621   0.11135   0.47981   0.00000  Uiso   1.00
C26    C     0.02349   0.18388   0.19641   0.00000  Uiso   1.00
C27    C     0.31326   0.15918   0.30651   0.00000  Uiso   1.00
C28    C     0.13399   0.00489   0.30732   0.00000  Uiso   1.00
C29    C     0.26372   0.10111   0.09820   0.00000  Uiso   1.00
C30    C     0.08766   0.29114   0.41527   0.00000  Uiso   1.00
C31    C     0.04172   0.30327   0.43267   0.00000  Uiso   1.00
C32    C     0.14207   0.11976   0.40826   0.00000  Uiso   1.00
C33    C     0.14138   0.17876   0.46237   0.00000  Uiso   1.00
C34    C     0.11383   0.20953   0.48377   0.00000  Uiso   1.00
C35    C     0.16724   0.16231   0.48123   0.00000  Uiso   1.00
C36    C     0.15831   0.16901   0.02294   0.00000  Uiso   1.00
C37    C     0.12702   0.19627   0.04422   0.00000  Uiso   1.00
C38    C     0.10659   0.21809   0.02514   0.00000  Uiso   1.00
H39    H     0.19603   0.33250   0.20887   0.00000  Uiso   1.00
H40    H     0.05327   0.13609   0.47345   0.00000  Uiso   1.00
H41    H     0.03454   0.08777   0.49532   0.00000  Uiso   1.00
H42    H     0.02133   0.09632   0.45141   0.00000  Uiso   1.00
H43    H     0.01060   0.18353   0.17168   0.00000  Uiso   1.00
H44    H     0.28604   0.17761   0.31897   0.00000  Uiso   1.00
H45    H     0.10365   0.01676   0.32459   0.00000  Uiso   1.00
H46    H     0.25719   0.10629   0.13009   0.00000  Uiso   1.00
H47    H     0.10323   0.30904   0.38965   0.00000  Uiso   1.00
H48    H     0.10656   0.30142   0.43672   0.00000  Uiso   1.00
H49    H     0.02416   0.28585   0.45835   0.00000  Uiso   1.00
H50    H     0.14365   0.16414   0.10246   0.00000  Uiso   1.00
H51    H     0.04229   0.00379   0.44258   0.00000  Uiso   1.00
H52    H     0.02429   0.29630   0.40990   0.00000  Uiso   1.00
H53    H     0.14252   0.10840   0.37821   0.00000  Uiso   1.00
H54    H     0.25789   0.11216   0.45841   0.00000  Uiso   1.00
H55    H     0.06906   0.25033   0.47905   0.00000  Uiso   1.00
H56    H     0.12077   0.20449   0.07563   0.00000  Uiso   1.00
H57    H     0.21418   0.13988   0.42691   0.00000  Uiso   1.00
H58    H     0.06058   0.24490   0.08033   0.00000  Uiso   1.00
H59    H     0.32499   0.14542   0.03359   0.00000  Uiso   1.00
H60    H     0.31209   0.15444   0.48959   0.00000  Uiso   1.00
O61    O     0.16667   0.16667   0.25000   0.00000  Uiso   1.00
O62    O     0.15693   0.12393   0.16625   0.00000  Uiso   1.00
O63    O     0.12687   0.20646   0.33749   0.00000  Uiso   1.00
O64    O     0.21088   0.17493   0.15877   0.00000  Uiso   1.00
O65    O     0.17198   0.16135   0.33749   0.00000  Uiso   1.00
O66    O     0.07902   0.28390   0.03885   0.00000  Uiso   1.00
O67    O     0.28450   0.09850   0.01321   0.00000  Uiso   1.00
O68    O     0.06180   0.19445   0.19136   0.00000  Uiso   1.00
O69    O     0.32190   0.13751   0.32791   0.00000  Uiso   1.00
O70    O     0.15385   0.32087   0.32355   0.00000  Uiso   1.00
O71    O     0.29304   0.08008   0.07963   0.00000  Uiso   1.00
O72    O     0.17849   0.08101   0.27821   0.00000  Uiso   1.00
O73    O     0.08724   0.24818   0.40136   0.00000  Uiso   1.00
O74    O     0.13820   0.09363   0.43090   0.00000  Uiso   1.00
O75    O     0.14581   0.26136   0.26767   0.00000  Uiso   1.00
O76    O     0.07452   0.13251   0.23607   0.00000  Uiso   1.00
O77    O     0.26785   0.19179   0.21806   0.00000  Uiso   1.00
O78    O     0.06990   0.18960   0.27820   0.00000  Uiso   1.00
O79    O     0.25440   0.15277   0.26768   0.00000  Uiso   1.00
O80    O     0.13800   0.06903   0.23607   0.00000  Uiso   1.00
O81    O     0.20437   0.25527   0.21806   0.00000  Uiso   1.00
Zn82   Zn    0.19244   0.14090   0.28278   0.00000  Uiso   1.00
Zn83   Zn    0.13459   0.12378   0.22258   0.00000  Uiso   1.00
Zn84   Zn    0.21166   0.19664   0.21188   0.00000  Uiso   1.00
Zn85   Zn    0.12798   0.20535   0.28277   0.00000  Uiso   1.00
C86    C     0.38598   0.16037   0.25951   0.00000  Uiso   1.00
C87    C     0.53737   0.14238   0.45891   0.00000  Uiso   1.00
C88    C     0.56324   0.12701   0.47709   0.00000  Uiso   1.00
C89    C     0.61437   0.17326   0.24109   0.00000  Uiso   1.00
C90    C     0.55347   0.13088   0.01836   0.00000  Uiso   1.00
C91    C     0.51647   0.15058   0.04171   0.00000  Uiso   1.00
C92    C     0.58091   0.11610   0.03648   0.00000  Uiso   1.00
C93    C     0.57010   0.11851   0.07822   0.00000  Uiso   1.00
C94    C     0.50596   0.15184   0.08306   0.00000  Uiso   1.00
C95    C     0.66050   0.17305   0.23563   0.00000  Uiso   1.00
C96    C     0.34082   0.16151   0.26479   0.00000  Uiso   1.00
C97    C     0.43856   0.22542   0.42168   0.00000  Uiso   1.00
C98    C     0.51021   0.32128   0.23686   0.00000  Uiso   1.00
C99    C     0.48627   0.01365   0.26543   0.00000  Uiso   1.00
C100   C     0.48980   0.05652   0.25912   0.00000  Uiso   1.00
C101   C     0.50970   0.27763   0.24142   0.00000  Uiso   1.00
C102   C     0.52201   0.14530   0.14408   0.00000  Uiso   1.00
C103   C     0.47716   0.18665   0.35668   0.00000  Uiso   1.00
C104   C     0.46393   0.19279   0.40077   0.00000  Uiso   1.00
C105   C     0.53258   0.13716   0.10106   0.00000  Uiso   1.00
C106   C     0.42679   0.22995   0.46326   0.00000  Uiso   1.00
C107   C     0.41240   0.25025   0.05023   0.00000  Uiso   1.00
C108   C     0.47514   0.16522   0.42268   0.00000  Uiso   1.00
C109   C     0.65219   0.13026   0.00559   0.00000  Uiso   1.00
C110   C     0.35954   0.11135   0.47981   0.00000  Uiso   1.00
C111   C     0.35683   0.18388   0.19641   0.00000  Uiso   1.00
C112   C     0.64659   0.15918   0.30651   0.00000  Uiso   1.00
C113   C     0.46732   0.00489   0.30732   0.00000  Uiso   1.00
C114   C     0.59705   0.10111   0.09820   0.00000  Uiso   1.00
C115   C     0.42100   0.29114   0.41527   0.00000  Uiso   1.00
C116   C     0.37505   0.30327   0.43267   0.00000  Uiso   1.00
C117   C     0.47540   0.11976   0.40826   0.00000  Uiso   1.00
C118   C     0.47471   0.17876   0.46237   0.00000  Uiso   1.00
C119   C     0.44717   0.20953   0.48377   0.00000  Uiso   1.00
C120   C     0.50057   0.16231   0.48123   0.00000  Uiso   1.00
C121   C     0.49165   0.16901   0.02294   0.00000  Uiso   1.00
C122   C     0.46035   0.19627   0.04422   0.00000  Uiso   1.00
C123   C     0.43992   0.21809   0.02514   0.00000  Uiso   1.00
H124   H     0.52936   0.33250   0.20887   0.00000  Uiso   1.00
H125   H     0.38661   0.13609   0.47345   0.00000  Uiso   1.00
H126   H     0.36788   0.08777   0.49532   0.00000  Uiso   1.00
H127   H     0.35466   0.09632   0.45141   0.00000  Uiso   1.00
H128   H     0.34393   0.18353   0.17168   0.00000  Uiso   1.00
H129   H     0.61938   0.17761   0.31897   0.00000  Uiso   1.00
H130   H     0.43699   0.01676   0.32459   0.00000  Uiso   1.00
H131   H     0.59053   0.10629   0.13009   0.00000  Uiso   1.00
H132   H     0.43656   0.30904   0.38965   0.00000  Uiso   1.00
H133   H     0.43990   0.30142   0.43672   0.00000  Uiso   1.00
H134   H     0.35750   0.28585   0.45835   0.00000  Uiso   1.00
H135   H     0.47698   0.16414   0.10246   0.00000  Uiso   1.00
H136   H     0.37562   0.00379   0.44258   0.00000  Uiso   1.00
H137   H     0.35762   0.29630   0.40990   0.00000  Uiso   1.00
H138   H     0.47586   0.10840   0.37821   0.00000  Uiso   1.00
H139   H     0.59122   0.11216   0.45841   0.00000  Uiso   1.00
H140   H     0.40240   0.25033   0.47905   0.00000  Uiso   1.00
H141   H     0.45410   0.20449   0.07563   0.00000  Uiso   1.00
H142   H     0.54752   0.13988   0.42691   0.00000  Uiso   1.00
H143   H     0.39391   0.24490   0.08033   0.00000  Uiso   1.00
H144   H     0.65832   0.14542   0.03359   0.00000  Uiso   1.00
H145   H     0.64543   0.15444   0.48959   0.00000  Uiso   1.00
O146   O     0.50000   0.16667   0.25000   0.00000  Uiso   1.00
O147   O     0.49027   0.12393   0.16625   0.00000  Uiso   1.00
O148   O     0.46020   0.20646   0.33749   0.00000  Uiso   1.00
O149   O     0.54421   0.17493   0.15877   0.00000  Uiso   1.00
O150   O     0.50532   0.16135   0.33749   0.00000  Uiso   1.00
O151   O     0.41236   0.28390   0.03885   0.00000  Uiso   1.00
O152   O     0.61784   0.09850   0.01321   0.00000  Uiso   1.00
O153   O     0.39513   0.19445   0.19136   0.00000  Uiso   1.00
O154   O     0.65523   0.13751   0.32791   0.00000  Uiso   1.00
O155   O     0.48718   0.32087   0.32355   0.00000  Uiso   1.00
O156   O     0.62638   0.08008   0.07963   0.00000  Uiso   1.00
O157   O     0.51182   0.08101   0.27821   0.00000  Uiso   1.00
O158   O     0.42058   0.24818   0.40136   0.00000  Uiso   1.00
O159   O     0.47153   0.09363   0.43090   0.00000  Uiso   1.00
O160   O     0.47914   0.26136   0.26767   0.00000  Uiso   1.00
O161   O     0.40785   0.13251   0.23607   0.00000  Uiso   1.00
O162   O     0.60119   0.19179   0.21806   0.00000  Uiso   1.00
O163   O     0.40323   0.18960   0.27820   0.00000  Uiso   1.00
O164   O     0.58773   0.15277   0.26768   0.00000  Uiso   1.00
O165   O     0.47133   0.06903   0.23607   0.00000  Uiso   1.00
O166   O     0.53771   0.25527   0.21806   0.00000  Uiso   1.00
Zn167  Zn    0.52577   0.14090   0.28278   0.00000  Uiso   1.00
Zn168  Zn    0.46792   0.12378   0.22258   0.00000  Uiso   1.00
Zn169  Zn    0.54500   0.19664   0.21188   0.00000  Uiso   1.00
Zn170  Zn    0.46131   0.20535   0.28277   0.00000  Uiso   1.00
C171   C     0.71931   0.16037   0.25951   0.00000  Uiso   1.00
C172   C     0.87070   0.14238   0.45891   0.00000  Uiso   1.00
C173   C     0.89657   0.12701   0.47709   0.00000  Uiso   1.00
C174   C     0.94770   0.17326   0.24109   0.00000  Uiso   1.00
C175   C     0.88681   0.13088   0.01836   0.00000  Uiso   1.00
C176   C     0.84980   0.15058   0.04171   0.00000  Uiso   1.00
C177   C     0.91424   0.11610   0.03648   0.00000  Uiso   1.00
C178   C     0.90344   0.11851   0.07822   0.00000  Uiso   1.00
C179   C     0.83930   0.15184   0.08306   0.00000  Uiso   1.00
C180   C     0.99384   0.17305   0.23563   0.00000  Uiso   1.00
C181   C     0.67415   0.16151   0.26479   0.00000  Uiso   1.00
C182   C     0.77190   0.22542   0.42168   0.00000  Uiso   1.00
C183   C     0.84354   0.32128   0.23686   0.00000  Uiso   1.00
C184   C     0.81961   0.01365   0.26543   0.00000  Uiso   1.00
C185   C     0.82314   0.05652   0.25912   0.00000  Uiso   1.00
C186   C     0.84303   0.27763   0.24142   0.00000  Uiso   1.00
C187   C     0.85535   0.14530   0.14408   0.00000  Uiso   1.00
C188   C     0.81049   0.18665   0.35668   0.00000  Uiso   1.00
C189   C     0.79727   0.19279   0.40077   0.00000  Uiso   1.00
C190   C     0.86591   0.13716   0.10106   0.00000  Uiso   1.00
C191   C     0.76013   0.22995   0.46326   0.00000  Uiso   1.00
C192   C     0.74573   0.25025   0.05023   0.00000  Uiso   1.00
C193   C     0.80848   0.16522   0.42268   0.00000  Uiso   1.00
C194   C     0.98553   0.13026   0.00559   0.00000  Uiso   1.00
C195   C     0.69288   0.11135   0.47981   0.00000  Uiso   1.00
C196   C     0.69016   0.18388   0.19641   0.00000  Uiso   1.00
C197   C     0.97992   0.15918   0.30651   0.00000  Uiso   1.00
C198   C     0.80066   0.00489   0.30732   0.00000  Uiso   1.00
C199   C     0.93038   0.10111   0.09820   0.00000  Uiso   1.00
C200   C     0.75433   0.29114   0.41527   0.00000  Uiso   1.00
C201   C     0.70839   0.30327   0.43267   0.00000  Uiso   1.00
C202   C     0.80874   0.11976   0.40826   0.00000  Uiso   1.00
C203   C     0.80804   0.17876   0.46237   0.00000  Uiso   1.00
C204   C     0.78050   0.20953   0.48377   0.00000  Uiso   1.00
C205   C     0.83390   0.16231   0.48123   0.00000  Uiso   1.00
C206   C     0.82498   0.16901   0.02294   0.00000  Uiso   1.00
C207   C     0.79368   0.19627   0.04422   0.00000  Uiso   1.00
C208   C     0.77325   0.21809   0.02514   0.00000  Uiso   1.00
H209   H     0.86270   0.33250   0.20887   0.00000  Uiso   1.00
H210   H     0.71994   0.13609   0.47345   0.00000  Uiso   1.00
H211   H     0.70121   0.08777   0.49532   0.00000  Uiso   1.00
H212   H     0.68799   0.09632   0.45141   0.00000  Uiso   1.00
H213   H     0.67726   0.18353   0.17168   0.00000  Uiso   1.00
H214   H     0.95271   0.17761   0.31897   0.00000  Uiso   1.00
H215   H     0.77032   0.01676   0.32459   0.00000  Uiso   1.00
H216   H     0.92386   0.10629   0.13009   0.00000  Uiso   1.00
H217   H     0.76990   0.30904   0.38965   0.00000  Uiso   1.00
H218   H     0.77323   0.30142   0.43672   0.00000  Uiso   1.00
H219   H     0.69083   0.28585   0.45835   0.00000  Uiso   1.00
H220   H     0.81031   0.16414   0.10246   0.00000  Uiso   1.00
H221   H     0.70896   0.00379   0.44258   0.00000  Uiso   1.00
H222   H     0.69095   0.29630   0.40990   0.00000  Uiso   1.00
H223   H     0.80919   0.10840   0.37821   0.00000  Uiso   1.00
H224   H     0.92456   0.11216   0.45841   0.00000  Uiso   1.00
H225   H     0.73573   0.25033   0.47905   0.00000  Uiso   1.00
H226   H     0.78744   0.20449   0.07563   0.00000  Uiso   1.00
H227   H     0.88085   0.13988   0.42691   0.00000  Uiso   1.00
H228   H     0.72725   0.24490   0.08033   0.00000  Uiso   1.00
H229   H     0.99165   0.14542   0.03359   0.00000  Uiso   1.00
H230   H     0.97876   0.15444   0.48959   0.00000  Uiso   1.00
O231   O     0.83333   0.16667   0.25000   0.00000  Uiso   1.00
O232   O     0.82360   0.12393   0.16625   0.00000  Uiso   1.00
O233   O     0.79354   0.20646   0.33749   0.00000  Uiso   1.00
O234   O     0.87755   0.17493   0.15877   0.00000  Uiso   1.00
O235   O     0.83865   0.16135   0.33749   0.00000  Uiso   1.00
O236   O     0.74569   0.28390   0.03885   0.00000  Uiso   1.00
O237   O     0.95117   0.09850   0.01321   0.00000  Uiso   1.00
O238   O     0.72847   0.19445   0.19136   0.00000  Uiso   1.00
O239   O     0.98857   0.13751   0.32791   0.00000  Uiso   1.00
O240   O     0.82052   0.32087   0.32355   0.00000  Uiso   1.00
O241   O     0.95971   0.08008   0.07963   0.00000  Uiso   1.00
O242   O     0.84515   0.08101   0.27821   0.00000  Uiso   1.00
O243   O     0.75391   0.24818   0.40136   0.00000  Uiso   1.00
O244   O     0.80487   0.09363   0.43090   0.00000  Uiso   1.00
O245   O     0.81247   0.26136   0.26767   0.00000  Uiso   1.00
O246   O     0.74119   0.13251   0.23607   0.00000  Uiso   1.00
O247   O     0.93452   0.19179   0.21806   0.00000  Uiso   1.00
O248   O     0.73656   0.18960   0.27820   0.00000  Uiso   1.00
O249   O     0.92106   0.15277   0.26768   0.00000  Uiso   1.00
O250   O     0.80467   0.06903   0.23607   0.00000  Uiso   1.00
O251   O     0.87104   0.25527   0.21806   0.00000  Uiso   1.00
Zn252  Zn    0.85910   0.14090   0.28278   0.00000  Uiso   1.00
Zn253  Zn    0.80125   0.12378   0.22258   0.00000  Uiso   1.00
Zn254  Zn    0.87833   0.19664   0.21188   0.00000  Uiso   1.00
Zn255  Zn    0.79465   0.20535   0.28277   0.00000  Uiso   1.00
C256   C     0.05264   0.49370   0.25951   0.00000  Uiso   1.00
C257   C     0.20403   0.47572   0.45891   0.00000  Uiso   1.00
C258   C     0.22991   0.46035   0.47709   0.00000  Uiso   1.00
C259   C     0.28104   0.50659   0.24109   0.00000  Uiso   1.00
C260   C     0.22014   0.46421   0.01836   0.00000  Uiso   1.00
C261   C     0.18313   0.48392   0.04171   0.00000  Uiso   1.00
C262   C     0.24757   0.44943   0.03648   0.00000  Uiso   1.00
C263   C     0.23677   0.45185   0.07822   0.00000  Uiso   1.00
C264   C     0.17263   0.48518   0.08306   0.00000  Uiso   1.00
C265   C     0.32717   0.50639   0.23563   0.00000  Uiso   1.00
C266   C     0.00749   0.49484   0.26479   0.00000  Uiso   1.00
C267   C     0.10523   0.55876   0.42168   0.00000  Uiso   1.00
C268   C     0.17687   0.65461   0.23686   0.00000  Uiso   1.00
C269   C     0.15294   0.34698   0.26543   0.00000  Uiso   1.00
C270   C     0.15647   0.38985   0.25912   0.00000  Uiso   1.00
C271   C     0.17637   0.61096   0.24142   0.00000  Uiso   1.00
C272   C     0.18868   0.47863   0.14408   0.00000  Uiso   1.00
C273   C     0.14382   0.51998   0.35668   0.00000  Uiso   1.00
C274   C     0.13060   0.52613   0.40077   0.00000  Uiso   1.00
C275   C     0.19925   0.47049   0.10106   0.00000  Uiso   1.00
C276   C     0.09346   0.56328   0.46326   0.00000  Uiso   1.00
C277   C     0.07907   0.58359   0.05023   0.00000  Uiso   1.00
C278   C     0.14181   0.49855   0.42268   0.00000  Uiso   1.00
C279   C     0.31886   0.46360   0.00559   0.00000  Uiso   1.00
C280   C     0.02621   0.44469   0.47981   0.00000  Uiso   1.00
C281   C     0.02349   0.51721   0.19641   0.00000  Uiso   1.00
C282   C     0.31326   0.49252   0.30651   0.00000  Uiso   1.00
C283   C     0.13399   0.33822   0.30732   0.00000  Uiso   1.00
C284   C     0.26372   0.43445   0.09820   0.00000  Uiso   1.00
C285   C     0.08766   0.62447   0.41527   0.00000  Uiso   1.00
C286   C     0.04172   0.63661   0.43267   0.00000  Uiso   1.00
C287   C     0.14207   0.45309   0.40826   0.00000  Uiso   1.00
C288   C     0.14138   0.51210   0.46237   0.00000  Uiso   1.00
C289   C     0.11383   0.54286   0.48377   0.00000  Uiso   1.00
C290   C     0.16724   0.49564   0.48123   0.00000  Uiso   1.00
C291   C     0.15831   0.50234   0.02294   0.00000  Uiso   1.00
C292   C     0.12702   0.52960   0.04422   0.00000  Uiso   1.00
C293   C     0.10659   0.55142   0.02514   0.00000  Uiso   1.00
H294   H     0.19603   0.66583   0.20887   0.00000  Uiso   1.00
H295   H     0.05327   0.46943   0.47345   0.00000  Uiso   1.00
H296   H     0.03454   0.42110   0.49532   0.00000  Uiso   1.00
H297   H     0.02133   0.42965   0.45141   0.00000  Uiso   1.00
H298   H     0.01060   0.51686   0.17168   0.00000  Uiso   1.00
H299   H     0.28604   0.51094   0.31897   0.00000  Uiso   1.00
H300   H     0.10365   0.35009   0.32459   0.00000  Uiso   1.00
H301   H     0.25719   0.43962   0.13009   0.00000  Uiso   1.00
H302   H     0.10323   0.64238   0.38965   0.00000  Uiso   1.00
H303   H     0.10656   0.63475   0.43672   0.00000  Uiso   1.00
H304   H     0.02416   0.61918   0.45835   0.00000  Uiso   1.00
H305   H     0.14365   0.49748   0.10246   0.00000  Uiso   1.00
H306   H     0.04229   0.33712   0.44258   0.00000  Uiso   1.00
H307   H     0.02429   0.62964   0.40990   0.00000  Uiso   1.00
H308   H     0.14252   0.44173   0.37821   0.00000  Uiso   1.00
H309   H     0.25789   0.44549   0.45841   0.00000  Uiso   1.00
H310   H     0.06906   0.58366   0.47905   0.00000  Uiso   1.00
H311   H     0.12077   0.53782   0.07563   0.00000  Uiso   1.00
H312   H     0.21418   0.47322   0.42691   0.00000  Uiso   1.00
H313   H     0.06058   0.57824   0.08033   0.00000  Uiso   1.00
H314   H     0.32499   0.47875   0.03359   0.00000  Uiso   1.00
H315   H     0.31209   0.48778   0.48959   0.00000  Uiso   1.00
O316   O     0.16667   0.50000   0.25000   0.00000  Uiso   1.00
O317   O     0.15693   0.45726   0.16625   0.00000  Uiso   1.00
O318   O     0.12687   0.53979   0.33749   0.00000  Uiso   1.00
O319   O     0.21088   0.50826   0.15877   0.00000  Uiso   1.00
O320   O     0.17198   0.49468   0.33749   0.00000  Uiso   1.00
O321   O     0.07902   0.61723   0.03885   0.00000  Uiso   1.00
O322   O     0.28450   0.43183   0.01321   0.00000  Uiso   1.00
O323   O     0.06180   0.52778   0.19136   0.00000  Uiso   1.00
O324   O     0.32190   0.47084   0.32791   0.00000  Uiso   1.00
O325   O     0.15385   0.65420   0.32355   0.00000  Uiso   1.00
O326   O     0.29304   0.41341   0.07963   0.00000  Uiso   1.00
O327   O     0.17849   0.41434   0.27821   0.00000  Uiso   1.00
O328   O     0.08724   0.58151   0.40136   0.00000  Uiso   1.00
O329   O     0.13820   0.42696   0.43090   0.00000  Uiso   1.00
O330   O     0.14581   0.59469   0.26767   0.00000  Uiso   1.00
O331   O     0.07452   0.46584   0.23607   0.00000  Uiso   1.00
O332   O     0.26785   0.52512   0.21806   0.00000  Uiso   1.00
O333   O     0.06990   0.52293   0.27820   0.00000  Uiso   1.00
O334   O     0.25440   0.48610   0.26768   0.00000  Uiso   1.00
O335   O     0.13800   0.40236   0.23607   0.00000  Uiso   1.00
O336   O     0.20437   0.58860   0.21806   0.00000  Uiso   1.00
Zn337  Zn    0.19244   0.47423   0.28278   0.00000  Uiso   1.00
Zn338  Zn    0.13459   0.45711   0.22258   0.00000  Uiso   1.00
Zn339  Zn    0.21166   0.52997   0.21188   0.00000  Uiso   1.00
Zn340  Zn    0.12798   0.53868   0.28277   0.00000  Uiso   1.00
C341   C     0.38598   0.49370   0.25951   0.00000  Uiso   1.00
C342   C     0.53737   0.47572   0.45891   0.00000  Uiso   1.00
C343   C     0.56324   0.46035   0.47709   0.00000  Uiso   1.00
C344   C     0.61437   0.50659   0.24109   0.00000  Uiso   1.00
C345   C     0.55347   0.46421   0.01836   0.00000  Uiso   1.00
C346   C     0.51647   0.48392   0.04171   0.00000  Uiso   1.00
C347   C     0.58091   0.44943   0.03648   0.00000  Uiso   1.00
C348   C     0.57010   0.45185   0.07822   0.00000  Uiso   1.00
C349   C     0.50596   0.48518   0.08306   0.00000  Uiso   1.00
C350   C     0.66050   0.50639   0.23563   0.00000  Uiso   1.00
C351   C     0.34082   0.49484   0.26479   0.00000  Uiso   1.00
C352   C     0.43856   0.55876   0.42168   0.00000  Uiso   1.00
C353   C     0.51021   0.65461   0.23686   0.00000  Uiso   1.00
C354   C     0.48627   0.34698   0.26543   0.00000  Uiso   1.00
C355   C     0.48980   0.38985   0.25912   0.00000  Uiso   1.00
C356   C     0.50970   0.61096   0.24142   0.00000  Uiso   1.00
C357   C     0.52201   0.47863   0.14408   0.00000  Uiso   1.00
C358   C     0.47716   0.51998   0.35668   0.00000  Uiso   1.00
C359   C     0.46393   0.52613   0.40077   0.00000  Uiso   1.00
C360   C     0.53258   0.47049   0.10106   0.00000  Uiso   1.00
C361   C     0.42679   0.56328   0.46326   0.00000  Uiso   1.00
C362   C     0.41240   0.58359   0.05023   0.00000  Uiso   1.00
C363   C     0.47514   0.49855   0.42268   0.00000  Uiso   1.00
C364   C     0.65219   0.46360   0.00559   0.00000  Uiso   1.00
C365   C     0.35954   0.44469   0.47981   0.00000  Uiso   1.00
C366   C     0.35683   0.51721   0.19641   0.00000  Uiso   1.00
C367   C     0.64659   0.49252   0.30651   0.00000  Uiso   1.00
C368   C     0.46732   0.33822   0.30732   0.00000  Uiso   1.00
C369   C     0.59705   0.43445   0.09820   0.00000  Uiso   1.00
C370   C     0.42100   0.62447   0.41527   0.00000  Uiso   1.00
C371   C     0.37505   0.63661   0.43267   0.00000  Uiso   1.00
C372   C     0.47540   0.45309   0.40826   0.00000  Uiso   1.00
C373   C     0.47471   0.51210   0.46237   0.00000  Uiso   1.00
C374   C     0.44717   0.54286   0.48377   0.00000  Uiso   1.00
C375   C     0.50057   0.49564   0.48123   0.00000  Uiso   1.00
C376   C     0.49165   0.50234   0.02294   0.00000  Uiso   1.00
C377   C     0.46035   0.52960   0.04422   0.00000  Uiso   1.00
C378   C     0.43992   0.55142   0.02514   0.00000  Uiso   1.00
H379   H     0.52936   0.66583   0.20887   0.00000  Uiso   1.00
H380   H     0.38661   0.46943   0.47345   0.00000  Uiso   1.00
H381   H     0.36788   0.42110   0.49532   0.00000  Uiso   1.00
H382   H     0.35466   0.42965   0.45141   0.00000  Uiso   1.00
H383   H     0.34393   0.51686   0.17168   0.00000  Uiso   1.00
H384   H     0.61938   0.51094   0.31897   0.00000  Uiso   1.00
H385   H     0.43699   0.35009   0.32459   0.00000  Uiso   1.00
H386   H     0.59053   0.43962   0.13009   0.00000  Uiso   1.00
H387   H     0.43656   0.64238   0.38965   0.00000  Uiso   1.00
H388   H     0.43990   0.63475   0.43672   0.00000  Uiso   1.00
H389   H     0.35750   0.61918   0.45835   0.00000  Uiso   1.00
H390   H     0.47698   0.49748   0.10246   0.00000  Uiso   1.00
H391   H     0.37562   0.33712   0.44258   0.00000  Uiso   1.00
H392   H     0.35762   0.62964   0.40990   0.00000  Uiso   1.00
H393   H     0.47586   0.44173   0.37821   0.00000  Uiso   1.00
H394   H     0.59122   0.44549   0.45841   0.00000  Uiso   1.00
H395   H     0.40240   0.58366   0.47905   0.00000  Uiso   1.00
H396   H     0.45410   0.53782   0.07563   0.00000  Uiso   1.00
H397   H     0.54752   0.47322   0.42691   0.00000  Uiso   1.00
H398   H     0.39391   0.57824   0.08033   0.00000  Uiso   1.00
H399   H     0.65832   0.47875   0.03359   0.00000  Uiso   1.00
H400   H     0.64543   0.48778   0.48959   0.00000  Uiso   1.00
O401   O     0.50000   0.50000   0.25000   0.00000  Uiso   1.00
O402   O     0.49027   0.45726   0.16625   0.00000  Uiso   1.00
O403   O     0.46020   0.53979   0.33749   0.00000  Uiso   1.00
O404   O     0.54421   0.50826   0.15877   0.00000  Uiso   1.00
O405   O     0.50532   0.49468   0.33749   0.00000  Uiso   1.00
O406   O     0.41236   0.61723   0.03885   0.00000  Uiso   1.00
O407   O     0.61784   0.43183   0.01321   0.00000  Uiso   1.00
O408   O     0.39513   0.52778   0.19136   0.00000  Uiso   1.00
O409   O     0.65523   0.47084   0.32791   0.00000  Uiso   1.00
O410   O     0.48718   0.65420   0.32355   0.00000  Uiso   1.00
O411   O     0.62638   0.41341   0.07963   0.00000  Uiso   1.00
O412   O     0.51182   0.41434   0.27821   0.00000  Uiso   1.00
O413   O     0.42058   0.58151   0.40136   0.00000  Uiso   1.00
O414   O     0.47153   0.42696   0.43090   0.00000  Uiso   1.00
O415   O     0.47914   0.59469   0.26767   0.00000  Uiso   1.00
O416   O     0.40785   0.46584   0.23607   0.00000  Uiso   1.00
O417   O     0.60119   0.52512   0.21806   0.00000  Uiso   1.00
O418   O     0.40323   0.52293   0.27820   0.00000  Uiso   1.00
O419   O     0.58773   0.48610   0.26768   0.00000  Uiso   1.00
O420   O     0.47133   0.40236   0.23607   0.00000  Uiso   1.00
O421   O     0.53771   0.58860   0.21806   0.00000  Uiso   1.00
Zn422  Zn    0.52577   0.47423   0.28278   0.00000  Uiso   1.00
Zn423  Zn    0.46792   0.45711   0.22258   0.00000  Uiso   1.00
Zn424  Zn    0.54500   0.52997   0.21188   0.00000  Uiso   1.00
Zn425  Zn    0.46131   0.53868   0.28277   0.00000  Uiso   1.00
C426   C     0.71931   0.49370   0.25951   0.00000  Uiso   1.00
C427   C     0.87070   0.47572   0.45891   0.00000  Uiso   1.00
C428   C     0.89657   0.46035   0.47709   0.00000  Uiso   1.00
C429   C     0.94770   0.50659   0.24109   0.00000  Uiso   1.00
C430   C     0.88681   0.46421   0.01836   0.00000  Uiso   1.00
C431   C     0.84980   0.48392   0.04171   0.00000  Uiso   1.00
C432   C     0.91424   0.44943   0.03648   0.00000  Uiso   1.00
C433   C     0.90344   0.45185   0.07822   0.00000  Uiso   1.00
C434   C     0.83930   0.48518   0.08306   0.00000  Uiso   1.00
C435   C     0.99384   0.50639   0.23563   0.00000  Uiso   1.00
C436   C     0.67415   0.49484   0.26479   0.00000  Uiso   1.00
C437   C     0.77190   0.55876   0.42168   0.00000  Uiso   1.00
C438   C     0.84354   0.65461   0.23686   0.00000  Uiso   1.00
C439   C     0.81961   0.34698   0.26543   0.00000  Uiso   1.00
C440   C     0.82314   0.38985   0.25912   0.00000  Uiso   1.00
C441   C     0.84303   0.61096   0.24142   0.00000  Uiso   1.00
C442   C     0.85535   0.47863   0.14408   0.00000  Uiso   1.00
C443   C     0.81049   0.51998   0.35668   0.00000  Uiso   1.00
C444   C     0.79727   0.52613   0.40077   0.00000  Uiso   1.00
C445   C     0.86591   0.47049   0.10106   0.00000  Uiso   1.00
C446   C     0.76013   0.56328   0.46326   0.00000  Uiso   1.00
C447   C     0.74573   0.58359   0.05023   0.00000  Uiso   1.00
C448   C     0.80848   0.49855   0.42268   0.00000  Uiso   1.00
C449   C     0.98553   0.46360   0.00559   0.00000  Uiso   1.00
C450   C     0.69288   0.44469   0.47981   0.00000  Uiso   1.00
C451   C     0.69016   0.51721   0.19641   0.00000  Uiso   1.00
C452   C     0.97992   0.49252   0.30651   0.00000  Uiso   1.00
C453   C     0.80066   0.33822   0.30732   0.00000  Uiso   1.00
C454   C     0.93038   0.43445   0.09820   0.00000  Uiso   1.00
C455   C     0.75433   0.62447   0.41527   0.00000  Uiso   1.00
C456   C     0.70839   0.63661   0.43267   0.00000  Uiso   1.00
C457   C     0.80874   0.45309   0.40826   0.00000  Uiso   1.00
C458   C     0.80804   0.51210   0.46237   0.00000  Uiso   1.00
C459   C     0.78050   0.54286   0.48377   0.00000  Uiso   1.00
C460   C     0.83390   0.49564   0.48123   0.00000  Uiso   1.00
C461   C     0.82498   0.50234   0.02294   0.00000  Uiso   1.00
C462   C     0.79368   0.52960   0.04422   0.00000  Uiso   1.00
C463   C     0.77325   0.55142   0.02514   0.00000  Uiso   1.00
H464   H     0.86270   0.66583   0.20887   0.00000  Uiso   1.00
H465   H     0.71994   0.46943   0.47345   0.00000  Uiso   1.00
H466   H     0.70121   0.42110   0.49532   0.00000  Uiso   1.00
H467   H     0.68799   0.42965   0.45141   0.00000  Uiso   1.00
H468   H     0.67726   0.51686   0.17168   0.00000  Uiso   1.00
H469   H     0.95271   0.51094   0.31897   0.00000  Uiso   1.00
H470   H     0.77032   0.35009   0.32459   0.00000  Uiso   1.00
H471   H     0.92386   0.43962   0.13009   0.00000  Uiso   1.00
H472   H     0.76990   0.64238   0.38965   0.00000  Uiso   1.00
H473   H     0.77323   0.63475   0.43672   0.00000  Uiso   1.00
H474   H     0.69083   0.61918   0.45835   0.00000  Uiso   1.00
H475   H     0.81031   0.49748   0.10246   0.00000  Uiso   1.00
H476   H     0.70896   0.33712   0.44258   0.00000  Uiso   1.00
H477   H     0.69095   0.62964   0.40990   0.00000  Uiso   1.00
H478   H     0.80919   0.44173   0.37821   0.00000  Uiso   1.00
H479   H     0.92456   0.44549   0.45841   0.00000  Uiso   1.00
H480   H     0.73573   0.58366   0.47905   0.00000  Uiso   1.00
H481   H     0.78744   0.53782   0.07563   0.00000  Uiso   1.00
H482   H     0.88085   0.47322   0.42691   0.00000  Uiso   1.00
H483   H     0.72725   0.57824   0.08033   0.00000  Uiso   1.00
H484   H     0.99165   0.47875   0.03359   0.00000  Uiso   1.00
H485   H     0.97876   0.48778   0.48959   0.00000  Uiso   1.00
O486   O     0.83333   0.50000   0.25000   0.00000  Uiso   1.00
O487   O     0.82360   0.45726   0.16625   0.00000  Uiso   1.00
O488   O     0.79354   0.53979   0.33749   0.00000  Uiso   1.00
O489   O     0.87755   0.50826   0.15877   0.00000  Uiso   1.00
O490   O     0.83865   0.49468   0.33749   0.00000  Uiso   1.00
O491   O     0.74569   0.61723   0.03885   0.00000  Uiso   1.00
O492   O     0.95117   0.43183   0.01321   0.00000  Uiso   1.00
O493   O     0.72847   0.52778   0.19136   0.00000  Uiso   1.00
O494   O     0.98857   0.47084   0.32791   0.00000  Uiso   1.00
O495   O     0.82052   0.65420   0.32355   0.00000  Uiso   1.00
O496   O     0.95971   0.41341   0.07963   0.00000  Uiso   1.00
O497   O     0.84515   0.41434   0.27821   0.00000  Uiso   1.00
O498   O     0.75391   0.58151   0.40136   0.00000  Uiso   1.00
O499   O     0.80487   0.42696   0.43090   0.00000  Uiso   1.00
O500   O     0.81247   0.59469   0.26767   0.00000  Uiso   1.00
O501   O     0.74119   0.46584   0.23607   0.00000  Uiso   1.00
O502   O     0.93452   0.52512   0.21806   0.00000  Uiso   1.00
O503   O     0.73656   0.52293   0.27820   0.00000  Uiso   1.00
O504   O     0.92106   0.48610   0.26768   0.00000  Uiso   1.00
O505   O     0.80467   0.40236   0.23607   0.00000  Uiso   1.00
O506   O     0.87104   0.58860   0.21806   0.00000  Uiso   1.00
Zn507  Zn    0.85910   0.47423   0.28278   0.00000  Uiso   1.00
Zn508  Zn    0.80125   0.45711   0.22258   0.00000  Uiso   1.00
Zn509  Zn    0.87833   0.52997   0.21188   0.00000  Uiso   1.00
Zn510  Zn    0.79465   0.53868   0.28277   0.00000  Uiso   1.00
C511   C     0.05264   0.82703   0.25951   0.00000  Uiso   1.00
C512   C     0.20403   0.80905   0.45891   0.00000  Uiso   1.00
C513   C     0.22991   0.79368   0.47709   0.00000  Uiso   1.00
C514   C     0.28104   0.83993   0.24109   0.00000  Uiso   1.00
C515   C     0.22014   0.79755   0.01836   0.00000  Uiso   1.00
C516   C     0.18313   0.81725   0.04171   0.00000  Uiso   1.00
C517   C     0.24757   0.78276   0.03648   0.00000  Uiso   1.00
C518   C     0.23677   0.78518   0.07822   0.00000  Uiso   1.00
C519   C     0.17263   0.81851   0.08306   0.00000  Uiso   1.00
C520   C     0.32717   0.83972   0.23563   0.00000  Uiso   1.00
C521   C     0.00749   0.82818   0.26479   0.00000  Uiso   1.00
C522   C     0.10523   0.89209   0.42168   0.00000  Uiso   1.00
C523   C     0.17687   0.98794   0.23686   0.00000  Uiso   1.00
C524   C     0.15294   0.68031   0.26543   0.00000  Uiso   1.00
C525   C     0.15647   0.72318   0.25912   0.00000  Uiso   1.00
C526   C     0.17637   0.94429   0.24142   0.00000  Uiso   1.00
C527   C     0.18868   0.81196   0.14408   0.00000  Uiso   1.00
C528   C     0.14382   0.85331   0.35668   0.00000  Uiso   1.00
C529   C     0.13060   0.85946   0.40077   0.00000  Uiso   1.00
C530   C     0.19925   0.80382   0.10106   0.00000  Uiso   1.00
C531   C     0.09346   0.89662   0.46326   0.00000  Uiso   1.00
C532   C     0.07907   0.91692   0.05023   0.00000  Uiso   1.00
C533   C     0.14181   0.83188   0.42268   0.00000  Uiso   1.00
C534   C     0.31886   0.79693   0.00559   0.00000  Uiso   1.00
C535   C     0.02621   0.77802   0.47981   0.00000  Uiso   1.00
C536   C     0.02349   0.85054   0.19641   0.00000  Uiso   1.00
C537   C     0.31326   0.82585   0.30651   0.00000  Uiso   1.00
C538   C     0.13399   0.67156   0.30732   0.00000  Uiso   1.00
C539   C     0.26372   0.76778   0.09820   0.00000  Uiso   1.00
C540   C     0.08766   0.95781   0.41527   0.00000  Uiso   1.00
C541   C     0.04172   0.96994   0.43267   0.00000  Uiso   1.00
C542   C     0.14207   0.78642   0.40826   0.00000  Uiso   1.00
C543   C     0.14138   0.84543   0.46237   0.00000  Uiso   1.00
C544   C     0.11383   0.87620   0.48377   0.00000  Uiso   1.00
C545   C     0.16724   0.82898   0.48123   0.00000  Uiso   1.00
C546   C     0.15831   0.83567   0.02294   0.00000  Uiso   1.00
C547   C     0.12702   0.86294   0.04422   0.00000  Uiso   1.00
C548   C     0.10659   0.88476   0.02514   0.00000  Uiso   1.00
H549   H     0.19603   0.99917   0.20887   0.00000  Uiso   1.00
H550   H     0.05327   0.80276   0.47345   0.00000  Uiso   1.00
H551   H     0.03454   0.75443   0.49532   0.00000  Uiso   1.00
H552   H     0.02133   0.76299   0.45141   0.00000  Uiso   1.00
H553   H     0.01060   0.85019   0.17168   0.00000  Uiso   1.00
H554   H     0.28604   0.84428   0.31897   0.00000  Uiso   1.00
H555   H     0.10365   0.68342   0.32459   0.00000  Uiso   1.00
H556   H     0.25719   0.77296   0.13009   0.00000  Uiso   1.00
H557   H     0.10323   0.97571   0.38965   0.00000  Uiso   1.00
H558   H     0.10656   0.96808   0.43672   0.00000  Uiso   1.00
H559   H     0.02416   0.95252   0.45835   0.00000  Uiso   1.00
H560   H     0.14365   0.83081   0.10246   0.00000  Uiso   1.00
H561   H     0.04229   0.67046   0.44258   0.00000  Uiso   1.00
H562   H     0.02429   0.96297   0.40990   0.00000  Uiso   1.00
H563   H     0.14252   0.77507   0.37821   0.00000  Uiso   1.00
H564   H     0.25789   0.77883   0.45841   0.00000  Uiso   1.00
H565   H     0.06906   0.91699   0.47905   0.00000  Uiso   1.00
H566   H     0.12077   0.87115   0.07563   0.00000  Uiso   1.00
H567   H     0.21418   0.80655   0.42691   0.00000  Uiso   1.00
H568   H     0.06058   0.91157   0.08033   0.00000  Uiso   1.00
H569   H     0.32499   0.81209   0.03359   0.00000  Uiso   1.00
H570   H     0.31209   0.82111   0.48959   0.00000  Uiso   1.00
O571   O     0.16667   0.83333   0.25000   0.00000  Uiso   1.00
O572   O     0.15693   0.79060   0.16625   0.00000  Uiso   1.00
O573   O     0.12687   0.87313   0.33749   0.00000  Uiso   1.00
O574   O     0.21088   0.84159   0.15877   0.00000  Uiso   1.00
O575   O     0.17198   0.82802   0.33749   0.00000  Uiso   1.00
O576   O     0.07902   0.95057   0.03885   0.00000  Uiso   1.00
O577   O     0.28450   0.76516   0.01321   0.00000  Uiso   1.00
O578   O     0.06180   0.86112   0.19136   0.00000  Uiso   1.00
O579   O     0.32190   0.80418   0.32791   0.00000  Uiso   1.00
O580   O     0.15385   0.98753   0.32355   0.00000  Uiso   1.00
O581   O     0.29304   0.74674   0.07963   0.00000  Uiso   1.00
O582   O     0.17849   0.74768   0.27821   0.00000  Uiso   1.00
O583   O     0.08724   0.91485   0.40136   0.00000  Uiso   1.00
O584   O     0.13820   0.76029   0.43090   0.00000  Uiso   1.00
O585   O     0.14581   0.92803   0.26767   0.00000  Uiso   1.00
O586   O     0.07452   0.79917   0.23607   0.00000  Uiso   1.00
O587   O     0.26785   0.85845   0.21806   0.00000  Uiso   1.00
O588   O     0.06990   0.85627   0.27820   0.00000  Uiso   1.00
O589   O     0.25440   0.81944   0.26768   0.00000  Uiso   1.00
O590   O     0.13800   0.73570   0.23607   0.00000  Uiso   1.00
O591   O     0.20437   0.92193   0.21806   0.00000  Uiso   1.00
Zn592  Zn    0.19244   0.80756   0.28278   0.00000  Uiso   1.00
Zn593  Zn    0.13459   0.79044   0.22258   0.00000  Uiso   1.00
Zn594  Zn    0.21166   0.86331   0.21188   0.00000  Uiso   1.00
Zn595  Zn    0.12798   0.87202   0.28277   0.00000  Uiso   1.00
C596   C     0.38598   0.82703   0.25951   0.00000  Uiso   1.00
C597   C     0.53737   0.80905   0.45891   0.00000  Uiso   1.00
C598   C     0.56324   0.79368   0.47709   0.00000  Uiso   1.00
C599   C     0.61437   0.83993   0.24109   0.00000  Uiso   1.00
C600   C     0.55347   0.79755   0.01836   0.00000  Uiso   1.00
C601   C     0.51647   0.81725   0.04171   0.00000  Uiso   1.00
C602   C     0.58091   0.78276   0.03648   0.00000  Uiso   1.00
C603   C     0.57010   0.78518   0.07822   0.00000  Uiso   1.00
C604   C     0.50596   0.81851   0.08306   0.00000  Uiso   1.00
C605   C     0.66050   0.83972   0.23563   0.00000  Uiso   1.00
C606   C     0.34082   0.82818   0.26479   0.00000  Uiso   1.00
C607   C     0.43856   0.89209   0.42168   0.00000  Uiso   1.00
C608   C     0.51021   0.98794   0.23686   0.00000  Uiso   1.00
C609   C     0.48627   0.68031   0.26543   0.00000  Uiso   1.00
C610   C     0.48980   0.72318   0.25912   0.00000  Uiso   1.00
C611   C     0.50970   0.94429   0.24142   0.00000  Uiso   1.00
C612   C     0.52201   0.81196   0.14408   0.00000  Uiso   1.00
C613   C     0.47716   0.85331   0.35668   0.00000  Uiso   1.00
C614   C     0.46393   0.85946   0.40077   0.00000  Uiso   1.00
C615   C     0.53258   0.80382   0.10106   0.00000  Uiso   1.00
C616   C     0.42679   0.89662   0.46326   0.00000  Uiso   1.00
C617   C     0.41240   0.91692   0.05023   0.00000  Uiso   1.00
C618   C     0.47514   0.83188   0.42268   0.00000  Uiso   1.00
C619   C     0.65219   0.79693   0.00559   0.00000  Uiso   1.00
C620   C     0.35954   0.77802   0.47981   0.00000  Uiso   1.00
C621   C     0.35683   0.85054   0.19641   0.00000  Uiso   1.00
C622   C     0.64659   0.82585   0.30651   0.00000  Uiso   1.00
C623   C     0.46732   0.67156   0.30732   0.00000  Uiso   1.00
C624   C     0.59705   0.76778   0.09820   0.00000  Uiso   1.00
C625   C     0.42100   0.95781   0.41527   0.00000  Uiso   1.00
C626   C     0.37505   0.96994   0.43267   0.00000  Uiso   1.00
C627   C     0.47540   0.78642   0.40826   0.00000  Uiso   1.00
C628   C     0.47471   0.84543   0.46237   0.00000  Uiso   1.00
C629   C     0.44717   0.87620   0.48377   0.00000  Uiso   1.00
C630   C     0.50057   0.82898   0.48123   0.00000  Uiso   1.00
C631   C     0.49165   0.83567   0.02294   0.00000  Uiso   1.00
C632   C     0.46035   0.86294   0.04422   0.00000  Uiso   1.00
C633   C     0.43992   0.88476   0.02514   0.00000  Uiso   1.00
H634   H     0.52936   0.99917   0.20887   0.00000  Uiso   1.00
H635   H     0.38661   0.80276   0.47345   0.00000  Uiso   1.00
H636   H     0.36788   0.75443   0.49532   0.00000  Uiso   1.00
H637   H     0.35466   0.76299   0.45141   0.00000  Uiso   1.00
H638   H     0.34393   0.85019   0.17168   0.00000  Uiso   1.00
H639   H     0.61938   0.84428   0.31897   0.00000  Uiso   1.00
H640   H     0.43699   0.68342   0.32459   0.00000  Uiso   1.00
H641   H     0.59053   0.77296   0.13009   0.00000  Uiso   1.00
H642   H     0.43656   0.97571   0.38965   0.00000  Uiso   1.00
H643   H     0.43990   0.96808   0.43672   0.00000  Uiso   1.00
H644   H     0.35750   0.95252   0.45835   0.00000  Uiso   1.00
H645   H     0.47698   0.83081   0.10246   0.00000  Uiso   1.00
H646   H     0.37562   0.67046   0.44258   0.00000  Uiso   1.00
H647   H     0.35762   0.96297   0.40990   0.00000  Uiso   1.00
H648   H     0.47586   0.77507   0.37821   0.00000  Uiso   1.00
H649   H     0.59122   0.77883   0.45841   0.00000  Uiso   1.00
H650   H     0.40240   0.91699   0.47905   0.00000  Uiso   1.00
H651   H     0.45410   0.87115   0.07563   0.00000  Uiso   1.00
H652   H     0.54752   0.80655   0.42691   0.00000  Uiso   1.00
H653   H     0.39391   0.91157   0.08033   0.00000  Uiso   1.00
H654   H     0.65832   0.81209   0.03359   0.00000  Uiso   1.00
H655   H     0.64543   0.82111   0.48959   0.00000  Uiso   1.00
O656   O     0.50000   0.83333   0.25000   0.00000  Uiso   1.00
O657   O     0.49027   0.79060   0.16625   0.00000  Uiso   1.00
O658   O     0.46020   0.87313   0.33749   0.00000  Uiso   1.00
O659   O     0.54421   0.84159   0.15877   0.00000  Uiso   1.00
O660   O     0.50532   0.82802   0.33749   0.00000  Uiso   1.00
O661   O     0.41236   0.95057   0.03885   0.00000  Uiso   1.00
O662   O     0.61784   0.76516   0.01321   0.00000  Uiso   1.00
O663   O     0.39513   0.86112   0.19136   0.00000  Uiso   1.00
O664   O     0.65523   0.80418   0.32791   0.00000  Uiso   1.00
O665   O     0.48718   0.98753   0.32355   0.00000  Uiso   1.00
O666   O     0.62638   0.74674   0.07963   0.00000  Uiso   1.00
O667   O     0.51182   0.74768   0.27821   0.00000  Uiso   1.00
O668   O     0.42058   0.91485   0.40136   0.00000  Uiso   1.00
O669   O     0.47153   0.76029   0.43090   0.00000  Uiso   1.00
O670   O     0.47914   0.92803   0.26767   0.00000  Uiso   1.00
O671   O     0.40785   0.79917   0.23607   0.00000  Uiso   1.00
O672   O     0.60119   0.85845   0.21806   0.00000  Uiso   1.00
O673   O     0.40323   0.85627   0.27820   0.00000  Uiso   1.00
O674   O     0.58773   0.81944   0.26768   0.00000  Uiso   1.00
O675   O     0.47133   0.73570   0.23607   0.00000  Uiso   1.00
O676   O     0.53771   0.92193   0.21806   0.00000  Uiso   1.00
Zn677  Zn    0.52577   0.80756   0.28278   0.00000  Uiso   1.00
Zn678  Zn    0.46792   0.79044   0.22258   0.00000  Uiso   1.00
Zn679  Zn    0.54500   0.86331   0.21188   0.00000  Uiso   1.00
Zn680  Zn    0.46131   0.87202   0.28277   0.00000  Uiso   1.00
C681   C     0.71931   0.82703   0.25951   0.00000  Uiso   1.00
C682   C     0.87070   0.80905   0.45891   0.00000  Uiso   1.00
C683   C     0.89657   0.79368   0.47709   0.00000  Uiso   1.00
C684   C     0.94770   0.83993   0.24109   0.00000  Uiso   1.00
C685   C     0.88681   0.79755   0.01836   0.00000  Uiso   1.00
C686   C     0.84980   0.81725   0.04171   0.00000  Uiso   1.00
C687   C     0.91424   0.78276   0.03648   0.00000  Uiso   1.00
C688   C     0.90344   0.78518   0.07822   0.00000  Uiso   1.00
C689   C     0.83930   0.81851   0.08306   0.00000  Uiso   1.00
C690   C     0.99384   0.83972   0.23563   0.00000  Uiso   1.00
C691   C     0.67415   0.82818   0.26479   0.00000  Uiso   1.00
C692   C     0.77190   0.89209   0.42168   0.00000  Uiso   1.00
C693   C     0.84354   0.98794   0.23686   0.00000  Uiso   1.00
C694   C     0.81961   0.68031   0.26543   0.00000  Uiso   1.00
C695   C     0.82314   0.72318   0.25912   0.00000  Uiso   1.00
C696   C     0.84303   0.94429   0.24142   0.00000  Uiso   1.00
C697   C     0.85535   0.81196   0.14408   0.00000  Uiso   1.00
C698   C     0.81049   0.85331   0.35668   0.00000  Uiso   1.00
C699   C     0.79727   0.85946   0.40077   0.00000  Uiso   1.00
C700   C     0.86591   0.80382   0.10106   0.00000  Uiso   1.00
C701   C     0.76013   0.89662   0.46326   0.00000  Uiso   1.00
C702   C     0.74573   0.91692   0.05023   0.00000  Uiso   1.00
C703   C     0.80848   0.83188   0.42268   0.00000  Uiso   1.00
C704   C     0.98553   0.79693   0.00559   0.00000  Uiso   1.00
C705   C     0.69288   0.77802   0.47981   0.00000  Uiso   1.00
C706   C     0.69016   0.85054   0.19641   0.00000  Uiso   1.00
C707   C     0.97992   0.82585   0.30651   0.00000  Uiso   1.00
C708   C     0.80066   0.67156   0.30732   0.00000  Uiso   1.00
C709   C     0.93038   0.76778   0.09820   0.00000  Uiso   1.00
C710   C     0.75433   0.95781   0.41527   0.00000  Uiso   1.00
C711   C     0.70839   0.96994   0.43267   0.00000  Uiso   1.00
C712   C     0.80874   0.78642   0.40826   0.00000  Uiso   1.00
C713   C     0.80804   0.84543   0.46237   0.00000  Uiso   1.00
C714   C     0.78050   0.87620   0.48377   0.00000  Uiso   1.00
C715   C     0.83390   0.82898   0.48123   0.00000  Uiso   1.00
C716   C     0.82498   0.83567   0.02294   0.00000  Uiso   1.00
C717   C     0.79368   0.86294   0.04422   0.00000  Uiso   1.00
C718   C     0.77325   0.88476   0.02514   0.00000  Uiso   1.00
H719   H     0.86270   0.99917   0.20887   0.00000  Uiso   1.00
H720   H     0.71994   0.80276   0.47345   0.00000  Uiso   1.00
H721   H     0.70121   0.75443   0.49532   0.00000  Uiso   1.00
H722   H     0.68799   0.76299   0.45141   0.00000  Uiso   1.00
H723   H     0.67726   0.85019   0.17168   0.00000  Uiso   1.00
H724   H     0.95271   0.84428   0.31897   0.00000  Uiso   1.00
H725   H     0.77032   0.68342   0.32459   0.00000  Uiso   1.00
H726   H     0.92386   0.77296   0.13009   0.00000  Uiso   1.00
H727   H     0.76990   0.97571   0.38965   0.00000  Uiso   1.00
H728   H     0.77323   0.96808   0.43672   0.00000  Uiso   1.00
H729   H     0.69083   0.95252   0.45835   0.00000  Uiso   1.00
H730   H     0.81031   0.83081   0.10246   0.00000  Uiso   1.00
H731   H     0.70896   0.67046   0.44258   0.00000  Uiso   1.00
H732   H     0.69095   0.96297   0.40990   0.00000  Uiso   1.00
H733   H     0.80919   0.77507   0.37821   0.00000  Uiso   1.00
H734   H     0.92456   0.77883   0.45841   0.00000  Uiso   1.00
H735   H     0.73573   0.91699   0.47905   0.00000  Uiso   1.00
H736   H     0.78744   0.87115   0.07563   0.00000  Uiso   1.00
H737   H     0.88085   0.80655   0.42691   0.00000  Uiso   1.00
H738   H     0.72725   0.91157   0.08033   0.00000  Uiso   1.00
H739   H     0.99165   0.81209   0.03359   0.00000  Uiso   1.00
H740   H     0.97876   0.82111   0.48959   0.00000  Uiso   1.00
O741   O     0.83333   0.83333   0.25000   0.00000  Uiso   1.00
O742   O     0.82360   0.79060   0.16625   0.00000  Uiso   1.00
O743   O     0.79354   0.87313   0.33749   0.00000  Uiso   1.00
O744   O     0.87755   0.84159   0.15877   0.00000  Uiso   1.00
O745   O     0.83865   0.82802   0.33749   0.00000  Uiso   1.00
O746   O     0.74569   0.95057   0.03885   0.00000  Uiso   1.00
O747   O     0.95117   0.76516   0.01321   0.00000  Uiso   1.00
O748   O     0.72847   0.86112   0.19136   0.00000  Uiso   1.00
O749   O     0.98857   0.80418   0.32791   0.00000  Uiso   1.00
O750   O     0.82052   0.98753   0.32355   0.00000  Uiso   1.00
O751   O     0.95971   0.74674   0.07963   0.00000  Uiso   1.00
O752   O     0.84515   0.74768   0.27821   0.00000  Uiso   1.00
O753   O     0.75391   0.91485   0.40136   0.00000  Uiso   1.00
O754   O     0.80487   0.76029   0.43090   0.00000  Uiso   1.00
O755   O     0.81247   0.92803   0.26767   0.00000  Uiso   1.00
O756   O     0.74119   0.79917   0.23607   0.00000  Uiso   1.00
O757   O     0.93452   0.85845   0.21806   0.00000  Uiso   1.00
O758   O     0.73656   0.85627   0.27820   0.00000  Uiso   1.00
O759   O     0.92106   0.81944   0.26768   0.00000  Uiso   1.00
O760   O     0.80467   0.73570   0.23607   0.00000  Uiso   1.00
O761   O     0.87104   0.92193   0.21806   0.00000  Uiso   1.00
Zn762  Zn    0.85910   0.80756   0.28278   0.00000  Uiso   1.00
Zn763  Zn    0.80125   0.79044   0.22258   0.00000  Uiso   1.00
Zn764  Zn    0.87833   0.86331   0.21188   0.00000  Uiso   1.00
Zn765  Zn    0.79465   0.87202   0.28277   0.00000  Uiso   1.00
C766   C     0.05264   0.16037   0.75951   0.00000  Uiso   1.00
C767   C     0.20403   0.14238   0.95891   0.00000  Uiso   1.00
C768   C     0.22991   0.12701   0.97709   0.00000  Uiso   1.00
C769   C     0.28104   0.17326   0.74109   0.00000  Uiso   1.00
C770   C     0.22014   0.13088   0.51836   0.00000  Uiso   1.00
C771   C     0.18313   0.15058   0.54171   0.00000  Uiso   1.00
C772   C     0.24757   0.11610   0.53648   0.00000  Uiso   1.00
C773   C     0.23677   0.11851   0.57822   0.00000  Uiso   1.00
C774   C     0.17263   0.15184   0.58306   0.00000  Uiso   1.00
C775   C     0.32717   0.17305   0.73563   0.00000  Uiso   1.00
C776   C     0.00749   0.16151   0.76479   0.00000  Uiso   1.00
C777   C     0.10523   0.22542   0.92168   0.00000  Uiso   1.00
C778   C     0.17687   0.32128   0.73686   0.00000  Uiso   1.00
C779   C     0.15294   0.01365   0.76543   0.00000  Uiso   1.00
C780   C     0.15647   0.05652   0.75912   0.00000  Uiso   1.00
C781   C     0.17637   0.27763   0.74142   0.00000  Uiso   1.00
C782   C     0.18868   0.14530   0.64408   0.00000  Uiso   1.00
C783   C     0.14382   0.18665   0.85668   0.00000  Uiso   1.00
C784   C     0.13060   0.19279   0.90077   0.00000  Uiso   1.00
C785   C     0.19925   0.13716   0.60106   0.00000  Uiso   1.00
C786   C     0.09346   0.22995   0.96326   0.00000  Uiso   1.00
C787   C     0.07907   0.25025   0.55023   0.00000  Uiso   1.00
C788   C     0.14181   0.16522   0.92268   0.00000  Uiso   1.00
C789   C     0.31886   0.13026   0.50559   0.00000  Uiso   1.00
C790   C     0.02621   0.11135   0.97981   0.00000  Uiso   1.00
C791   C     0.02349   0.18388   0.69641   0.00000  Uiso   1.00
C792   C     0.31326   0.15918   0.80651   0.00000  Uiso   1.00
C793   C     0.13399   0.00489   0.80732   0.00000  Uiso   1.00
C794   C     0.26372   0.10111   0.59820   0.00000  Uiso   1.00
C795   C     0.08766   0.29114   0.91527   0.00000  Uiso   1.00
C796   C     0.04172   0.30327   0.93267   0.00000  Uiso   1.00
C797   C     0.14207   0.11976   0.90826   0.00000  Uiso   1.00
C798   C     0.14138   0.17876   0.96237   0.00000  Uiso   1.00
C799   C     0.11383   0.20953   0.98377   0.00000  Uiso   1.00
C800   C     0.16724   0.16231   0.98123   0.00000  Uiso   1.00
C801   C     0.15831   0.16901   0.52294   0.00000  Uiso   1.00
C802   C     0.12702   0.19627   0.54422   0.00000  Uiso   1.00
C803   C     0.10659   0.21809   0.52514   0.00000  Uiso   1.00
H804   H     0.19603   0.33250   0.70887   0.00000  Uiso   1.00
H805   H     0.05327   0.13609   0.97345   0.00000  Uiso   1.00
H806   H     0.03454   0.08777   0.99532   0.00000  Uiso   1.00
H807   H     0.02133   0.09632   0.95141   0.00000  Uiso   1.00
H808   H     0.01060   0.18353   0.67168   0.00000  Uiso   1.00
H809   H     0.28604   0.17761   0.81897   0.00000  Uiso   1.00
H810   H     0.10365   0.01676   0.82459   0.00000  Uiso   1.00
H811   H     0.25719   0.10629   0.63009   0.00000  Uiso   1.00
H812   H     0.10323   0.30904   0.88965   0.00000  Uiso   1.00
H813   H     0.10656   0.30142   0.93672   0.00000  Uiso   1.00
H814   H     0.02416   0.28585   0.95835   0.00000  Uiso   1.00
H815   H     0.14365   0.16414   0.60246   0.00000  Uiso   1.00
H816   H     0.04229   0.00379   0.94258   0.00000  Uiso   1.00
H817   H     0.02429   0.29630   0.90990   0.00000  Uiso   1.00
H818   H     0.14252   0.10840   0.87821   0.00000  Uiso   1.00
H819   H     0.25789   0.11216   0.95841   0.00000  Uiso   1.00
H820   H     0.06906   0.25033   0.97905   0.00000  Uiso   1.00
H821   H     0.12077   0.20449   0.57563   0.00000  Uiso   1.00
H822   H     0.21418   0.13988   0.92691   0.00000  Uiso   1.00
H823   H     0.06058   0.24490   0.58033   0.00000  Uiso   1.00
H824   H     0.32499   0.14542   0.53359   0.00000  Uiso   1.00
H825   H     0.31209   0.15444   0.98959   0.00000  Uiso   1.00
O826   O     0.16667   0.16667   0.75000   0.00000  Uiso   1.00
O827   O     0.15693   0.12393   0.66625   0.00000  Uiso   1.00
O828   O     0.12687   0.20646   0.83749   0.00000  Uiso   1.00
O829   O     0.21088   0.17493   0.65877   0.00000  Uiso   1.00
O830   O     0.17198   0.16135   0.83749   0.00000  Uiso   1.00
O831   O     0.07902   0.28390   0.53885   0.00000  Uiso   1.00
O832   O     0.28450   0.09850   0.51321   0.00000  Uiso   1.00
O833   O     0.06180   0.19445   0.69136   0.00000  Uiso   1.00
O834   O     0.32190   0.13751   0.82791   0.00000  Uiso   1.00
O835   O     0.15385   0.32087   0.82355   0.00000  Uiso   1.00
O836   O     0.29304   0.08008   0.57963   0.00000  Uiso   1.00
O837   O     0.17849   0.08101   0.77821   0.00000  Uiso   1.00
O838   O     0.08724   0.24818   0.90136   0.00000  Uiso   1.00
O839   O     0.13820   0.09363   0.93090   0.00000  Uiso   1.00
O840   O     0.14581   0.26136   0.76767   0.00000  Uiso   1.00
O841   O     0.07452   0.13251   0.73607   0.00000  Uiso   1.00
O842   O     0.26785   0.19179   0.71806   0.00000  Uiso   1.00
O843   O     0.06990   0.18960   0.77820   0.00000  Uiso   1.00
O844   O     0.25440   0.15277   0.76768   0.00000  Uiso   1.00
O845   O     0.13800   0.06903   0.73607   0.00000  Uiso   1.00
O846   O     0.20437   0.25527   0.71806   0.00000  Uiso   1.00
Zn847  Zn    0.19244   0.14090   0.78278   0.00000  Uiso   1.00
Zn848  Zn    0.13459   0.12378   0.72258   0.00000  Uiso   1.00
Zn849  Zn    0.21166   0.19664   0.71188   0.00000  Uiso   1.00
Zn850  Zn    0.12798   0.20535   0.78277   0.00000  Uiso   1.00
C851   C     0.38598   0.16037   0.75951   0.00000  Uiso   1.00
C852   C     0.53737   0.14238   0.95891   0.00000  Uiso   1.00
C853   C     0.56324   0.12701   0.97709   0.00000  Uiso   1.00
C854   C     0.61437   0.17326   0.74109   0.00000  Uiso   1.00
C855   C     0.55347   0.13088   0.51836   0.00000  Uiso   1.00
C856   C     0.51647   0.15058   0.54171   0.00000  Uiso   1.00
C857   C     0.58091   0.11610   0.53648   0.00000  Uiso   1.00
C858   C     0.57010   0.11851   0.57822   0.00000  Uiso   1.00
C859   C     0.50596   0.15184   0.58306   0.00000  Uiso   1.00
C860   C     0.66050   0.17305   0.73563   0.00000  Uiso   1.00
C861   C     0.34082   0.16151   0.76479   0.00000  Uiso   1.00
C862   C     0.43856   0.22542   0.92168   0.00000  Uiso   1.00
C863   C     0.51021   0.32128   0.73686   0.00000  Uiso   1.00
C864   C     0.48627   0.01365   0.76543   0.00000  Uiso   1.00
C865   C     0.48980   0.05652   0.75912   0.00000  Uiso   1.00
C866   C     0.50970   0.27763   0.74142   0.00000  Uiso   1.00
C867   C     0.52201   0.14530   0.64408   0.00000  Uiso   1.00
C868   C     0.47716   0.18665   0.85668   0.00000  Uiso   1.00
C869   C     0.46393   0.19279   0.90077   0.00000  Uiso   1.00
C870   C     0.53258   0.13716   0.60106   0.00000  Uiso   1.00
C871   C     0.42679   0.22995   0.96326   0.00000  Uiso   1.00
C872   C     0.41240   0.25025   0.55023   0.00000  Uiso   1.00
C873   C     0.47514   0.16522   0.92268   0.00000  Uiso   1.00
C874   C     0.65219   0.13026   0.50559   0.00000  Uiso   1.00
C875   C     0.35954   0.11135   0.97981   0.00000  Uiso   1.00
C876   C     0.35683   0.18388   0.69641   0.00000  Uiso   1.00
C877   C     0.64659   0.15918   0.80651   0.00000  Uiso   1.00
C878   C     0.46732   0.00489   0.80732   0.00000  Uiso   1.00
C879   C     0.59705   0.10111   0.59820   0.00000  Uiso   1.00
C880   C     0.42100   0.29114   0.91527   0.00000  Uiso   1.00
C881   C     0.37505   0.30327   0.93267   0.00000  Uiso   1.00
C882   C     0.47540   0.11976   0.90826   0.00000  Uiso   1.00
C883   C     0.47471   0.17876   0.96237   0.00000  Uiso   1.00
C884   C     0.44717   0.20953   0.98377   0.00000  Uiso   1.00
C885   C     0.50057   0.16231   0.98123   0.00000  Uiso   1.00
C886   C     0.49165   0.16901   0.52294   0.00000  Uiso   1.00
C887   C     0.46035   0.19627   0.54422   0.00000  Uiso   1.00
C888   C     0.43992   0.21809   0.52514   0.00000  Uiso   1.00
H889   H     0.52936   0.33250   0.70887   0.00000  Uiso   1.00
H890   H     0.38661   0.13609   0.97345   0.00000  Uiso   1.00
H891   H     0.36788   0.08777   0.99532   0.00000  Uiso   1.00
H892   H     0.35466   0.09632   0.95141   0.00000  Uiso   1.00
H893   H     0.34393   0.18353   0.67168   0.00000  Uiso   1.00
H894   H     0.61938   0.17761   0.81897   0.00000  Uiso   1.00
H895   H     0.43699   0.01676   0.82459   0.00000  Uiso   1.00
H896   H     0.59053   0.10629   0.63009   0.00000  Uiso   1.00
H897   H     0.43656   0.30904   0.88965   0.00000  Uiso   1.00
H898   H     0.43990   0.30142   0.93672   0.00000  Uiso   1.00
H899   H     0.35750   0.28585   0.95835   0.00000  Uiso   1.00
H900   H     0.47698   0.16414   0.60246   0.00000  Uiso   1.00
H901   H     0.37562   0.00379   0.94258   0.00000  Uiso   1.00
H902   H     0.35762   0.29630   0.90990   0.00000  Uiso   1.00
H903   H     0.47586   0.10840   0.87821   0.00000  Uiso   1.00
H904   H     0.59122   0.11216   0.95841   0.00000  Uiso   1.00
H905   H     0.40240   0.25033   0.97905   0.00000  Uiso   1.00
H906   H     0.45410   0.20449   0.57563   0.00000  Uiso   1.00
H907   H     0.54752   0.13988   0.92691   0.00000  Uiso   1.00
H908   H     0.39391   0.24490   0.58033   0.00000  Uiso   1.00
H909   H     0.65832   0.14542   0.53359   0.00000  Uiso   1.00
H910   H     0.64543   0.15444   0.98959   0.00000  Uiso   1.00
O911   O     0.50000   0.16667   0.75000   0.00000  Uiso   1.00
O912   O     0.49027   0.12393   0.66625   0.00000  Uiso   1.00
O913   O     0.46020   0.20646   0.83749   0.00000  Uiso   1.00
O914   O     0.54421   0.17493   0.65877   0.00000  Uiso   1.00
O915   O     0.50532   0.16135   0.83749   0.00000  Uiso   1.00
O916   O     0.41236   0.28390   0.53885   0.00000  Uiso   1.00
O917   O     0.61784   0.09850   0.51321   0.00000  Uiso   1.00
O918   O     0.39513   0.19445   0.69136   0.00000  Uiso   1.00
O919   O     0.65523   0.13751   0.82791   0.00000  Uiso   1.00
O920   O     0.48718   0.32087   0.82355   0.00000  Uiso   1.00
O921   O     0.62638   0.08008   0.57963   0.00000  Uiso   1.00
O922   O     0.51182   0.08101   0.77821   0.00000  Uiso   1.00
O923   O     0.42058   0.24818   0.90136   0.00000  Uiso   1.00
O924   O     0.47153   0.09363   0.93090   0.00000  Uiso   1.00
O925   O     0.47914   0.26136   0.76767   0.00000  Uiso   1.00
O926   O     0.40785   0.13251   0.73607   0.00000  Uiso   1.00
O927   O     0.60119   0.19179   0.71806   0.00000  Uiso   1.00
O928   O     0.40323   0.18960   0.77820   0.00000  Uiso   1.00
O929   O     0.58773   0.15277   0.76768   0.00000  Uiso   1.00
O930   O     0.47133   0.06903   0.73607   0.00000  Uiso   1.00
O931   O     0.53771   0.25527   0.71806   0.00000  Uiso   1.00
Zn932  Zn    0.52577   0.14090   0.78278   0.00000  Uiso   1.00
Zn933  Zn    0.46792   0.12378   0.72258   0.00000  Uiso   1.00
Zn934  Zn    0.54500   0.19664   0.71188   0.00000  Uiso   1.00
Zn935  Zn    0.46131   0.20535   0.78277   0.00000  Uiso   1.00
C936   C     0.71931   0.16037   0.75951   0.00000  Uiso   1.00
C937   C     0.87070   0.14238   0.95891   0.00000  Uiso   1.00
C938   C     0.89657   0.12701   0.97709   0.00000  Uiso   1.00
C939   C     0.94770   0.17326   0.74109   0.00000  Uiso   1.00
C940   C     0.88681   0.13088   0.51836   0.00000  Uiso   1.00
C941   C     0.84980   0.15058   0.54171   0.00000  Uiso   1.00
C942   C     0.91424   0.11610   0.53648   0.00000  Uiso   1.00
C943   C     0.90344   0.11851   0.57822   0.00000  Uiso   1.00
C944   C     0.83930   0.15184   0.58306   0.00000  Uiso   1.00
C945   C     0.99384   0.17305   0.73563   0.00000  Uiso   1.00
C946   C     0.67415   0.16151   0.76479   0.00000  Uiso   1.00
C947   C     0.77190   0.22542   0.92168   0.00000  Uiso   1.00
C948   C     0.84354   0.32128   0.73686   0.00000  Uiso   1.00
C949   C     0.81961   0.01365   0.76543   0.00000  Uiso   1.00
C950   C     0.82314   0.05652   0.75912   0.00000  Uiso   1.00
C951   C     0.84303   0.27763   0.74142   0.00000  Uiso   1.00
C952   C     0.85535   0.14530   0.64408   0.00000  Uiso   1.00
C953   C     0.81049   0.18665   0.85668   0.00000  Uiso   1.00
C954   C     0.79727   0.19279   0.90077   0.00000  Uiso   1.00
C955   C     0.86591   0.13716   0.60106   0.00000  Uiso   1.00
C956   C     0.76013   0.22995   0.96326   0.00000  Uiso   1.00
C957   C     0.74573   0.25025   0.55023   0.00000  Uiso   1.00
C958   C     0.80848   0.16522   0.92268   0.00000  Uiso   1.00
C959   C     0.98553   0.13026   0.50559   0.00000  Uiso   1.00
C960   C     0.69288   0.11135   0.97981   0.00000  Uiso   1.00
C961   C     0.69016   0.18388   0.69641   0.00000  Uiso   1.00
C962   C     0.97992   0.15918   0.80651   0.00000  Uiso   1.00
C963   C     0.80066   0.00489   0.80732   0.00000  Uiso   1.00
C964   C     0.93038   0.10111   0.59820   0.00000  Uiso   1.00
C965   C     0.75433   0.29114   0.91527   0.00000  Uiso   1.00
C966   C     0.70839   0.30327   0.93267   0.00000  Uiso   1.00
C967   C     0.80874   0.11976   0.90826   0.00000  Uiso   1.00
C968   C     0.80804   0.17876   0.96237   0.00000  Uiso   1.00
C969   C     0.78050   0.20953   0.98377   0.00000  Uiso   1.00
C970   C     0.83390   0.16231   0.98123   0.00000  Uiso   1.00
C971   C     0.82498   0.16901   0.52294   0.00000  Uiso   1.00
C972   C     0.79368   0.19627   0.54422   0.00000  Uiso   1.00
C973   C     0.77325   0.21809   0.52514   0.00000  Uiso   1.00
H974   H     0.86270   0.33250   0.70887   0.00000  Uiso   1.00
H975   H     0.71994   0.13609   0.97345   0.00000  Uiso   1.00
H976   H     0.70121   0.08777   0.99532   0.00000  Uiso   1.00
H977   H     0.68799   0.09632   0.95141   0.00000  Uiso   1.00
H978   H     0.67726   0.18353   0.67168   0.00000  Uiso   1.00
H979   H     0.95271   0.17761   0.81897   0.00000  Uiso   1.00
H980   H     0.77032   0.01676   0.82459   0.00000  Uiso   1.00
H981   H     0.92386   0.10629   0.63009   0.00000  Uiso   1.00
H982   H     0.76990   0.30904   0.88965   0.00000  Uiso   1.00
H983   H     0.77323   0.30142   0.93672   0.00000  Uiso   1.00
H984   H     0.69083   0.28585   0.95835   0.00000  Uiso   1.00
H985   H     0.81031   0.16414   0.60246   0.00000  Uiso   1.00
H986   H     0.70896   0.00379   0.94258   0.00000  Uiso   1.00
H987   H     0.69095   0.29630   0.90990   0.00000  Uiso   1.00
H988   H     0.80919   0.10840   0.87821   0.00000  Uiso   1.00
H989   H     0.92456   0.11216   0.95841   0.00000  Uiso   1.00
H990   H     0.73573   0.25033   0.97905   0.00000  Uiso   1.00
H991   H     0.78744   0.20449   0.57563   0.00000  Uiso   1.00
H992   H     0.88085   0.13988   0.92691   0.00000  Uiso   1.00
H993   H     0.72725   0.24490   0.58033   0.00000  Uiso   1.00
H994   H     0.99165   0.14542   0.53359   0.00000  Uiso   1.00
H995   H     0.97876   0.15444   0.98959   0.00000  Uiso   1.00
O996   O     0.83333   0.16667   0.75000   0.00000  Uiso   1.00
O997   O     0.82360   0.12393   0.66625   0.00000  Uiso   1.00
O998   O     0.79354   0.20646   0.83749   0.00000  Uiso   1.00
O999   O     0.87755   0.17493   0.65877   0.00000  Uiso   1.00
O1000  O     0.83865   0.16135   0.83749   0.00000  Uiso   1.00
O1001  O     0.74569   0.28390   0.53885   0.00000  Uiso   1.00
O1002  O     0.95117   0.09850   0.51321   0.00000  Uiso   1.00
O1003  O     0.72847   0.19445   0.69136   0.00000  Uiso   1.00
O1004  O     0.98857   0.13751   0.82791   0.00000  Uiso   1.00
O1005  O     0.82052   0.32087   0.82355   0.00000  Uiso   1.00
O1006  O     0.95971   0.08008   0.57963   0.00000  Uiso   1.00
O1007  O     0.84515   0.08101   0.77821   0.00000  Uiso   1.00
O1008  O     0.75391   0.24818   0.90136   0.00000  Uiso   1.00
O1009  O     0.80487   0.09363   0.93090   0.00000  Uiso   1.00
O1010  O     0.81247   0.26136   0.76767   0.00000  Uiso   1.00
O1011  O     0.74119   0.13251   0.73607   0.00000  Uiso   1.00
O1012  O     0.93452   0.19179   0.71806   0.00000  Uiso   1.00
O1013  O     0.73656   0.18960   0.77820   0.00000  Uiso   1.00
O1014  O     0.92106   0.15277   0.76768   0.00000  Uiso   1.00
O1015  O     0.80467   0.06903   0.73607   0.00000  Uiso   1.00
O1016  O     0.87104   0.25527   0.71806   0.00000  Uiso   1.00
Zn1017 Zn    0.85910   0.14090   0.78278   0.00000  Uiso   1.00
Zn1018 Zn    0.80125   0.12378   0.72258   0.00000  Uiso   1.00
Zn1019 Zn    0.87833   0.19664   0.71188   0.00000  Uiso   1.00
Zn1020 Zn    0.79465   0.20535   0.78277   0.00000  Uiso   1.00
C1021  C     0.05264   0.49370   0.75951   0.00000  Uiso   1.00
C1022  C     0.20403   0.47572   0.95891   0.00000  Uiso   1.00
C1023  C     0.22991   0.46035   0.97709   0.00000  Uiso   1.00
C1024  C     0.28104   0.50659   0.74109   0.00000  Uiso   1.00
C1025  C     0.22014   0.46421   0.51836   0.00000  Uiso   1.00
C1026  C     0.18313   0.48392   0.54171   0.00000  Uiso   1.00
C1027  C     0.24757   0.44943   0.53648   0.00000  Uiso   1.00
C1028  C     0.23677   0.45185   0.57822   0.00000  Uiso   1.00
C1029  C     0.17263   0.48518   0.58306   0.00000  Uiso   1.00
C1030  C     0.32717   0.50639   0.73563   0.00000  Uiso   1.00
C1031  C     0.00749   0.49484   0.76479   0.00000  Uiso   1.00
C1032  C     0.10523   0.55876   0.92168   0.00000  Uiso   1.00
C1033  C     0.17687   0.65461   0.73686   0.00000  Uiso   1.00
C1034  C     0.15294   0.34698   0.76543   0.00000  Uiso   1.00
C1035  C     0.15647   0.38985   0.75912   0.00000  Uiso   1.00
C1036  C     0.17637   0.61096   0.74142   0.00000  Uiso   1.00
C1037  C     0.18868   0.47863   0.64408   0.00000  Uiso   1.00
C1038  C     0.14382   0.51998   0.85668   0.00000  Uiso   1.00
C1039  C     0.13060   0.52613   0.90077   0.00000  Uiso   1.00
C1040  C     0.19925   0.47049   0.60106   0.00000  Uiso   1.00
C1041  C     0.09346   0.56328   0.96326   0.00000  Uiso   1.00
C1042  C     0.07907   0.58359   0.55023   0.00000  Uiso   1.00
C1043  C     0.14181   0.49855   0.92268   0.00000  Uiso   1.00
C1044  C     0.31886   0.46360   0.50559   0.00000  Uiso   1.00
C1045  C     0.02621   0.44469   0.97981   0.00000  Uiso   1.00
C1046  C     0.02349   0.51721   0.69641   0.00000  Uiso   1.00
C1047  C     0.31326   0.49252   0.80651   0.00000  Uiso   1.00
C1048  C     0.13399   0.33822   0.80732   0.00000  Uiso   1.00
C1049  C     0.26372   0.43445   0.59820   0.00000  Uiso   1.00
C1050  C     0.08766   0.62447   0.91527   0.00000  Uiso   1.00
C1051  C     0.04172   0.63661   0.93267   0.00000  Uiso   1.00
C1052  C     0.14207   0.45309   0.90826   0.00000  Uiso   1.00
C1053  C     0.14138   0.51210   0.96237   0.00000  Uiso   1.00
C1054  C     0.11383   0.54286   0.98377   0.00000  Uiso   1.00
C1055  C     0.16724   0.49564   0.98123   0.00000  Uiso   1.00
C1056  C     0.15831   0.50234   0.52294   0.00000  Uiso   1.00
C1057  C     0.12702   0.52960   0.54422   0.00000  Uiso   1.00
C1058  C     0.10659   0.55142   0.52514   0.00000  Uiso   1.00
H1059  H     0.19603   0.66583   0.70887   0.00000  Uiso   1.00
H1060  H     0.05327   0.46943   0.97345   0.00000  Uiso   1.00
H1061  H     0.03454   0.42110   0.99532   0.00000  Uiso   1.00
H1062  H     0.02133   0.42965   0.95141   0.00000  Uiso   1.00
H1063  H     0.01060   0.51686   0.67168   0.00000  Uiso   1.00
H1064  H     0.28604   0.51094   0.81897   0.00000  Uiso   1.00
H1065  H     0.10365   0.35009   0.82459   0.00000  Uiso   1.00
H1066  H     0.25719   0.43962   0.63009   0.00000  Uiso   1.00
H1067  H     0.10323   0.64238   0.88965   0.00000  Uiso   1.00
H1068  H     0.10656   0.63475   0.93672   0.00000  Uiso   1.00
H1069  H     0.02416   0.61918   0.95835   0.00000  Uiso   1.00
H1070  H     0.14365   0.49748   0.60246   0.00000  Uiso   1.00
H1071  H     0.04229   0.33712   0.94258   0.00000  Uiso   1.00
H1072  H     0.02429   0.62964   0.90990   0.00000  Uiso   1.00
H1073  H     0.14252   0.44173   0.87821   0.00000  Uiso   1.00
H1074  H     0.25789   0.44549   0.95841   0.00000  Uiso   1.00
H1075  H     0.06906   0.58366   0.97905   0.00000  Uiso   1.00
H1076  H     0.12077   0.53782   0.57563   0.00000  Uiso   1.00
H1077  H     0.21418   0.47322   0.92691   0.00000  Uiso   1.00
H1078  H     0.06058   0.57824   0.58033   0.00000  Uiso   1.00
H1079  H     0.32499   0.47875   0.53359   0.00000  Uiso   1.00
H1080  H     0.31209   0.48778   0.98959   0.00000  Uiso   1.00
O1081  O     0.16667   0.50000   0.75000   0.00000  Uiso   1.00
O1082  O     0.15693   0.45726   0.66625   0.00000  Uiso   1.00
O1083  O     0.12687   0.53979   0.83749   0.00000  Uiso   1.00
O1084  O     0.21088   0.50826   0.65877   0.00000  Uiso   1.00
O1085  O     0.17198   0.49468   0.83749   0.00000  Uiso   1.00
O1086  O     0.07902   0.61723   0.53885   0.00000  Uiso   1.00
O1087  O     0.28450   0.43183   0.51321   0.00000  Uiso   1.00
O1088  O     0.06180   0.52778   0.69136   0.00000  Uiso   1.00
O1089  O     0.32190   0.47084   0.82791   0.00000  Uiso   1.00
O1090  O     0.15385   0.65420   0.82355   0.00000  Uiso   1.00
O1091  O     0.29304   0.41341   0.57963   0.00000  Uiso   1.00
O1092  O     0.17849   0.41434   0.77821   0.00000  Uiso   1.00
O1093  O     0.08724   0.58151   0.90136   0.00000  Uiso   1.00
O1094  O     0.13820   0.42696   0.93090   0.00000  Uiso   1.00
O1095  O     0.14581   0.59469   0.76767   0.00000  Uiso   1.00
O1096  O     0.07452   0.46584   0.73607   0.00000  Uiso   1.00
O1097  O     0.26785   0.52512   0.71806   0.00000  Uiso   1.00
O1098  O     0.06990   0.52293   0.77820   0.00000  Uiso   1.00
O1099  O     0.25440   0.48610   0.76768   0.00000  Uiso   1.00
O1100  O     0.13800   0.40236   0.73607   0.00000  Uiso   1.00
O1101  O     0.20437   0.58860   0.71806   0.00000  Uiso   1.00
Zn1102 Zn    0.19244   0.47423   0.78278   0.00000  Uiso   1.00
Zn1103 Zn    0.13459   0.45711   0.72258   0.00000  Uiso   1.00
Zn1104 Zn    0.21166   0.52997   0.71188   0.00000  Uiso   1.00
Zn1105 Zn    0.12798   0.53868   0.78277   0.00000  Uiso   1.00
C1106  C     0.38598   0.49370   0.75951   0.00000  Uiso   1.00
C1107  C     0.53737   0.47572   0.95891   0.00000  Uiso   1.00
C1108  C     0.56324   0.46035   0.97709   0.00000  Uiso   1.00
C1109  C     0.61437   0.50659   0.74109   0.00000  Uiso   1.00
C1110  C     0.55347   0.46421   0.51836   0.00000  Uiso   1.00
C1111  C     0.51647   0.48392   0.54171   0.00000  Uiso   1.00
C1112  C     0.58091   0.44943   0.53648   0.00000  Uiso   1.00
C1113  C     0.57010   0.45185   0.57822   0.00000  Uiso   1.00
C1114  C     0.50596   0.48518   0.58306   0.00000  Uiso   1.00
C1115  C     0.66050   0.50639   0.73563   0.00000  Uiso   1.00
C1116  C     0.34082   0.49484   0.76479   0.00000  Uiso   1.00
C1117  C     0.43856   0.55876   0.92168   0.00000  Uiso   1.00
C1118  C     0.51021   0.65461   0.73686   0.00000  Uiso   1.00
C1119  C     0.48627   0.34698   0.76543   0.00000  Uiso   1.00
C1120  C     0.48980   0.38985   0.75912   0.00000  Uiso   1.00
C1121  C     0.50970   0.61096   0.74142   0.00000  Uiso   1.00
C1122  C     0.52201   0.47863   0.64408   0.00000  Uiso   1.00
C1123  C     0.47716   0.51998   0.85668   0.00000  Uiso   1.00
C1124  C     0.46393   0.52613   0.90077   0.00000  Uiso   1.00
C1125  C     0.53258   0.47049   0.60106   0.00000  Uiso   1.00
C1126  C     0.42679   0.56328   0.96326   0.00000  Uiso   1.00
C1127  C     0.41240   0.58359   0.55023   0.00000  Uiso   1.00
C1128  C     0.47514   0.49855   0.92268   0.00000  Uiso   1.00
C1129  C     0.65219   0.46360   0.50559   0.00000  Uiso   1.00
C1130  C     0.35954   0.44469   0.97981   0.00000  Uiso   1.00
C1131  C     0.35683   0.51721   0.69641   0.00000  Uiso   1.00
C1132  C     0.64659   0.49252   0.80651   0.00000  Uiso   1.00
C1133  C     0.46732   0.33822   0.80732   0.00000  Uiso   1.00
C1134  C     0.59705   0.43445   0.59820   0.00000  Uiso   1.00
C1135  C     0.42100   0.62447   0.91527   0.00000  Uiso   1.00
C1136  C     0.37505   0.63661   0.93267   0.00000  Uiso   1.00
C1137  C     0.47540   0.45309   0.90826   0.00000  Uiso   1.00
C1138  C     0.47471   0.51210   0.96237   0.00000  Uiso   1.00
C1139  C     0.44717   0.54286   0.98377   0.00000  Uiso   1.00
C1140  C     0.50057   0.49564   0.98123   0.00000  Uiso   1.00
C1141  C     0.49165   0.50234   0.52294   0.00000  Uiso   1.00
C1142  C     0.46035   0.52960   0.54422   0.00000  Uiso   1.00
C1143  C     0.43992   0.55142   0.52514   0.00000  Uiso   1.00
H1144  H     0.52936   0.66583   0.70887   0.00000  Uiso   1.00
H1145  H     0.38661   0.46943   0.97345   0.00000  Uiso   1.00
H1146  H     0.36788   0.42110   0.99532   0.00000  Uiso   1.00
H1147  H     0.35466   0.42965   0.95141   0.00000  Uiso   1.00
H1148  H     0.34393   0.51686   0.67168   0.00000  Uiso   1.00
H1149  H     0.61938   0.51094   0.81897   0.00000  Uiso   1.00
H1150  H     0.43699   0.35009   0.82459   0.00000  Uiso   1.00
H1151  H     0.59053   0.43962   0.63009   0.00000  Uiso   1.00
H1152  H     0.43656   0.64238   0.88965   0.00000  Uiso   1.00
H1153  H     0.43990   0.63475   0.93672   0.00000  Uiso   1.00
H1154  H     0.35750   0.61918   0.95835   0.00000  Uiso   1.00
H1155  H     0.47698   0.49748   0.60246   0.00000  Uiso   1.00
H1156  H     0.37562   0.33712   0.94258   0.00000  Uiso   1.00
H1157  H     0.35762   0.62964   0.90990   0.00000  Uiso   1.00
H1158  H     0.47586   0.44173   0.87821   0.00000  Uiso   1.00
H1159  H     0.59122   0.44549   0.95841   0.00000  Uiso   1.00
H1160  H     0.40240   0.58366   0.97905   0.00000  Uiso   1.00
H1161  H     0.45410   0.53782   0.57563   0.00000  Uiso   1.00
H1162  H     0.54752   0.47322   0.92691   0.00000  Uiso   1.00
H1163  H     0.39391   0.57824   0.58033   0.00000  Uiso   1.00
H1164  H     0.65832   0.47875   0.53359   0.00000  Uiso   1.00
H1165  H     0.64543   0.48778   0.98959   0.00000  Uiso   1.00
O1166  O     0.50000   0.50000   0.75000   0.00000  Uiso   1.00
O1167  O     0.49027   0.45726   0.66625   0.00000  Uiso   1.00
O1168  O     0.46020   0.53979   0.83749   0.00000  Uiso   1.00
O1169  O     0.54421   0.50826   0.65877   0.00000  Uiso   1.00
O1170  O     0.50532   0.49468   0.83749   0.00000  Uiso   1.00
O1171  O     0.41236   0.61723   0.53885   0.00000  Uiso   1.00
O1172  O     0.61784   0.43183   0.51321   0.00000  Uiso   1.00
O1173  O     0.39513   0.52778   0.69136   0.00000  Uiso   1.00
O1174  O     0.65523   0.47084   0.82791   0.00000  Uiso   1.00
O1175  O     0.48718   0.65420   0.82355   0.00000  Uiso   1.00
O1176  O     0.62638   0.41341   0.57963   0.00000  Uiso   1.00
O1177  O     0.51182   0.41434   0.77821   0.00000  Uiso   1.00
O1178  O     0.42058   0.58151   0.90136   0.00000  Uiso   1.00
O1179  O     0.47153   0.42696   0.93090   0.00000  Uiso   1.00
O1180  O     0.47914   0.59469   0.76767   0.00000  Uiso   1.00
O1181  O     0.40785   0.46584   0.73607   0.00000  Uiso   1.00
O1182  O     0.60119   0.52512   0.71806   0.00000  Uiso   1.00
O1183  O     0.40323   0.52293   0.77820   0.00000  Uiso   1.00
O1184  O     0.58773   0.48610   0.76768   0.00000  Uiso   1.00
O1185  O     0.47133   0.40236   0.73607   0.00000  Uiso   1.00
O1186  O     0.53771   0.58860   0.71806   0.00000  Uiso   1.00
Zn1187 Zn    0.52577   0.47423   0.78278   0.00000  Uiso   1.00
Zn1188 Zn    0.46792   0.45711   0.72258   0.00000  Uiso   1.00
Zn1189 Zn    0.54500   0.52997   0.71188   0.00000  Uiso   1.00
Zn1190 Zn    0.46131   0.53868   0.78277   0.00000  Uiso   1.00
C1191  C     0.71931   0.49370   0.75951   0.00000  Uiso   1.00
C1192  C     0.87070   0.47572   0.95891   0.00000  Uiso   1.00
C1193  C     0.89657   0.46035   0.97709   0.00000  Uiso   1.00
C1194  C     0.94770   0.50659   0.74109   0.00000  Uiso   1.00
C1195  C     0.88681   0.46421   0.51836   0.00000  Uiso   1.00
C1196  C     0.84980   0.48392   0.54171   0.00000  Uiso   1.00
C1197  C     0.91424   0.44943   0.53648   0.00000  Uiso   1.00
C1198  C     0.90344   0.45185   0.57822   0.00000  Uiso   1.00
C1199  C     0.83930   0.48518   0.58306   0.00000  Uiso   1.00
C1200  C     0.99384   0.50639   0.73563   0.00000  Uiso   1.00
C1201  C     0.67415   0.49484   0.76479   0.00000  Uiso   1.00
C1202  C     0.77190   0.55876   0.92168   0.00000  Uiso   1.00
C1203  C     0.84354   0.65461   0.73686   0.00000  Uiso   1.00
C1204  C     0.81961   0.34698   0.76543   0.00000  Uiso   1.00
C1205  C     0.82314   0.38985   0.75912   0.00000  Uiso   1.00
C1206  C     0.84303   0.61096   0.74142   0.00000  Uiso   1.00
C1207  C     0.85535   0.47863   0.64408   0.00000  Uiso   1.00
C1208  C     0.81049   0.51998   0.85668   0.00000  Uiso   1.00
C1209  C     0.79727   0.52613   0.90077   0.00000  Uiso   1.00
C1210  C     0.86591   0.47049   0.60106   0.00000  Uiso   1.00
C1211  C     0.76013   0.56328   0.96326   0.00000  Uiso   1.00
C1212  C     0.74573   0.58359   0.55023   0.00000  Uiso   1.00
C1213  C     0.80848   0.49855   0.92268   0.00000  Uiso   1.00
C1214  C     0.98553   0.46360   0.50559   0.00000  Uiso   1.00
C1215  C     0.69288   0.44469   0.97981   0.00000  Uiso   1.00
C1216  C     0.69016   0.51721   0.69641   0.00000  Uiso   1.00
C1217  C     0.97992   0.49252   0.80651   0.00000  Uiso   1.00
C1218  C     0.80066   0.33822   0.80732   0.00000  Uiso   1.00
C1219  C     0.93038   0.43445   0.59820   0.00000  Uiso   1.00
C1220  C     0.75433   0.62447   0.91527   0.00000  Uiso   1.00
C1221  C     0.70839   0.63661   0.93267   0.00000  Uiso   1.00
C1222  C     0.80874   0.45309   0.90826   0.00000  Uiso   1.00
C1223  C     0.80804   0.51210   0.96237   0.00000  Uiso   1.00
C1224  C     0.78050   0.54286   0.98377   0.00000  Uiso   1.00
C1225  C     0.83390   0.49564   0.98123   0.00000  Uiso   1.00
C1226  C     0.82498   0.50234   0.52294   0.00000  Uiso   1.00
C1227  C     0.79368   0.52960   0.54422   0.00000  Uiso   1.00
C1228  C     0.77325   0.55142   0.52514   0.00000  Uiso   1.00
H1229  H     0.86270   0.66583   0.70887   0.00000  Uiso   1.00
H1230  H     0.71994   0.46943   0.97345   0.00000  Uiso   1.00
H1231  H     0.70121   0.42110   0.99532   0.00000  Uiso   1.00
H1232  H     0.68799   0.42965   0.95141   0.00000  Uiso   1.00
H1233  H     0.67726   0.51686   0.67168   0.00000  Uiso   1.00
H1234  H     0.95271   0.51094   0.81897   0.00000  Uiso   1.00
H1235  H     0.77032   0.35009   0.82459   0.00000  Uiso   1.00
H1236  H     0.92386   0.43962   0.63009   0.00000  Uiso   1.00
H1237  H     0.76990   0.64238   0.88965   0.00000  Uiso   1.00
H1238  H     0.77323   0.63475   0.93672   0.00000  Uiso   1.00
H1239  H     0.69083   0.61918   0.95835   0.00000  Uiso   1.00
H1240  H     0.81031   0.49748   0.60246   0.00000  Uiso   1.00
H1241  H     0.70896   0.33712   0.94258   0.00000  Uiso   1.00
H1242  H     0.69095   0.62964   0.90990   0.00000  Uiso   1.00
H1243  H     0.80919   0.44173   0.87821   0.00000  Uiso   1.00
H1244  H     0.92456   0.44549   0.95841   0.00000  Uiso   1.00
H1245  H     0.73573   0.58366   0.97905   0.00000  Uiso   1.00
H1246  H     0.78744   0.53782   0.57563   0.00000  Uiso   1.00
H1247  H     0.88085   0.47322   0.92691   0.00000  Uiso   1.00
H1248  H     0.72725   0.57824   0.58033   0.00000  Uiso   1.00
H1249  H     0.99165   0.47875   0.53359   0.00000  Uiso   1.00
H1250  H     0.97876   0.48778   0.98959   0.00000  Uiso   1.00
O1251  O     0.83333   0.50000   0.75000   0.00000  Uiso   1.00
O1252  O     0.82360   0.45726   0.66625   0.00000  Uiso   1.00
O1253  O     0.79354   0.53979   0.83749   0.00000  Uiso   1.00
O1254  O     0.87755   0.50826   0.65877   0.00000  Uiso   1.00
O1255  O     0.83865   0.49468   0.83749   0.00000  Uiso   1.00
O1256  O     0.74569   0.61723   0.53885   0.00000  Uiso   1.00
O1257  O     0.95117   0.43183   0.51321   0.00000  Uiso   1.00
O1258  O     0.72847   0.52778   0.69136   0.00000  Uiso   1.00
O1259  O     0.98857   0.47084   0.82791   0.00000  Uiso   1.00
O1260  O     0.82052   0.65420   0.82355   0.00000  Uiso   1.00
O1261  O     0.95971   0.41341   0.57963   0.00000  Uiso   1.00
O1262  O     0.84515   0.41434   0.77821   0.00000  Uiso   1.00
O1263  O     0.75391   0.58151   0.90136   0.00000  Uiso   1.00
O1264  O     0.80487   0.42696   0.93090   0.00000  Uiso   1.00
O1265  O     0.81247   0.59469   0.76767   0.00000  Uiso   1.00
O1266  O     0.74119   0.46584   0.73607   0.00000  Uiso   1.00
O1267  O     0.93452   0.52512   0.71806   0.00000  Uiso   1.00
O1268  O     0.73656   0.52293   0.77820   0.00000  Uiso   1.00
O1269  O     0.92106   0.48610   0.76768   0.00000  Uiso   1.00
O1270  O     0.80467   0.40236   0.73607   0.00000  Uiso   1.00
O1271  O     0.87104   0.58860   0.71806   0.00000  Uiso   1.00
Zn1272 Zn    0.85910   0.47423   0.78278   0.00000  Uiso   1.00
Zn1273 Zn    0.80125   0.45711   0.72258   0.00000  Uiso   1.00
Zn1274 Zn    0.87833   0.52997   0.71188   0.00000  Uiso   1.00
Zn1275 Zn    0.79465   0.53868   0.78277   0.00000  Uiso   1.00
C1276  C     0.05264   0.82703   0.75951   0.00000  Uiso   1.00
C1277  C     0.20403   0.80905   0.95891   0.00000  Uiso   1.00
C1278  C     0.22991   0.79368   0.97709   0.00000  Uiso   1.00
C1279  C     0.28104   0.83993   0.74109   0.00000  Uiso   1.00
C1280  C     0.22014   0.79755   0.51836   0.00000  Uiso   1.00
C1281  C     0.18313   0.81725   0.54171   0.00000  Uiso   1.00
C1282  C     0.24757   0.78276   0.53648   0.00000  Uiso   1.00
C1283  C     0.23677   0.78518   0.57822   0.00000  Uiso   1.00
C1284  C     0.17263   0.81851   0.58306   0.00000  Uiso   1.00
C1285  C     0.32717   0.83972   0.73563   0.00000  Uiso   1.00
C1286  C     0.00749   0.82818   0.76479   0.00000  Uiso   1.00
C1287  C     0.10523   0.89209   0.92168   0.00000  Uiso   1.00
C1288  C     0.17687   0.98794   0.73686   0.00000  Uiso   1.00
C1289  C     0.15294   0.68031   0.76543   0.00000  Uiso   1.00
C1290  C     0.15647   0.72318   0.75912   0.00000  Uiso   1.00
C1291  C     0.17637   0.94429   0.74142   0.00000  Uiso   1.00
C1292  C     0.18868   0.81196   0.64408   0.00000  Uiso   1.00
C1293  C     0.14382   0.85331   0.85668   0.00000  Uiso   1.00
C1294  C     0.13060   0.85946   0.90077   0.00000  Uiso   1.00
C1295  C     0.19925   0.80382   0.60106   0.00000  Uiso   1.00
C1296  C     0.09346   0.89662   0.96326   0.00000  Uiso   1.00
C1297  C     0.07907   0.91692   0.55023   0.00000  Uiso   1.00
C1298  C     0.14181   0.83188   0.92268   0.00000  Uiso   1.00
C1299  C     0.31886   0.79693   0.50559   0.00000  Uiso   1.00
C1300  C     0.02621   0.77802   0.97981   0.00000  Uiso   1.00
C1301  C     0.02349   0.85054   0.69641   0.00000  Uiso   1.00
C1302  C     0.31326   0.82585   0.80651   0.00000  Uiso   1.00
C1303  C     0.13399   0.67156   0.80732   0.00000  Uiso   1.00
C1304  C     0.26372   0.76778   0.59820   0.00000  Uiso   1.00
C1305  C     0.08766   0.95781   0.91527   0.00000  Uiso   1.00
C1306  C     0.04172   0.96994   0.93267   0.00000  Uiso   1.00
C1307  C     0.14207   0.78642   0.90826   0.00000  Uiso   1.00
C1308  C     0.14138   0.84543   0.96237   0.00000  Uiso   1.00
C1309  C     0.11383   0.87620   0.98377   0.00000  Uiso   1.00
C1310  C     0.16724   0.82898   0.98123   0.00000  Uiso   1.00
C1311  C     0.15831   0.83567   0.52294   0.00000  Uiso   1.00
C1312  C     0.12702   0.86294   0.54422   0.00000  Uiso   1.00
C1313  C     0.10659   0.88476   0.52514   0.00000  Uiso   1.00
H1314  H     0.19603   0.99917   0.70887   0.00000  Uiso   1.00
H1315  H     0.05327   0.80276   0.97345   0.00000  Uiso   1.00
H1316  H     0.03454   0.75443   0.99532   0.00000  Uiso   1.00
H1317  H     0.02133   0.76299   0.95141   0.00000  Uiso   1.00
H1318  H     0.01060   0.85019   0.67168   0.00000  Uiso   1.00
H1319  H     0.28604   0.84428   0.81897   0.00000  Uiso   1.00
H1320  H     0.10365   0.68342   0.82459   0.00000  Uiso   1.00
H1321  H     0.25719   0.77296   0.63009   0.00000  Uiso   1.00
H1322  H     0.10323   0.97571   0.88965   0.00000  Uiso   1.00
H1323  H     0.10656   0.96808   0.93672   0.00000  Uiso   1.00
H1324  H     0.02416   0.95252   0.95835   0.00000  Uiso   1.00
H1325  H     0.14365   0.83081   0.60246   0.00000  Uiso   1.00
H1326  H     0.04229   0.67046   0.94258   0.00000  Uiso   1.00
H1327  H     0.02429   0.96297   0.90990   0.00000  Uiso   1.00
H1328  H     0.14252   0.77507   0.87821   0.00000  Uiso   1.00
H1329  H     0.25789   0.77883   0.95841   0.00000  Uiso   1.00
H1330  H     0.06906   0.91699   0.97905   0.00000  Uiso   1.00
H1331  H     0.12077   0.87115   0.57563   0.00000  Uiso   1.00
H1332  H     0.21418   0.80655   0.92691   0.00000  Uiso   1.00
H1333  H     0.06058   0.91157   0.58033   0.00000  Uiso   1.00
H1334  H     0.32499   0.81209   0.53359   0.00000  Uiso   1.00
H1335  H     0.31209   0.82111   0.98959   0.00000  Uiso   1.00
O1336  O     0.16667   0.83333   0.75000   0.00000  Uiso   1.00
O1337  O     0.15693   0.79060   0.66625   0.00000  Uiso   1.00
O1338  O     0.12687   0.87313   0.83749   0.00000  Uiso   1.00
O1339  O     0.21088   0.84159   0.65877   0.00000  Uiso   1.00
O1340  O     0.17198   0.82802   0.83749   0.00000  Uiso   1.00
O1341  O     0.07902   0.95057   0.53885   0.00000  Uiso   1.00
O1342  O     0.28450   0.76516   0.51321   0.00000  Uiso   1.00
O1343  O     0.06180   0.86112   0.69136   0.00000  Uiso   1.00
O1344  O     0.32190   0.80418   0.82791   0.00000  Uiso   1.00
O1345  O     0.15385   0.98753   0.82355   0.00000  Uiso   1.00
O1346  O     0.29304   0.74674   0.57963   0.00000  Uiso   1.00
O1347  O     0.17849   0.74768   0.77821   0.00000  Uiso   1.00
O1348  O     0.08724   0.91485   0.90136   0.00000  Uiso   1.00
O1349  O     0.13820   0.76029   0.93090   0.00000  Uiso   1.00
O1350  O     0.14581   0.92803   0.76767   0.00000  Uiso   1.00
O1351  O     0.07452   0.79917   0.73607   0.00000  Uiso   1.00
O1352  O     0.26785   0.85845   0.71806   0.00000  Uiso   1.00
O1353  O     0.06990   0.85627   0.77820   0.00000  Uiso   1.00
O1354  O     0.25440   0.81944   0.76768   0.00000  Uiso   1.00
O1355  O     0.13800   0.73570   0.73607   0.00000  Uiso   1.00
O1356  O     0.20437   0.92193   0.71806   0.00000  Uiso   1.00
Zn1357 Zn    0.19244   0.80756   0.78278   0.00000  Uiso   1.00
Zn1358 Zn    0.13459   0.79044   0.72258   0.00000  Uiso   1.00
Zn1359 Zn    0.21166   0.86331   0.71188   0.00000  Uiso   1.00
Zn1360 Zn    0.12798   0.87202   0.78277   0.00000  Uiso   1.00
C1361  C     0.38598   0.82703   0.75951   0.00000  Uiso   1.00
C1362  C     0.53737   0.80905   0.95891   0.00000  Uiso   1.00
C1363  C     0.56324   0.79368   0.97709   0.00000  Uiso   1.00
C1364  C     0.61437   0.83993   0.74109   0.00000  Uiso   1.00
C1365  C     0.55347   0.79755   0.51836   0.00000  Uiso   1.00
C1366  C     0.51647   0.81725   0.54171   0.00000  Uiso   1.00
C1367  C     0.58091   0.78276   0.53648   0.00000  Uiso   1.00
C1368  C     0.57010   0.78518   0.57822   0.00000  Uiso   1.00
C1369  C     0.50596   0.81851   0.58306   0.00000  Uiso   1.00
C1370  C     0.66050   0.83972   0.73563   0.00000  Uiso   1.00
C1371  C     0.34082   0.82818   0.76479   0.00000  Uiso   1.00
C1372  C     0.43856   0.89209   0.92168   0.00000  Uiso   1.00
C1373  C     0.51021   0.98794   0.73686   0.00000  Uiso   1.00
C1374  C     0.48627   0.68031   0.76543   0.00000  Uiso   1.00
C1375  C     0.48980   0.72318   0.75912   0.00000  Uiso   1.00
C1376  C     0.50970   0.94429   0.74142   0.00000  Uiso   1.00
C1377  C     0.52201   0.81196   0.64408   0.00000  Uiso   1.00
C1378  C     0.47716   0.85331   0.85668   0.00000  Uiso   1.00
C1379  C     0.46393   0.85946   0.90077   0.00000  Uiso   1.00
C1380  C     0.53258   0.80382   0.60106   0.00000  Uiso   1.00
C1381  C     0.42679   0.89662   0.96326   0.00000  Uiso   1.00
C1382  C     0.41240   0.91692   0.55023   0.00000  Uiso   1.00
C1383  C     0.47514   0.83188   0.92268   0.00000  Uiso   1.00
C1384  C     0.65219   0.79693   0.50559   0.00000  Uiso   1.00
C1385  C     0.35954   0.77802   0.97981   0.00000  Uiso   1.00
C1386  C     0.35683   0.85054   0.69641   0.00000  Uiso   1.00
C1387  C     0.64659   0.82585   0.80651   0.00000  Uiso   1.00
C1388  C     0.46732   0.67156   0.80732   0.00000  Uiso   1.00
C1389  C     0.59705   0.76778   0.59820   0.00000  Uiso   1.00
C1390  C     0.42100   0.95781   0.91527   0.00000  Uiso   1.00
C1391  C     0.37505   0.96994   0.93267   0.00000  Uiso   1.00
C1392  C     0.47540   0.78642   0.90826   0.00000  Uiso   1.00
C1393  C     0.47471   0.84543   0.96237   0.00000  Uiso   1.00
C1394  C     0.44717   0.87620   0.98377   0.00000  Uiso   1.00
C1395  C     0.50057   0.82898   0.98123   0.00000  Uiso   1.00
C1396  C     0.49165   0.83567   0.52294   0.00000  Uiso   1.00
C1397  C     0.46035   0.86294   0.54422   0.00000  Uiso   1.00
C1398  C     0.43992   0.88476   0.52514   0.00000  Uiso   1.00
H1399  H     0.52936   0.99917   0.70887   0.00000  Uiso   1.00
H1400  H     0.38661   0.80276   0.97345   0.00000  Uiso   1.00
H1401  H     0.36788   0.75443   0.99532   0.00000  Uiso   1.00
H1402  H     0.35466   0.76299   0.95141   0.00000  Uiso   1.00
H1403  H     0.34393   0.85019   0.67168   0.00000  Uiso   1.00
H1404  H     0.61938   0.84428   0.81897   0.00000  Uiso   1.00
H1405  H     0.43699   0.68342   0.82459   0.00000  Uiso   1.00
H1406  H     0.59053   0.77296   0.63009   0.00000  Uiso   1.00
H1407  H     0.43656   0.97571   0.88965   0.00000  Uiso   1.00
H1408  H     0.43990   0.96808   0.93672   0.00000  Uiso   1.00
H1409  H     0.35750   0.95252   0.95835   0.00000  Uiso   1.00
H1410  H     0.47698   0.83081   0.60246   0.00000  Uiso   1.00
H1411  H     0.37562   0.67046   0.94258   0.00000  Uiso   1.00
H1412  H     0.35762   0.96297   0.90990   0.00000  Uiso   1.00
H1413  H     0.47586   0.77507   0.87821   0.00000  Uiso   1.00
H1414  H     0.59122   0.77883   0.95841   0.00000  Uiso   1.00
H1415  H     0.40240   0.91699   0.97905   0.00000  Uiso   1.00
H1416  H     0.45410   0.87115   0.57563   0.00000  Uiso   1.00
H1417  H     0.54752   0.80655   0.92691   0.00000  Uiso   1.00
H1418  H     0.39391   0.91157   0.58033   0.00000  Uiso   1.00
H1419  H     0.65832   0.81209   0.53359   0.00000  Uiso   1.00
H1420  H     0.64543   0.82111   0.98959   0.00000  Uiso   1.00
O1421  O     0.50000   0.83333   0.75000   0.00000  Uiso   1.00
O1422  O     0.49027   0.79060   0.66625   0.00000  Uiso   1.00
O1423  O     0.46020   0.87313   0.83749   0.00000  Uiso   1.00
O1424  O     0.54421   0.84159   0.65877   0.00000  Uiso   1.00
O1425  O     0.50532   0.82802   0.83749   0.00000  Uiso   1.00
O1426  O     0.41236   0.95057   0.53885   0.00000  Uiso   1.00
O1427  O     0.61784   0.76516   0.51321   0.00000  Uiso   1.00
O1428  O     0.39513   0.86112   0.69136   0.00000  Uiso   1.00
O1429  O     0.65523   0.80418   0.82791   0.00000  Uiso   1.00
O1430  O     0.48718   0.98753   0.82355   0.00000  Uiso   1.00
O1431  O     0.62638   0.74674   0.57963   0.00000  Uiso   1.00
O1432  O     0.51182   0.74768   0.77821   0.00000  Uiso   1.00
O1433  O     0.42058   0.91485   0.90136   0.00000  Uiso   1.00
O1434  O     0.47153   0.76029   0.93090   0.00000  Uiso   1.00
O1435  O     0.47914   0.92803   0.76767   0.00000  Uiso   1.00
O1436  O     0.40785   0.79917   0.73607   0.00000  Uiso   1.00
O1437  O     0.60119   0.85845   0.71806   0.00000  Uiso   1.00
O1438  O     0.40323   0.85627   0.77820   0.00000  Uiso   1.00
O1439  O     0.58773   0.81944   0.76768   0.00000  Uiso   1.00
O1440  O     0.47133   0.73570   0.73607   0.00000  Uiso   1.00
O1441  O     0.53771   0.92193   0.71806   0.00000  Uiso   1.00
Zn1442 Zn    0.52577   0.80756   0.78278   0.00000  Uiso   1.00
Zn1443 Zn    0.46792   0.79044   0.72258   0.00000  Uiso   1.00
Zn1444 Zn    0.54500   0.86331   0.71188   0.00000  Uiso   1.00
Zn1445 Zn    0.46131   0.87202   0.78277   0.00000  Uiso   1.00
C1446  C     0.71931   0.82703   0.75951   0.00000  Uiso   1.00
C1447  C     0.87070   0.80905   0.95891   0.00000  Uiso   1.00
C1448  C     0.89657   0.79368   0.97709   0.00000  Uiso   1.00
C1449  C     0.94770   0.83993   0.74109   0.00000  Uiso   1.00
C1450  C     0.88681   0.79755   0.51836   0.00000  Uiso   1.00
C1451  C     0.84980   0.81725   0.54171   0.00000  Uiso   1.00
C1452  C     0.91424   0.78276   0.53648   0.00000  Uiso   1.00
C1453  C     0.90344   0.78518   0.57822   0.00000  Uiso   1.00
C1454  C     0.83930   0.81851   0.58306   0.00000  Uiso   1.00
C1455  C     0.99384   0.83972   0.73563   0.00000  Uiso   1.00
C1456  C     0.67415   0.82818   0.76479   0.00000  Uiso   1.00
C1457  C     0.77190   0.89209   0.92168   0.00000  Uiso   1.00
C1458  C     0.84354   0.98794   0.73686   0.00000  Uiso   1.00
C1459  C     0.81961   0.68031   0.76543   0.00000  Uiso   1.00
C1460  C     0.82314   0.72318   0.75912   0.00000  Uiso   1.00
C1461  C     0.84303   0.94429   0.74142   0.00000  Uiso   1.00
C1462  C     0.85535   0.81196   0.64408   0.00000  Uiso   1.00
C1463  C     0.81049   0.85331   0.85668   0.00000  Uiso   1.00
C1464  C     0.79727   0.85946   0.90077   0.00000  Uiso   1.00
C1465  C     0.86591   0.80382   0.60106   0.00000  Uiso   1.00
C1466  C     0.76013   0.89662   0.96326   0.00000  Uiso   1.00
C1467  C     0.74573   0.91692   0.55023   0.00000  Uiso   1.00
C1468  C     0.80848   0.83188   0.92268   0.00000  Uiso   1.00
C1469  C     0.98553   0.79693   0.50559   0.00000  Uiso   1.00
C1470  C     0.69288   0.77802   0.97981   0.00000  Uiso   1.00
C1471  C     0.69016   0.85054   0.69641   0.00000  Uiso   1.00
C1472  C     0.97992   0.82585   0.80651   0.00000  Uiso   1.00
C1473  C     0.80066   0.67156   0.80732   0.00000  Uiso   1.00
C1474  C     0.93038   0.76778   0.59820   0.00000  Uiso   1.00
C1475  C     0.75433   0.95781   0.91527   0.00000  Uiso   1.00
C1476  C     0.70839   0.96994   0.93267   0.00000  Uiso   1.00
C1477  C     0.80874   0.78642   0.90826   0.00000  Uiso   1.00
C1478  C     0.80804   0.84543   0.96237   0.00000  Uiso   1.00
C1479  C     0.78050   0.87620   0.98377   0.00000  Uiso   1.00
C1480  C     0.83390   0.82898   0.98123   0.00000  Uiso   1.00
C1481  C     0.82498   0.83567   0.52294   0.00000  Uiso   1.00
C1482  C     0.79368   0.86294   0.54422   0.00000  Uiso   1.00
C1483  C     0.77325   0.88476   0.52514   0.00000  Uiso   1.00
H1484  H     0.86270   0.99917   0.70887   0.00000  Uiso   1.00
H1485  H     0.71994   0.80276   0.97345   0.00000  Uiso   1.00
H1486  H     0.70121   0.75443   0.99532   0.00000  Uiso   1.00
H1487  H     0.68799   0.76299   0.95141   0.00000  Uiso   1.00
H1488  H     0.67726   0.85019   0.67168   0.00000  Uiso   1.00
H1489  H     0.95271   0.84428   0.81897   0.00000  Uiso   1.00
H1490  H     0.77032   0.68342   0.82459   0.00000  Uiso   1.00
H1491  H     0.92386   0.77296   0.63009   0.00000  Uiso   1.00
H1492  H     0.76990   0.97571   0.88965   0.00000  Uiso   1.00
H1493  H     0.77323   0.96808   0.93672   0.00000  Uiso   1.00
H1494  H     0.69083   0.95252   0.95835   0.00000  Uiso   1.00
H1495  H     0.81031   0.83081   0.60246   0.00000  Uiso   1.00
H1496  H     0.70896   0.67046   0.94258   0.00000  Uiso   1.00
H1497  H     0.69095   0.96297   0.90990   0.00000  Uiso   1.00
H1498  H     0.80919   0.77507   0.87821   0.00000  Uiso   1.00
H1499  H     0.92456   0.77883   0.95841   0.00000  Uiso   1.00
H1500  H     0.73573   0.91699   0.97905   0.00000  Uiso   1.00
H1501  H     0.78744   0.87115   0.57563   0.00000  Uiso   1.00
H1502  H     0.88085   0.80655   0.92691   0.00000  Uiso   1.00
H1503  H     0.72725   0.91157   0.58033   0.00000  Uiso   1.00
H1504  H     0.99165   0.81209   0.53359   0.00000  Uiso   1.00
H1505  H     0.97876   0.82111   0.98959   0.00000  Uiso   1.00
O1506  O     0.83333   0.83333   0.75000   0.00000  Uiso   1.00
O1507  O     0.82360   0.79060   0.66625   0.00000  Uiso   1.00
O1508  O     0.79354   0.87313   0.83749   0.00000  Uiso   1.00
O1509  O     0.87755   0.84159   0.65877   0.00000  Uiso   1.00
O1510  O     0.83865   0.82802   0.83749   0.00000  Uiso   1.00
O1511  O     0.74569   0.95057   0.53885   0.00000  Uiso   1.00
O1512  O     0.95117   0.76516   0.51321   0.00000  Uiso   1.00
O1513  O     0.72847   0.86112   0.69136   0.00000  Uiso   1.00
O1514  O     0.98857   0.80418   0.82791   0.00000  Uiso   1.00
O1515  O     0.82052   0.98753   0.82355   0.00000  Uiso   1.00
O1516  O     0.95971   0.74674   0.57963   0.00000  Uiso   1.00
O1517  O     0.84515   0.74768   0.77821   0.00000  Uiso   1.00
O1518  O     0.75391   0.91485   0.90136   0.00000  Uiso   1.00
O1519  O     0.80487   0.76029   0.93090   0.00000  Uiso   1.00
O1520  O     0.81247   0.92803   0.76767   0.00000  Uiso   1.00
O1521  O     0.74119   0.79917   0.73607   0.00000  Uiso   1.00
O1522  O     0.93452   0.85845   0.71806   0.00000  Uiso   1.00
O1523  O     0.73656   0.85627   0.77820   0.00000  Uiso   1.00
O1524  O     0.92106   0.81944   0.76768   0.00000  Uiso   1.00
O1525  O     0.80467   0.73570   0.73607   0.00000  Uiso   1.00
O1526  O     0.87104   0.92193   0.71806   0.00000  Uiso   1.00
Zn1527 Zn    0.85910   0.80756   0.78278   0.00000  Uiso   1.00
Zn1528 Zn    0.80125   0.79044   0.72258   0.00000  Uiso   1.00
Zn1529 Zn    0.87833   0.86331   0.71188   0.00000  Uiso   1.00
Zn1530 Zn    0.79465   0.87202   0.78277   0.00000  Uiso   1.00
loop_
_geom_bond_atom_site_label_1
_geom_bond_atom_site_label_2
_geom_bond_distance
_geom_bond_site_symmetry_2
_ccdc_geom_bond_type
C1     C11     1.437   .     S
C1     O78     1.259   .     A
C1     O76     1.278   .     A
C2     C35     1.409   .     A
C2     H57     1.082   .     S
C2     C3      1.386   .     A
C3     H54     1.083   .     S
C3     C770    1.400   .     S
C4     O79     1.275   .     A
C4     C10     1.463   .     S
C4     O77     1.282   .     A
C5     C7      1.416   .     A
C5     C6      1.420   .     A
C5     C768    1.400   1_554 S
C6     C9      1.405   .     A
C6     C36     1.427   .     A
C7     C8      1.415   .     A
C7     O67     1.385   .     S
C8     C20     1.411   .     A
C8     C29     1.493   .     S
C9     C20     1.390   .     A
C9     H50     1.078   .     S
C10    C96     1.362   .     S
C10    C111    1.498   .     S
C11    C180    1.362   1_455 S
C11    C197    1.494   1_455 S
C12    O73     1.393   .     S
C12    C21     1.406   .     A
C12    C19     1.418   .     A
C13    H39     1.088   .     S
C13    C16     1.451   .     S
C13    C269    1.344   .     S
C14    C15     1.430   .     S
C14    C28     1.485   .     S
C14    C523    1.344   1_545 S
C15    O72     1.272   .     A
C15    O80     1.291   .     A
C16    O75     1.260   .     A
C16    O81     1.268   .     A
C17    O64     1.283   .     A
C17    C20     1.461   .     S
C17    O62     1.286   .     A
C18    O65     1.287   .     A
C18    O63     1.280   .     A
C18    C19     1.491   .     S
C19    C23     1.416   .     A
C21    H55     1.076   .     S
C21    C34     1.403   .     A
C22    C38     1.486   .     S
C22    O66     1.221   .     D
C22    H58     1.086   .     S
C23    C33     1.420   .     A
C23    C32     1.500   .     S
C24    O67     1.414   .     S
C24    H59     1.114   .     S
C24    C875    1.521   1_554 S
C24    H825    1.114   1_554 S
C25    H41     1.111   .     S
C25    H42     1.111   .     S
C25    H40     1.109   .     S
C25    C959    1.521   1_455 S
C26    H43     1.086   .     S
C26    O68     1.221   .     D
C26    C180    1.498   1_455 S
C27    H44     1.085   .     S
C27    O69     1.222   .     D
C27    C96     1.494   .     S
C28    H45     1.085   .     S
C28    O580    1.221   1_545 S
C29    H46     1.084   .     S
C29    O71     1.221   .     D
C30    H48     1.115   .     S
C30    C31     1.524   .     S
C30    H47     1.105   .     S
C30    O73     1.419   .     S
C31    H52     1.111   .     S
C31    H49     1.109   .     S
C31    H306    1.111   .     S
C32    O74     1.222   .     D
C32    H53     1.081   .     S
C33    C34     1.417   .     A
C33    C35     1.421   .     A
C34    C803    1.415   .     S
C35    C801    1.417   .     S
C36    C37     1.412   .     A
C36    C800    1.417   1_554 S
C37    H56     1.078   .     S
C37    C38     1.396   .     A
C38    C799    1.415   1_554 S
H51    C541    1.111   1_545 S
H60    C789    1.114   .     S
O61    Zn82    1.958   .     S
O61    Zn83    1.970   .     S
O61    Zn85    1.916   .     S
O61    Zn84    1.936   .     S
O62    Zn83    1.918   .     S
O63    Zn85    1.936   .     S
O64    Zn84    1.935   .     S
O65    Zn82    1.915   .     S
O70    C283    1.221   .     S
O72    Zn82    1.942   .     S
O75    Zn85    1.940   .     S
O76    Zn83    1.926   .     S
O77    Zn84    1.946   .     S
O78    Zn85    1.953   .     S
O79    Zn82    1.935   .     S
O80    Zn83    1.936   .     S
O81    Zn84    1.930   .     S
C86    C96     1.437   .     S
C86    O163    1.259   .     A
C86    O161    1.278   .     A
C87    C120    1.409   .     A
C87    H142    1.082   .     S
C87    C88     1.386   .     A
C88    H139    1.083   .     S
C88    C855    1.400   .     S
C89    O164    1.275   .     A
C89    C95     1.463   .     S
C89    O162    1.282   .     A
C90    C92     1.416   .     A
C90    C91     1.420   .     A
C90    C853    1.400   1_554 S
C91    C94     1.405   .     A
C91    C121    1.427   .     A
C92    C93     1.415   .     A
C92    O152    1.385   .     S
C93    C105    1.411   .     A
C93    C114    1.493   .     S
C94    C105    1.390   .     A
C94    H135    1.078   .     S
C95    C181    1.362   .     S
C95    C196    1.498   .     S
C97    O158    1.393   .     S
C97    C106    1.406   .     A
C97    C104    1.418   .     A
C98    H124    1.088   .     S
C98    C101    1.451   .     S
C98    C354    1.344   .     S
C99    C100    1.430   .     S
C99    C113    1.485   .     S
C99    C608    1.344   1_545 S
C100   O157    1.272   .     A
C100   O165    1.291   .     A
C101   O160    1.260   .     A
C101   O166    1.268   .     A
C102   O149    1.283   .     A
C102   C105    1.461   .     S
C102   O147    1.286   .     A
C103   O150    1.287   .     A
C103   O148    1.280   .     A
C103   C104    1.491   .     S
C104   C108    1.416   .     A
C106   H140    1.076   .     S
C106   C119    1.403   .     A
C107   C123    1.486   .     S
C107   O151    1.221   .     D
C107   H143    1.086   .     S
C108   C118    1.420   .     A
C108   C117    1.500   .     S
C109   O152    1.414   .     S
C109   H144    1.114   .     S
C109   C960    1.521   1_554 S
C109   H910    1.114   1_554 S
C110   H126    1.111   .     S
C110   H127    1.111   .     S
C110   H125    1.109   .     S
C110   C789    1.521   .     S
C111   H128    1.086   .     S
C111   O153    1.221   .     D
C112   H129    1.085   .     S
C112   O154    1.222   .     D
C112   C181    1.494   .     S
C113   H130    1.085   .     S
C113   O665    1.221   1_545 S
C114   H131    1.084   .     S
C114   O156    1.221   .     D
C115   H133    1.115   .     S
C115   C116    1.524   .     S
C115   H132    1.105   .     S
C115   O158    1.419   .     S
C116   H137    1.111   .     S
C116   H134    1.109   .     S
C116   H391    1.111   .     S
C117   O159    1.222   .     D
C117   H138    1.081   .     S
C118   C119    1.417   .     A
C118   C120    1.421   .     A
C119   C888    1.415   .     S
C120   C886    1.417   .     S
C121   C122    1.412   .     A
C121   C885    1.417   1_554 S
C122   H141    1.078   .     S
C122   C123    1.396   .     A
C123   C884    1.415   1_554 S
H136   C626    1.111   1_545 S
H145   C874    1.114   .     S
O146   Zn167   1.958   .     S
O146   Zn168   1.970   .     S
O146   Zn170   1.916   .     S
O146   Zn169   1.936   .     S
O147   Zn168   1.918   .     S
O148   Zn170   1.936   .     S
O149   Zn169   1.935   .     S
O150   Zn167   1.915   .     S
O155   C368    1.221   .     S
O157   Zn167   1.942   .     S
O160   Zn170   1.940   .     S
O161   Zn168   1.926   .     S
O162   Zn169   1.946   .     S
O163   Zn170   1.953   .     S
O164   Zn167   1.935   .     S
O165   Zn168   1.936   .     S
O166   Zn169   1.930   .     S
C171   C181    1.437   .     S
C171   O248    1.259   .     A
C171   O246    1.278   .     A
C172   C205    1.409   .     A
C172   H227    1.082   .     S
C172   C173    1.386   .     A
C173   H224    1.083   .     S
C173   C940    1.400   .     S
C174   O249    1.275   .     A
C174   C180    1.463   .     S
C174   O247    1.282   .     A
C175   C177    1.416   .     A
C175   C176    1.420   .     A
C175   C938    1.400   1_554 S
C176   C179    1.405   .     A
C176   C206    1.427   .     A
C177   C178    1.415   .     A
C177   O237    1.385   .     S
C178   C190    1.411   .     A
C178   C199    1.493   .     S
C179   C190    1.390   .     A
C179   H220    1.078   .     S
C180   C11     1.362   1_655 S
C180   C26     1.498   1_655 S
C182   O243    1.393   .     S
C182   C191    1.406   .     A
C182   C189    1.418   .     A
C183   H209    1.088   .     S
C183   C186    1.451   .     S
C183   C439    1.344   .     S
C184   C185    1.430   .     S
C184   C198    1.485   .     S
C184   C693    1.344   1_545 S
C185   O242    1.272   .     A
C185   O250    1.291   .     A
C186   O245    1.260   .     A
C186   O251    1.268   .     A
C187   O234    1.283   .     A
C187   C190    1.461   .     S
C187   O232    1.286   .     A
C188   O235    1.287   .     A
C188   O233    1.280   .     A
C188   C189    1.491   .     S
C189   C193    1.416   .     A
C191   H225    1.076   .     S
C191   C204    1.403   .     A
C192   C208    1.486   .     S
C192   O236    1.221   .     D
C192   H228    1.086   .     S
C193   C203    1.420   .     A
C193   C202    1.500   .     S
C194   O237    1.414   .     S
C194   H229    1.114   .     S
C194   C790    1.521   1_654 S
C194   H995    1.114   1_554 S
C195   H211    1.111   .     S
C195   H212    1.111   .     S
C195   H210    1.109   .     S
C195   C874    1.521   .     S
C196   H213    1.086   .     S
C196   O238    1.221   .     D
C197   H214    1.085   .     S
C197   O239    1.222   .     D
C197   C11     1.494   1_655 S
C198   H215    1.085   .     S
C198   O750    1.221   1_545 S
C199   H216    1.084   .     S
C199   O241    1.221   .     D
C200   H218    1.115   .     S
C200   C201    1.524   .     S
C200   H217    1.105   .     S
C200   O243    1.419   .     S
C201   H222    1.111   .     S
C201   H219    1.109   .     S
C201   H476    1.111   .     S
C202   O244    1.222   .     D
C202   H223    1.081   .     S
C203   C204    1.417   .     A
C203   C205    1.421   .     A
C204   C973    1.415   .     S
C205   C971    1.417   .     S
C206   C207    1.412   .     A
C206   C970    1.417   1_554 S
C207   H226    1.078   .     S
C207   C208    1.396   .     A
C208   C969    1.415   1_554 S
H221   C711    1.111   1_545 S
H230   C959    1.114   .     S
O231   Zn252   1.958   .     S
O231   Zn253   1.970   .     S
O231   Zn255   1.916   .     S
O231   Zn254   1.936   .     S
O232   Zn253   1.918   .     S
O233   Zn255   1.936   .     S
O234   Zn254   1.935   .     S
O235   Zn252   1.915   .     S
O240   C453    1.221   .     S
O242   Zn252   1.942   .     S
O245   Zn255   1.940   .     S
O246   Zn253   1.926   .     S
O247   Zn254   1.946   .     S
O248   Zn255   1.953   .     S
O249   Zn252   1.935   .     S
O250   Zn253   1.936   .     S
O251   Zn254   1.930   .     S
C256   C266    1.437   .     S
C256   O333    1.259   .     A
C256   O331    1.278   .     A
C257   C290    1.409   .     A
C257   H312    1.082   .     S
C257   C258    1.386   .     A
C258   H309    1.083   .     S
C258   C1025   1.400   .     S
C259   O334    1.275   .     A
C259   C265    1.463   .     S
C259   O332    1.282   .     A
C260   C262    1.416   .     A
C260   C261    1.420   .     A
C260   C1023   1.400   1_554 S
C261   C264    1.405   .     A
C261   C291    1.427   .     A
C262   C263    1.415   .     A
C262   O322    1.385   .     S
C263   C275    1.411   .     A
C263   C284    1.493   .     S
C264   C275    1.390   .     A
C264   H305    1.078   .     S
C265   C351    1.362   .     S
C265   C366    1.498   .     S
C266   C435    1.362   1_455 S
C266   C452    1.494   1_455 S
C267   O328    1.393   .     S
C267   C276    1.406   .     A
C267   C274    1.418   .     A
C268   H294    1.088   .     S
C268   C271    1.451   .     S
C268   C524    1.344   .     S
C269   C270    1.430   .     S
C269   C283    1.485   .     S
C270   O327    1.272   .     A
C270   O335    1.291   .     A
C271   O330    1.260   .     A
C271   O336    1.268   .     A
C272   O319    1.283   .     A
C272   C275    1.461   .     S
C272   O317    1.286   .     A
C273   O320    1.287   .     A
C273   O318    1.280   .     A
C273   C274    1.491   .     S
C274   C278    1.416   .     A
C276   H310    1.076   .     S
C276   C289    1.403   .     A
C277   C293    1.486   .     S
C277   O321    1.221   .     D
C277   H313    1.086   .     S
C278   C288    1.420   .     A
C278   C287    1.500   .     S
C279   O322    1.414   .     S
C279   H314    1.114   .     S
C279   C1130   1.521   1_554 S
C279   H1080   1.114   1_554 S
C280   H296    1.111   .     S
C280   H297    1.111   .     S
C280   H295    1.109   .     S
C280   C1214   1.521   1_455 S
C281   H298    1.086   .     S
C281   O323    1.221   .     D
C281   C435    1.498   1_455 S
C282   H299    1.085   .     S
C282   O324    1.222   .     D
C282   C351    1.494   .     S
C283   H300    1.085   .     S
C284   H301    1.084   .     S
C284   O326    1.221   .     D
C285   H303    1.115   .     S
C285   C286    1.524   .     S
C285   H302    1.105   .     S
C285   O328    1.419   .     S
C286   H307    1.111   .     S
C286   H304    1.109   .     S
C286   H561    1.111   .     S
C287   O329    1.222   .     D
C287   H308    1.081   .     S
C288   C289    1.417   .     A
C288   C290    1.421   .     A
C289   C1058   1.415   .     S
C290   C1056   1.417   .     S
C291   C292    1.412   .     A
C291   C1055   1.417   1_554 S
C292   H311    1.078   .     S
C292   C293    1.396   .     A
C293   C1054   1.415   1_554 S
H315   C1044   1.114   .     S
O316   Zn337   1.958   .     S
O316   Zn338   1.970   .     S
O316   Zn340   1.916   .     S
O316   Zn339   1.936   .     S
O317   Zn338   1.918   .     S
O318   Zn340   1.936   .     S
O319   Zn339   1.935   .     S
O320   Zn337   1.915   .     S
O325   C538    1.221   .     S
O327   Zn337   1.942   .     S
O330   Zn340   1.940   .     S
O331   Zn338   1.926   .     S
O332   Zn339   1.946   .     S
O333   Zn340   1.953   .     S
O334   Zn337   1.935   .     S
O335   Zn338   1.936   .     S
O336   Zn339   1.930   .     S
C341   C351    1.437   .     S
C341   O418    1.259   .     A
C341   O416    1.278   .     A
C342   C375    1.409   .     A
C342   H397    1.082   .     S
C342   C343    1.386   .     A
C343   H394    1.083   .     S
C343   C1110   1.400   .     S
C344   O419    1.275   .     A
C344   C350    1.463   .     S
C344   O417    1.282   .     A
C345   C347    1.416   .     A
C345   C346    1.420   .     A
C345   C1108   1.400   1_554 S
C346   C349    1.405   .     A
C346   C376    1.427   .     A
C347   C348    1.415   .     A
C347   O407    1.385   .     S
C348   C360    1.411   .     A
C348   C369    1.493   .     S
C349   C360    1.390   .     A
C349   H390    1.078   .     S
C350   C436    1.362   .     S
C350   C451    1.498   .     S
C352   O413    1.393   .     S
C352   C361    1.406   .     A
C352   C359    1.418   .     A
C353   H379    1.088   .     S
C353   C356    1.451   .     S
C353   C609    1.344   .     S
C354   C355    1.430   .     S
C354   C368    1.485   .     S
C355   O412    1.272   .     A
C355   O420    1.291   .     A
C356   O415    1.260   .     A
C356   O421    1.268   .     A
C357   O404    1.283   .     A
C357   C360    1.461   .     S
C357   O402    1.286   .     A
C358   O405    1.287   .     A
C358   O403    1.280   .     A
C358   C359    1.491   .     S
C359   C363    1.416   .     A
C361   H395    1.076   .     S
C361   C374    1.403   .     A
C362   C378    1.486   .     S
C362   O406    1.221   .     D
C362   H398    1.086   .     S
C363   C373    1.420   .     A
C363   C372    1.500   .     S
C364   O407    1.414   .     S
C364   H399    1.114   .     S
C364   C1215   1.521   1_554 S
C364   H1165   1.114   1_554 S
C365   H381    1.111   .     S
C365   H382    1.111   .     S
C365   H380    1.109   .     S
C365   C1044   1.521   .     S
C366   H383    1.086   .     S
C366   O408    1.221   .     D
C367   H384    1.085   .     S
C367   O409    1.222   .     D
C367   C436    1.494   .     S
C368   H385    1.085   .     S
C369   H386    1.084   .     S
C369   O411    1.221   .     D
C370   H388    1.115   .     S
C370   C371    1.524   .     S
C370   H387    1.105   .     S
C370   O413    1.419   .     S
C371   H392    1.111   .     S
C371   H389    1.109   .     S
C371   H646    1.111   .     S
C372   O414    1.222   .     D
C372   H393    1.081   .     S
C373   C374    1.417   .     A
C373   C375    1.421   .     A
C374   C1143   1.415   .     S
C375   C1141   1.417   .     S
C376   C377    1.412   .     A
C376   C1140   1.417   1_554 S
C377   H396    1.078   .     S
C377   C378    1.396   .     A
C378   C1139   1.415   1_554 S
H400   C1129   1.114   .     S
O401   Zn422   1.958   .     S
O401   Zn423   1.970   .     S
O401   Zn425   1.916   .     S
O401   Zn424   1.936   .     S
O402   Zn423   1.918   .     S
O403   Zn425   1.936   .     S
O404   Zn424   1.935   .     S
O405   Zn422   1.915   .     S
O410   C623    1.221   .     S
O412   Zn422   1.942   .     S
O415   Zn425   1.940   .     S
O416   Zn423   1.926   .     S
O417   Zn424   1.946   .     S
O418   Zn425   1.953   .     S
O419   Zn422   1.935   .     S
O420   Zn423   1.936   .     S
O421   Zn424   1.930   .     S
C426   C436    1.437   .     S
C426   O503    1.259   .     A
C426   O501    1.278   .     A
C427   C460    1.409   .     A
C427   H482    1.082   .     S
C427   C428    1.386   .     A
C428   H479    1.083   .     S
C428   C1195   1.400   .     S
C429   O504    1.275   .     A
C429   C435    1.463   .     S
C429   O502    1.282   .     A
C430   C432    1.416   .     A
C430   C431    1.420   .     A
C430   C1193   1.400   1_554 S
C431   C434    1.405   .     A
C431   C461    1.427   .     A
C432   C433    1.415   .     A
C432   O492    1.385   .     S
C433   C445    1.411   .     A
C433   C454    1.493   .     S
C434   C445    1.390   .     A
C434   H475    1.078   .     S
C435   C266    1.362   1_655 S
C435   C281    1.498   1_655 S
C437   O498    1.393   .     S
C437   C446    1.406   .     A
C437   C444    1.418   .     A
C438   H464    1.088   .     S
C438   C441    1.451   .     S
C438   C694    1.344   .     S
C439   C440    1.430   .     S
C439   C453    1.485   .     S
C440   O497    1.272   .     A
C440   O505    1.291   .     A
C441   O500    1.260   .     A
C441   O506    1.268   .     A
C442   O489    1.283   .     A
C442   C445    1.461   .     S
C442   O487    1.286   .     A
C443   O490    1.287   .     A
C443   O488    1.280   .     A
C443   C444    1.491   .     S
C444   C448    1.416   .     A
C446   H480    1.076   .     S
C446   C459    1.403   .     A
C447   C463    1.486   .     S
C447   O491    1.221   .     D
C447   H483    1.086   .     S
C448   C458    1.420   .     A
C448   C457    1.500   .     S
C449   O492    1.414   .     S
C449   H484    1.114   .     S
C449   C1045   1.521   1_654 S
C449   H1250   1.114   1_554 S
C450   H466    1.111   .     S
C450   H467    1.111   .     S
C450   H465    1.109   .     S
C450   C1129   1.521   .     S
C451   H468    1.086   .     S
C451   O493    1.221   .     D
C452   H469    1.085   .     S
C452   O494    1.222   .     D
C452   C266    1.494   1_655 S
C453   H470    1.085   .     S
C454   H471    1.084   .     S
C454   O496    1.221   .     D
C455   H473    1.115   .     S
C455   C456    1.524   .     S
C455   H472    1.105   .     S
C455   O498    1.419   .     S
C456   H477    1.111   .     S
C456   H474    1.109   .     S
C456   H731    1.111   .     S
C457   O499    1.222   .     D
C457   H478    1.081   .     S
C458   C459    1.417   .     A
C458   C460    1.421   .     A
C459   C1228   1.415   .     S
C460   C1226   1.417   .     S
C461   C462    1.412   .     A
C461   C1225   1.417   1_554 S
C462   H481    1.078   .     S
C462   C463    1.396   .     A
C463   C1224   1.415   1_554 S
H485   C1214   1.114   .     S
O486   Zn507   1.958   .     S
O486   Zn508   1.970   .     S
O486   Zn510   1.916   .     S
O486   Zn509   1.936   .     S
O487   Zn508   1.918   .     S
O488   Zn510   1.936   .     S
O489   Zn509   1.935   .     S
O490   Zn507   1.915   .     S
O495   C708    1.221   .     S
O497   Zn507   1.942   .     S
O500   Zn510   1.940   .     S
O501   Zn508   1.926   .     S
O502   Zn509   1.946   .     S
O503   Zn510   1.953   .     S
O504   Zn507   1.935   .     S
O505   Zn508   1.936   .     S
O506   Zn509   1.930   .     S
C511   C521    1.437   .     S
C511   O588    1.259   .     A
C511   O586    1.278   .     A
C512   C545    1.409   .     A
C512   H567    1.082   .     S
C512   C513    1.386   .     A
C513   H564    1.083   .     S
C513   C1280   1.400   .     S
C514   O589    1.275   .     A
C514   C520    1.463   .     S
C514   O587    1.282   .     A
C515   C517    1.416   .     A
C515   C516    1.420   .     A
C515   C1278   1.400   1_554 S
C516   C519    1.405   .     A
C516   C546    1.427   .     A
C517   C518    1.415   .     A
C517   O577    1.385   .     S
C518   C530    1.411   .     A
C518   C539    1.493   .     S
C519   C530    1.390   .     A
C519   H560    1.078   .     S
C520   C606    1.362   .     S
C520   C621    1.498   .     S
C521   C690    1.362   1_455 S
C521   C707    1.494   1_455 S
C522   O583    1.393   .     S
C522   C531    1.406   .     A
C522   C529    1.418   .     A
C523   H549    1.088   .     S
C523   C526    1.451   .     S
C523   C14     1.344   1_565 S
C524   C525    1.430   .     S
C524   C538    1.485   .     S
C525   O582    1.272   .     A
C525   O590    1.291   .     A
C526   O585    1.260   .     A
C526   O591    1.268   .     A
C527   O574    1.283   .     A
C527   C530    1.461   .     S
C527   O572    1.286   .     A
C528   O575    1.287   .     A
C528   O573    1.280   .     A
C528   C529    1.491   .     S
C529   C533    1.416   .     A
C531   H565    1.076   .     S
C531   C544    1.403   .     A
C532   C548    1.486   .     S
C532   O576    1.221   .     D
C532   H568    1.086   .     S
C533   C543    1.420   .     A
C533   C542    1.500   .     S
C534   O577    1.414   .     S
C534   H569    1.114   .     S
C534   C1385   1.521   1_554 S
C534   H1335   1.114   1_554 S
C535   H551    1.111   .     S
C535   H552    1.111   .     S
C535   H550    1.109   .     S
C535   C1469   1.521   1_455 S
C536   H553    1.086   .     S
C536   O578    1.221   .     D
C536   C690    1.498   1_455 S
C537   H554    1.085   .     S
C537   O579    1.222   .     D
C537   C606    1.494   .     S
C538   H555    1.085   .     S
C539   H556    1.084   .     S
C539   O581    1.221   .     D
C540   H558    1.115   .     S
C540   C541    1.524   .     S
C540   H557    1.105   .     S
C540   O583    1.419   .     S
C541   H562    1.111   .     S
C541   H559    1.109   .     S
C541   H51     1.111   1_565 S
C542   O584    1.222   .     D
C542   H563    1.081   .     S
C543   C544    1.417   .     A
C543   C545    1.421   .     A
C544   C1313   1.415   .     S
C545   C1311   1.417   .     S
C546   C547    1.412   .     A
C546   C1310   1.417   1_554 S
C547   H566    1.078   .     S
C547   C548    1.396   .     A
C548   C1309   1.415   1_554 S
H570   C1299   1.114   .     S
O571   Zn592   1.958   .     S
O571   Zn593   1.970   .     S
O571   Zn595   1.916   .     S
O571   Zn594   1.936   .     S
O572   Zn593   1.918   .     S
O573   Zn595   1.936   .     S
O574   Zn594   1.935   .     S
O575   Zn592   1.915   .     S
O580   C28     1.221   1_565 S
O582   Zn592   1.942   .     S
O585   Zn595   1.940   .     S
O586   Zn593   1.926   .     S
O587   Zn594   1.946   .     S
O588   Zn595   1.953   .     S
O589   Zn592   1.935   .     S
O590   Zn593   1.936   .     S
O591   Zn594   1.930   .     S
C596   C606    1.437   .     S
C596   O673    1.259   .     A
C596   O671    1.278   .     A
C597   C630    1.409   .     A
C597   H652    1.082   .     S
C597   C598    1.386   .     A
C598   H649    1.083   .     S
C598   C1365   1.400   .     S
C599   O674    1.275   .     A
C599   C605    1.463   .     S
C599   O672    1.282   .     A
C600   C602    1.416   .     A
C600   C601    1.420   .     A
C600   C1363   1.400   1_554 S
C601   C604    1.405   .     A
C601   C631    1.427   .     A
C602   C603    1.415   .     A
C602   O662    1.385   .     S
C603   C615    1.411   .     A
C603   C624    1.493   .     S
C604   C615    1.390   .     A
C604   H645    1.078   .     S
C605   C691    1.362   .     S
C605   C706    1.498   .     S
C607   O668    1.393   .     S
C607   C616    1.406   .     A
C607   C614    1.418   .     A
C608   H634    1.088   .     S
C608   C611    1.451   .     S
C608   C99     1.344   1_565 S
C609   C610    1.430   .     S
C609   C623    1.485   .     S
C610   O667    1.272   .     A
C610   O675    1.291   .     A
C611   O670    1.260   .     A
C611   O676    1.268   .     A
C612   O659    1.283   .     A
C612   C615    1.461   .     S
C612   O657    1.286   .     A
C613   O660    1.287   .     A
C613   O658    1.280   .     A
C613   C614    1.491   .     S
C614   C618    1.416   .     A
C616   H650    1.076   .     S
C616   C629    1.403   .     A
C617   C633    1.486   .     S
C617   O661    1.221   .     D
C617   H653    1.086   .     S
C618   C628    1.420   .     A
C618   C627    1.500   .     S
C619   O662    1.414   .     S
C619   H654    1.114   .     S
C619   C1470   1.521   1_554 S
C619   H1420   1.114   1_554 S
C620   H636    1.111   .     S
C620   H637    1.111   .     S
C620   H635    1.109   .     S
C620   C1299   1.521   .     S
C621   H638    1.086   .     S
C621   O663    1.221   .     D
C622   H639    1.085   .     S
C622   O664    1.222   .     D
C622   C691    1.494   .     S
C623   H640    1.085   .     S
C624   H641    1.084   .     S
C624   O666    1.221   .     D
C625   H643    1.115   .     S
C625   C626    1.524   .     S
C625   H642    1.105   .     S
C625   O668    1.419   .     S
C626   H647    1.111   .     S
C626   H644    1.109   .     S
C626   H136    1.111   1_565 S
C627   O669    1.222   .     D
C627   H648    1.081   .     S
C628   C629    1.417   .     A
C628   C630    1.421   .     A
C629   C1398   1.415   .     S
C630   C1396   1.417   .     S
C631   C632    1.412   .     A
C631   C1395   1.417   1_554 S
C632   H651    1.078   .     S
C632   C633    1.396   .     A
C633   C1394   1.415   1_554 S
H655   C1384   1.114   .     S
O656   Zn677   1.958   .     S
O656   Zn678   1.970   .     S
O656   Zn680   1.916   .     S
O656   Zn679   1.936   .     S
O657   Zn678   1.918   .     S
O658   Zn680   1.936   .     S
O659   Zn679   1.935   .     S
O660   Zn677   1.915   .     S
O665   C113    1.221   1_565 S
O667   Zn677   1.942   .     S
O670   Zn680   1.940   .     S
O671   Zn678   1.926   .     S
O672   Zn679   1.946   .     S
O673   Zn680   1.953   .     S
O674   Zn677   1.935   .     S
O675   Zn678   1.936   .     S
O676   Zn679   1.930   .     S
C681   C691    1.437   .     S
C681   O758    1.259   .     A
C681   O756    1.278   .     A
C682   C715    1.409   .     A
C682   H737    1.082   .     S
C682   C683    1.386   .     A
C683   H734    1.083   .     S
C683   C1450   1.400   .     S
C684   O759    1.275   .     A
C684   C690    1.463   .     S
C684   O757    1.282   .     A
C685   C687    1.416   .     A
C685   C686    1.420   .     A
C685   C1448   1.400   1_554 S
C686   C689    1.405   .     A
C686   C716    1.427   .     A
C687   C688    1.415   .     A
C687   O747    1.385   .     S
C688   C700    1.411   .     A
C688   C709    1.493   .     S
C689   C700    1.390   .     A
C689   H730    1.078   .     S
C690   C521    1.362   1_655 S
C690   C536    1.498   1_655 S
C692   O753    1.393   .     S
C692   C701    1.406   .     A
C692   C699    1.418   .     A
C693   H719    1.088   .     S
C693   C696    1.451   .     S
C693   C184    1.344   1_565 S
C694   C695    1.430   .     S
C694   C708    1.485   .     S
C695   O752    1.272   .     A
C695   O760    1.291   .     A
C696   O755    1.260   .     A
C696   O761    1.268   .     A
C697   O744    1.283   .     A
C697   C700    1.461   .     S
C697   O742    1.286   .     A
C698   O745    1.287   .     A
C698   O743    1.280   .     A
C698   C699    1.491   .     S
C699   C703    1.416   .     A
C701   H735    1.076   .     S
C701   C714    1.403   .     A
C702   C718    1.486   .     S
C702   O746    1.221   .     D
C702   H738    1.086   .     S
C703   C713    1.420   .     A
C703   C712    1.500   .     S
C704   O747    1.414   .     S
C704   H739    1.114   .     S
C704   C1300   1.521   1_654 S
C704   H1505   1.114   1_554 S
C705   H721    1.111   .     S
C705   H722    1.111   .     S
C705   H720    1.109   .     S
C705   C1384   1.521   .     S
C706   H723    1.086   .     S
C706   O748    1.221   .     D
C707   H724    1.085   .     S
C707   O749    1.222   .     D
C707   C521    1.494   1_655 S
C708   H725    1.085   .     S
C709   H726    1.084   .     S
C709   O751    1.221   .     D
C710   H728    1.115   .     S
C710   C711    1.524   .     S
C710   H727    1.105   .     S
C710   O753    1.419   .     S
C711   H732    1.111   .     S
C711   H729    1.109   .     S
C711   H221    1.111   1_565 S
C712   O754    1.222   .     D
C712   H733    1.081   .     S
C713   C714    1.417   .     A
C713   C715    1.421   .     A
C714   C1483   1.415   .     S
C715   C1481   1.417   .     S
C716   C717    1.412   .     A
C716   C1480   1.417   1_554 S
C717   H736    1.078   .     S
C717   C718    1.396   .     A
C718   C1479   1.415   1_554 S
H740   C1469   1.114   .     S
O741   Zn762   1.958   .     S
O741   Zn763   1.970   .     S
O741   Zn765   1.916   .     S
O741   Zn764   1.936   .     S
O742   Zn763   1.918   .     S
O743   Zn765   1.936   .     S
O744   Zn764   1.935   .     S
O745   Zn762   1.915   .     S
O750   C198    1.221   1_565 S
O752   Zn762   1.942   .     S
O755   Zn765   1.940   .     S
O756   Zn763   1.926   .     S
O757   Zn764   1.946   .     S
O758   Zn765   1.953   .     S
O759   Zn762   1.935   .     S
O760   Zn763   1.936   .     S
O761   Zn764   1.930   .     S
C766   C776    1.437   .     S
C766   O843    1.259   .     A
C766   O841    1.278   .     A
C767   C800    1.409   .     A
C767   H822    1.082   .     S
C767   C768    1.386   .     A
C768   H819    1.083   .     S
C768   C5      1.400   1_556 S
C769   O844    1.275   .     A
C769   C775    1.463   .     S
C769   O842    1.282   .     A
C770   C772    1.416   .     A
C770   C771    1.420   .     A
C771   C774    1.405   .     A
C771   C801    1.427   .     A
C772   C773    1.415   .     A
C772   O832    1.385   .     S
C773   C785    1.411   .     A
C773   C794    1.493   .     S
C774   C785    1.390   .     A
C774   H815    1.078   .     S
C775   C861    1.362   .     S
C775   C876    1.498   .     S
C776   C945    1.362   1_455 S
C776   C962    1.494   1_455 S
C777   O838    1.393   .     S
C777   C786    1.406   .     A
C777   C784    1.418   .     A
C778   H804    1.088   .     S
C778   C781    1.451   .     S
C778   C1034   1.344   .     S
C779   C780    1.430   .     S
C779   C793    1.485   .     S
C779   C1288   1.344   1_545 S
C780   O837    1.272   .     A
C780   O845    1.291   .     A
C781   O840    1.260   .     A
C781   O846    1.268   .     A
C782   O829    1.283   .     A
C782   C785    1.461   .     S
C782   O827    1.286   .     A
C783   O830    1.287   .     A
C783   O828    1.280   .     A
C783   C784    1.491   .     S
C784   C788    1.416   .     A
C786   H820    1.076   .     S
C786   C799    1.403   .     A
C787   C803    1.486   .     S
C787   O831    1.221   .     D
C787   H823    1.086   .     S
C788   C798    1.420   .     A
C788   C797    1.500   .     S
C789   O832    1.414   .     S
C789   H824    1.114   .     S
C790   H806    1.111   .     S
C790   H807    1.111   .     S
C790   H805    1.109   .     S
C790   C194    1.521   1_456 S
C791   H808    1.086   .     S
C791   O833    1.221   .     D
C791   C945    1.498   1_455 S
C792   H809    1.085   .     S
C792   O834    1.222   .     D
C792   C861    1.494   .     S
C793   H810    1.085   .     S
C793   O1345   1.221   1_545 S
C794   H811    1.084   .     S
C794   O836    1.221   .     D
C795   H813    1.115   .     S
C795   C796    1.524   .     S
C795   H812    1.105   .     S
C795   O838    1.419   .     S
C796   H817    1.111   .     S
C796   H814    1.109   .     S
C796   H1071   1.111   .     S
C797   O839    1.222   .     D
C797   H818    1.081   .     S
C798   C799    1.417   .     A
C798   C800    1.421   .     A
C799   C38     1.415   1_556 S
C800   C36     1.417   1_556 S
C801   C802    1.412   .     A
C802   H821    1.078   .     S
C802   C803    1.396   .     A
H816   C1306   1.111   1_545 S
H825   C24     1.114   1_556 S
O826   Zn847   1.958   .     S
O826   Zn848   1.970   .     S
O826   Zn850   1.916   .     S
O826   Zn849   1.936   .     S
O827   Zn848   1.918   .     S
O828   Zn850   1.936   .     S
O829   Zn849   1.935   .     S
O830   Zn847   1.915   .     S
O835   C1048   1.221   .     S
O837   Zn847   1.942   .     S
O840   Zn850   1.940   .     S
O841   Zn848   1.926   .     S
O842   Zn849   1.946   .     S
O843   Zn850   1.953   .     S
O844   Zn847   1.935   .     S
O845   Zn848   1.936   .     S
O846   Zn849   1.930   .     S
C851   C861    1.437   .     S
C851   O928    1.259   .     A
C851   O926    1.278   .     A
C852   C885    1.409   .     A
C852   H907    1.082   .     S
C852   C853    1.386   .     A
C853   H904    1.083   .     S
C853   C90     1.400   1_556 S
C854   O929    1.275   .     A
C854   C860    1.463   .     S
C854   O927    1.282   .     A
C855   C857    1.416   .     A
C855   C856    1.420   .     A
C856   C859    1.405   .     A
C856   C886    1.427   .     A
C857   C858    1.415   .     A
C857   O917    1.385   .     S
C858   C870    1.411   .     A
C858   C879    1.493   .     S
C859   C870    1.390   .     A
C859   H900    1.078   .     S
C860   C946    1.362   .     S
C860   C961    1.498   .     S
C862   O923    1.393   .     S
C862   C871    1.406   .     A
C862   C869    1.418   .     A
C863   H889    1.088   .     S
C863   C866    1.451   .     S
C863   C1119   1.344   .     S
C864   C865    1.430   .     S
C864   C878    1.485   .     S
C864   C1373   1.344   1_545 S
C865   O922    1.272   .     A
C865   O930    1.291   .     A
C866   O925    1.260   .     A
C866   O931    1.268   .     A
C867   O914    1.283   .     A
C867   C870    1.461   .     S
C867   O912    1.286   .     A
C868   O915    1.287   .     A
C868   O913    1.280   .     A
C868   C869    1.491   .     S
C869   C873    1.416   .     A
C871   H905    1.076   .     S
C871   C884    1.403   .     A
C872   C888    1.486   .     S
C872   O916    1.221   .     D
C872   H908    1.086   .     S
C873   C883    1.420   .     A
C873   C882    1.500   .     S
C874   O917    1.414   .     S
C874   H909    1.114   .     S
C875   H891    1.111   .     S
C875   H892    1.111   .     S
C875   H890    1.109   .     S
C875   C24     1.521   1_556 S
C876   H893    1.086   .     S
C876   O918    1.221   .     D
C877   H894    1.085   .     S
C877   O919    1.222   .     D
C877   C946    1.494   .     S
C878   H895    1.085   .     S
C878   O1430   1.221   1_545 S
C879   H896    1.084   .     S
C879   O921    1.221   .     D
C880   H898    1.115   .     S
C880   C881    1.524   .     S
C880   H897    1.105   .     S
C880   O923    1.419   .     S
C881   H902    1.111   .     S
C881   H899    1.109   .     S
C881   H1156   1.111   .     S
C882   O924    1.222   .     D
C882   H903    1.081   .     S
C883   C884    1.417   .     A
C883   C885    1.421   .     A
C884   C123    1.415   1_556 S
C885   C121    1.417   1_556 S
C886   C887    1.412   .     A
C887   H906    1.078   .     S
C887   C888    1.396   .     A
H901   C1391   1.111   1_545 S
H910   C109    1.114   1_556 S
O911   Zn932   1.958   .     S
O911   Zn933   1.970   .     S
O911   Zn935   1.916   .     S
O911   Zn934   1.936   .     S
O912   Zn933   1.918   .     S
O913   Zn935   1.936   .     S
O914   Zn934   1.935   .     S
O915   Zn932   1.915   .     S
O920   C1133   1.221   .     S
O922   Zn932   1.942   .     S
O925   Zn935   1.940   .     S
O926   Zn933   1.926   .     S
O927   Zn934   1.946   .     S
O928   Zn935   1.953   .     S
O929   Zn932   1.935   .     S
O930   Zn933   1.936   .     S
O931   Zn934   1.930   .     S
C936   C946    1.437   .     S
C936   O1013   1.259   .     A
C936   O1011   1.278   .     A
C937   C970    1.409   .     A
C937   H992    1.082   .     S
C937   C938    1.386   .     A
C938   H989    1.083   .     S
C938   C175    1.400   1_556 S
C939   O1014   1.275   .     A
C939   C945    1.463   .     S
C939   O1012   1.282   .     A
C940   C942    1.416   .     A
C940   C941    1.420   .     A
C941   C944    1.405   .     A
C941   C971    1.427   .     A
C942   C943    1.415   .     A
C942   O1002   1.385   .     S
C943   C955    1.411   .     A
C943   C964    1.493   .     S
C944   C955    1.390   .     A
C944   H985    1.078   .     S
C945   C776    1.362   1_655 S
C945   C791    1.498   1_655 S
C947   O1008   1.393   .     S
C947   C956    1.406   .     A
C947   C954    1.418   .     A
C948   H974    1.088   .     S
C948   C951    1.451   .     S
C948   C1204   1.344   .     S
C949   C950    1.430   .     S
C949   C963    1.485   .     S
C949   C1458   1.344   1_545 S
C950   O1007   1.272   .     A
C950   O1015   1.291   .     A
C951   O1010   1.260   .     A
C951   O1016   1.268   .     A
C952   O999    1.283   .     A
C952   C955    1.461   .     S
C952   O997    1.286   .     A
C953   O1000   1.287   .     A
C953   O998    1.280   .     A
C953   C954    1.491   .     S
C954   C958    1.416   .     A
C956   H990    1.076   .     S
C956   C969    1.403   .     A
C957   C973    1.486   .     S
C957   O1001   1.221   .     D
C957   H993    1.086   .     S
C958   C968    1.420   .     A
C958   C967    1.500   .     S
C959   O1002   1.414   .     S
C959   H994    1.114   .     S
C959   C25     1.521   1_655 S
C960   H976    1.111   .     S
C960   H977    1.111   .     S
C960   H975    1.109   .     S
C960   C109    1.521   1_556 S
C961   H978    1.086   .     S
C961   O1003   1.221   .     D
C962   H979    1.085   .     S
C962   O1004   1.222   .     D
C962   C776    1.494   1_655 S
C963   H980    1.085   .     S
C963   O1515   1.221   1_545 S
C964   H981    1.084   .     S
C964   O1006   1.221   .     D
C965   H983    1.115   .     S
C965   C966    1.524   .     S
C965   H982    1.105   .     S
C965   O1008   1.419   .     S
C966   H987    1.111   .     S
C966   H984    1.109   .     S
C966   H1241   1.111   .     S
C967   O1009   1.222   .     D
C967   H988    1.081   .     S
C968   C969    1.417   .     A
C968   C970    1.421   .     A
C969   C208    1.415   1_556 S
C970   C206    1.417   1_556 S
C971   C972    1.412   .     A
C972   H991    1.078   .     S
C972   C973    1.396   .     A
H986   C1476   1.111   1_545 S
H995   C194    1.114   1_556 S
O996   Zn1017  1.958   .     S
O996   Zn1018  1.970   .     S
O996   Zn1020  1.916   .     S
O996   Zn1019  1.936   .     S
O997   Zn1018  1.918   .     S
O998   Zn1020  1.936   .     S
O999   Zn1019  1.935   .     S
O1000  Zn1017  1.915   .     S
O1005  C1218   1.221   .     S
O1007  Zn1017  1.942   .     S
O1010  Zn1020  1.940   .     S
O1011  Zn1018  1.926   .     S
O1012  Zn1019  1.946   .     S
O1013  Zn1020  1.953   .     S
O1014  Zn1017  1.935   .     S
O1015  Zn1018  1.936   .     S
O1016  Zn1019  1.930   .     S
C1021  C1031   1.437   .     S
C1021  O1098   1.259   .     A
C1021  O1096   1.278   .     A
C1022  C1055   1.409   .     A
C1022  H1077   1.082   .     S
C1022  C1023   1.386   .     A
C1023  H1074   1.083   .     S
C1023  C260    1.400   1_556 S
C1024  O1099   1.275   .     A
C1024  C1030   1.463   .     S
C1024  O1097   1.282   .     A
C1025  C1027   1.416   .     A
C1025  C1026   1.420   .     A
C1026  C1029   1.405   .     A
C1026  C1056   1.427   .     A
C1027  C1028   1.415   .     A
C1027  O1087   1.385   .     S
C1028  C1040   1.411   .     A
C1028  C1049   1.493   .     S
C1029  C1040   1.390   .     A
C1029  H1070   1.078   .     S
C1030  C1116   1.362   .     S
C1030  C1131   1.498   .     S
C1031  C1200   1.362   1_455 S
C1031  C1217   1.494   1_455 S
C1032  O1093   1.393   .     S
C1032  C1041   1.406   .     A
C1032  C1039   1.418   .     A
C1033  H1059   1.088   .     S
C1033  C1036   1.451   .     S
C1033  C1289   1.344   .     S
C1034  C1035   1.430   .     S
C1034  C1048   1.485   .     S
C1035  O1092   1.272   .     A
C1035  O1100   1.291   .     A
C1036  O1095   1.260   .     A
C1036  O1101   1.268   .     A
C1037  O1084   1.283   .     A
C1037  C1040   1.461   .     S
C1037  O1082   1.286   .     A
C1038  O1085   1.287   .     A
C1038  O1083   1.280   .     A
C1038  C1039   1.491   .     S
C1039  C1043   1.416   .     A
C1041  H1075   1.076   .     S
C1041  C1054   1.403   .     A
C1042  C1058   1.486   .     S
C1042  O1086   1.221   .     D
C1042  H1078   1.086   .     S
C1043  C1053   1.420   .     A
C1043  C1052   1.500   .     S
C1044  O1087   1.414   .     S
C1044  H1079   1.114   .     S
C1045  H1061   1.111   .     S
C1045  H1062   1.111   .     S
C1045  H1060   1.109   .     S
C1045  C449    1.521   1_456 S
C1046  H1063   1.086   .     S
C1046  O1088   1.221   .     D
C1046  C1200   1.498   1_455 S
C1047  H1064   1.085   .     S
C1047  O1089   1.222   .     D
C1047  C1116   1.494   .     S
C1048  H1065   1.085   .     S
C1049  H1066   1.084   .     S
C1049  O1091   1.221   .     D
C1050  H1068   1.115   .     S
C1050  C1051   1.524   .     S
C1050  H1067   1.105   .     S
C1050  O1093   1.419   .     S
C1051  H1072   1.111   .     S
C1051  H1069   1.109   .     S
C1051  H1326   1.111   .     S
C1052  O1094   1.222   .     D
C1052  H1073   1.081   .     S
C1053  C1054   1.417   .     A
C1053  C1055   1.421   .     A
C1054  C293    1.415   1_556 S
C1055  C291    1.417   1_556 S
C1056  C1057   1.412   .     A
C1057  H1076   1.078   .     S
C1057  C1058   1.396   .     A
H1080  C279    1.114   1_556 S
O1081  Zn1102  1.958   .     S
O1081  Zn1103  1.970   .     S
O1081  Zn1105  1.916   .     S
O1081  Zn1104  1.936   .     S
O1082  Zn1103  1.918   .     S
O1083  Zn1105  1.936   .     S
O1084  Zn1104  1.935   .     S
O1085  Zn1102  1.915   .     S
O1090  C1303   1.221   .     S
O1092  Zn1102  1.942   .     S
O1095  Zn1105  1.940   .     S
O1096  Zn1103  1.926   .     S
O1097  Zn1104  1.946   .     S
O1098  Zn1105  1.953   .     S
O1099  Zn1102  1.935   .     S
O1100  Zn1103  1.936   .     S
O1101  Zn1104  1.930   .     S
C1106  C1116   1.437   .     S
C1106  O1183   1.259   .     A
C1106  O1181   1.278   .     A
C1107  C1140   1.409   .     A
C1107  H1162   1.082   .     S
C1107  C1108   1.386   .     A
C1108  H1159   1.083   .     S
C1108  C345    1.400   1_556 S
C1109  O1184   1.275   .     A
C1109  C1115   1.463   .     S
C1109  O1182   1.282   .     A
C1110  C1112   1.416   .     A
C1110  C1111   1.420   .     A
C1111  C1114   1.405   .     A
C1111  C1141   1.427   .     A
C1112  C1113   1.415   .     A
C1112  O1172   1.385   .     S
C1113  C1125   1.411   .     A
C1113  C1134   1.493   .     S
C1114  C1125   1.390   .     A
C1114  H1155   1.078   .     S
C1115  C1201   1.362   .     S
C1115  C1216   1.498   .     S
C1117  O1178   1.393   .     S
C1117  C1126   1.406   .     A
C1117  C1124   1.418   .     A
C1118  H1144   1.088   .     S
C1118  C1121   1.451   .     S
C1118  C1374   1.344   .     S
C1119  C1120   1.430   .     S
C1119  C1133   1.485   .     S
C1120  O1177   1.272   .     A
C1120  O1185   1.291   .     A
C1121  O1180   1.260   .     A
C1121  O1186   1.268   .     A
C1122  O1169   1.283   .     A
C1122  C1125   1.461   .     S
C1122  O1167   1.286   .     A
C1123  O1170   1.287   .     A
C1123  O1168   1.280   .     A
C1123  C1124   1.491   .     S
C1124  C1128   1.416   .     A
C1126  H1160   1.076   .     S
C1126  C1139   1.403   .     A
C1127  C1143   1.486   .     S
C1127  O1171   1.221   .     D
C1127  H1163   1.086   .     S
C1128  C1138   1.420   .     A
C1128  C1137   1.500   .     S
C1129  O1172   1.414   .     S
C1129  H1164   1.114   .     S
C1130  H1146   1.111   .     S
C1130  H1147   1.111   .     S
C1130  H1145   1.109   .     S
C1130  C279    1.521   1_556 S
C1131  H1148   1.086   .     S
C1131  O1173   1.221   .     D
C1132  H1149   1.085   .     S
C1132  O1174   1.222   .     D
C1132  C1201   1.494   .     S
C1133  H1150   1.085   .     S
C1134  H1151   1.084   .     S
C1134  O1176   1.221   .     D
C1135  H1153   1.115   .     S
C1135  C1136   1.524   .     S
C1135  H1152   1.105   .     S
C1135  O1178   1.419   .     S
C1136  H1157   1.111   .     S
C1136  H1154   1.109   .     S
C1136  H1411   1.111   .     S
C1137  O1179   1.222   .     D
C1137  H1158   1.081   .     S
C1138  C1139   1.417   .     A
C1138  C1140   1.421   .     A
C1139  C378    1.415   1_556 S
C1140  C376    1.417   1_556 S
C1141  C1142   1.412   .     A
C1142  H1161   1.078   .     S
C1142  C1143   1.396   .     A
H1165  C364    1.114   1_556 S
O1166  Zn1187  1.958   .     S
O1166  Zn1188  1.970   .     S
O1166  Zn1190  1.916   .     S
O1166  Zn1189  1.936   .     S
O1167  Zn1188  1.918   .     S
O1168  Zn1190  1.936   .     S
O1169  Zn1189  1.935   .     S
O1170  Zn1187  1.915   .     S
O1175  C1388   1.221   .     S
O1177  Zn1187  1.942   .     S
O1180  Zn1190  1.940   .     S
O1181  Zn1188  1.926   .     S
O1182  Zn1189  1.946   .     S
O1183  Zn1190  1.953   .     S
O1184  Zn1187  1.935   .     S
O1185  Zn1188  1.936   .     S
O1186  Zn1189  1.930   .     S
C1191  C1201   1.437   .     S
C1191  O1268   1.259   .     A
C1191  O1266   1.278   .     A
C1192  C1225   1.409   .     A
C1192  H1247   1.082   .     S
C1192  C1193   1.386   .     A
C1193  H1244   1.083   .     S
C1193  C430    1.400   1_556 S
C1194  O1269   1.275   .     A
C1194  C1200   1.463   .     S
C1194  O1267   1.282   .     A
C1195  C1197   1.416   .     A
C1195  C1196   1.420   .     A
C1196  C1199   1.405   .     A
C1196  C1226   1.427   .     A
C1197  C1198   1.415   .     A
C1197  O1257   1.385   .     S
C1198  C1210   1.411   .     A
C1198  C1219   1.493   .     S
C1199  C1210   1.390   .     A
C1199  H1240   1.078   .     S
C1200  C1031   1.362   1_655 S
C1200  C1046   1.498   1_655 S
C1202  O1263   1.393   .     S
C1202  C1211   1.406   .     A
C1202  C1209   1.418   .     A
C1203  H1229   1.088   .     S
C1203  C1206   1.451   .     S
C1203  C1459   1.344   .     S
C1204  C1205   1.430   .     S
C1204  C1218   1.485   .     S
C1205  O1262   1.272   .     A
C1205  O1270   1.291   .     A
C1206  O1265   1.260   .     A
C1206  O1271   1.268   .     A
C1207  O1254   1.283   .     A
C1207  C1210   1.461   .     S
C1207  O1252   1.286   .     A
C1208  O1255   1.287   .     A
C1208  O1253   1.280   .     A
C1208  C1209   1.491   .     S
C1209  C1213   1.416   .     A
C1211  H1245   1.076   .     S
C1211  C1224   1.403   .     A
C1212  C1228   1.486   .     S
C1212  O1256   1.221   .     D
C1212  H1248   1.086   .     S
C1213  C1223   1.420   .     A
C1213  C1222   1.500   .     S
C1214  O1257   1.414   .     S
C1214  H1249   1.114   .     S
C1214  C280    1.521   1_655 S
C1215  H1231   1.111   .     S
C1215  H1232   1.111   .     S
C1215  H1230   1.109   .     S
C1215  C364    1.521   1_556 S
C1216  H1233   1.086   .     S
C1216  O1258   1.221   .     D
C1217  H1234   1.085   .     S
C1217  O1259   1.222   .     D
C1217  C1031   1.494   1_655 S
C1218  H1235   1.085   .     S
C1219  H1236   1.084   .     S
C1219  O1261   1.221   .     D
C1220  H1238   1.115   .     S
C1220  C1221   1.524   .     S
C1220  H1237   1.105   .     S
C1220  O1263   1.419   .     S
C1221  H1242   1.111   .     S
C1221  H1239   1.109   .     S
C1221  H1496   1.111   .     S
C1222  O1264   1.222   .     D
C1222  H1243   1.081   .     S
C1223  C1224   1.417   .     A
C1223  C1225   1.421   .     A
C1224  C463    1.415   1_556 S
C1225  C461    1.417   1_556 S
C1226  C1227   1.412   .     A
C1227  H1246   1.078   .     S
C1227  C1228   1.396   .     A
H1250  C449    1.114   1_556 S
O1251  Zn1272  1.958   .     S
O1251  Zn1273  1.970   .     S
O1251  Zn1275  1.916   .     S
O1251  Zn1274  1.936   .     S
O1252  Zn1273  1.918   .     S
O1253  Zn1275  1.936   .     S
O1254  Zn1274  1.935   .     S
O1255  Zn1272  1.915   .     S
O1260  C1473   1.221   .     S
O1262  Zn1272  1.942   .     S
O1265  Zn1275  1.940   .     S
O1266  Zn1273  1.926   .     S
O1267  Zn1274  1.946   .     S
O1268  Zn1275  1.953   .     S
O1269  Zn1272  1.935   .     S
O1270  Zn1273  1.936   .     S
O1271  Zn1274  1.930   .     S
C1276  C1286   1.437   .     S
C1276  O1353   1.259   .     A
C1276  O1351   1.278   .     A
C1277  C1310   1.409   .     A
C1277  H1332   1.082   .     S
C1277  C1278   1.386   .     A
C1278  H1329   1.083   .     S
C1278  C515    1.400   1_556 S
C1279  O1354   1.275   .     A
C1279  C1285   1.463   .     S
C1279  O1352   1.282   .     A
C1280  C1282   1.416   .     A
C1280  C1281   1.420   .     A
C1281  C1284   1.405   .     A
C1281  C1311   1.427   .     A
C1282  C1283   1.415   .     A
C1282  O1342   1.385   .     S
C1283  C1295   1.411   .     A
C1283  C1304   1.493   .     S
C1284  C1295   1.390   .     A
C1284  H1325   1.078   .     S
C1285  C1371   1.362   .     S
C1285  C1386   1.498   .     S
C1286  C1455   1.362   1_455 S
C1286  C1472   1.494   1_455 S
C1287  O1348   1.393   .     S
C1287  C1296   1.406   .     A
C1287  C1294   1.418   .     A
C1288  H1314   1.088   .     S
C1288  C1291   1.451   .     S
C1288  C779    1.344   1_565 S
C1289  C1290   1.430   .     S
C1289  C1303   1.485   .     S
C1290  O1347   1.272   .     A
C1290  O1355   1.291   .     A
C1291  O1350   1.260   .     A
C1291  O1356   1.268   .     A
C1292  O1339   1.283   .     A
C1292  C1295   1.461   .     S
C1292  O1337   1.286   .     A
C1293  O1340   1.287   .     A
C1293  O1338   1.280   .     A
C1293  C1294   1.491   .     S
C1294  C1298   1.416   .     A
C1296  H1330   1.076   .     S
C1296  C1309   1.403   .     A
C1297  C1313   1.486   .     S
C1297  O1341   1.221   .     D
C1297  H1333   1.086   .     S
C1298  C1308   1.420   .     A
C1298  C1307   1.500   .     S
C1299  O1342   1.414   .     S
C1299  H1334   1.114   .     S
C1300  H1316   1.111   .     S
C1300  H1317   1.111   .     S
C1300  H1315   1.109   .     S
C1300  C704    1.521   1_456 S
C1301  H1318   1.086   .     S
C1301  O1343   1.221   .     D
C1301  C1455   1.498   1_455 S
C1302  H1319   1.085   .     S
C1302  O1344   1.222   .     D
C1302  C1371   1.494   .     S
C1303  H1320   1.085   .     S
C1304  H1321   1.084   .     S
C1304  O1346   1.221   .     D
C1305  H1323   1.115   .     S
C1305  C1306   1.524   .     S
C1305  H1322   1.105   .     S
C1305  O1348   1.419   .     S
C1306  H1327   1.111   .     S
C1306  H1324   1.109   .     S
C1306  H816    1.111   1_565 S
C1307  O1349   1.222   .     D
C1307  H1328   1.081   .     S
C1308  C1309   1.417   .     A
C1308  C1310   1.421   .     A
C1309  C548    1.415   1_556 S
C1310  C546    1.417   1_556 S
C1311  C1312   1.412   .     A
C1312  H1331   1.078   .     S
C1312  C1313   1.396   .     A
H1335  C534    1.114   1_556 S
O1336  Zn1357  1.958   .     S
O1336  Zn1358  1.970   .     S
O1336  Zn1360  1.916   .     S
O1336  Zn1359  1.936   .     S
O1337  Zn1358  1.918   .     S
O1338  Zn1360  1.936   .     S
O1339  Zn1359  1.935   .     S
O1340  Zn1357  1.915   .     S
O1345  C793    1.221   1_565 S
O1347  Zn1357  1.942   .     S
O1350  Zn1360  1.940   .     S
O1351  Zn1358  1.926   .     S
O1352  Zn1359  1.946   .     S
O1353  Zn1360  1.953   .     S
O1354  Zn1357  1.935   .     S
O1355  Zn1358  1.936   .     S
O1356  Zn1359  1.930   .     S
C1361  C1371   1.437   .     S
C1361  O1438   1.259   .     A
C1361  O1436   1.278   .     A
C1362  C1395   1.409   .     A
C1362  H1417   1.082   .     S
C1362  C1363   1.386   .     A
C1363  H1414   1.083   .     S
C1363  C600    1.400   1_556 S
C1364  O1439   1.275   .     A
C1364  C1370   1.463   .     S
C1364  O1437   1.282   .     A
C1365  C1367   1.416   .     A
C1365  C1366   1.420   .     A
C1366  C1369   1.405   .     A
C1366  C1396   1.427   .     A
C1367  C1368   1.415   .     A
C1367  O1427   1.385   .     S
C1368  C1380   1.411   .     A
C1368  C1389   1.493   .     S
C1369  C1380   1.390   .     A
C1369  H1410   1.078   .     S
C1370  C1456   1.362   .     S
C1370  C1471   1.498   .     S
C1372  O1433   1.393   .     S
C1372  C1381   1.406   .     A
C1372  C1379   1.418   .     A
C1373  H1399   1.088   .     S
C1373  C1376   1.451   .     S
C1373  C864    1.344   1_565 S
C1374  C1375   1.430   .     S
C1374  C1388   1.485   .     S
C1375  O1432   1.272   .     A
C1375  O1440   1.291   .     A
C1376  O1435   1.260   .     A
C1376  O1441   1.268   .     A
C1377  O1424   1.283   .     A
C1377  C1380   1.461   .     S
C1377  O1422   1.286   .     A
C1378  O1425   1.287   .     A
C1378  O1423   1.280   .     A
C1378  C1379   1.491   .     S
C1379  C1383   1.416   .     A
C1381  H1415   1.076   .     S
C1381  C1394   1.403   .     A
C1382  C1398   1.486   .     S
C1382  O1426   1.221   .     D
C1382  H1418   1.086   .     S
C1383  C1393   1.420   .     A
C1383  C1392   1.500   .     S
C1384  O1427   1.414   .     S
C1384  H1419   1.114   .     S
C1385  H1401   1.111   .     S
C1385  H1402   1.111   .     S
C1385  H1400   1.109   .     S
C1385  C534    1.521   1_556 S
C1386  H1403   1.086   .     S
C1386  O1428   1.221   .     D
C1387  H1404   1.085   .     S
C1387  O1429   1.222   .     D
C1387  C1456   1.494   .     S
C1388  H1405   1.085   .     S
C1389  H1406   1.084   .     S
C1389  O1431   1.221   .     D
C1390  H1408   1.115   .     S
C1390  C1391   1.524   .     S
C1390  H1407   1.105   .     S
C1390  O1433   1.419   .     S
C1391  H1412   1.111   .     S
C1391  H1409   1.109   .     S
C1391  H901    1.111   1_565 S
C1392  O1434   1.222   .     D
C1392  H1413   1.081   .     S
C1393  C1394   1.417   .     A
C1393  C1395   1.421   .     A
C1394  C633    1.415   1_556 S
C1395  C631    1.417   1_556 S
C1396  C1397   1.412   .     A
C1397  H1416   1.078   .     S
C1397  C1398   1.396   .     A
H1420  C619    1.114   1_556 S
O1421  Zn1442  1.958   .     S
O1421  Zn1443  1.970   .     S
O1421  Zn1445  1.916   .     S
O1421  Zn1444  1.936   .     S
O1422  Zn1443  1.918   .     S
O1423  Zn1445  1.936   .     S
O1424  Zn1444  1.935   .     S
O1425  Zn1442  1.915   .     S
O1430  C878    1.221   1_565 S
O1432  Zn1442  1.942   .     S
O1435  Zn1445  1.940   .     S
O1436  Zn1443  1.926   .     S
O1437  Zn1444  1.946   .     S
O1438  Zn1445  1.953   .     S
O1439  Zn1442  1.935   .     S
O1440  Zn1443  1.936   .     S
O1441  Zn1444  1.930   .     S
C1446  C1456   1.437   .     S
C1446  O1523   1.259   .     A
C1446  O1521   1.278   .     A
C1447  C1480   1.409   .     A
C1447  H1502   1.082   .     S
C1447  C1448   1.386   .     A
C1448  H1499   1.083   .     S
C1448  C685    1.400   1_556 S
C1449  O1524   1.275   .     A
C1449  C1455   1.463   .     S
C1449  O1522   1.282   .     A
C1450  C1452   1.416   .     A
C1450  C1451   1.420   .     A
C1451  C1454   1.405   .     A
C1451  C1481   1.427   .     A
C1452  C1453   1.415   .     A
C1452  O1512   1.385   .     S
C1453  C1465   1.411   .     A
C1453  C1474   1.493   .     S
C1454  C1465   1.390   .     A
C1454  H1495   1.078   .     S
C1455  C1286   1.362   1_655 S
C1455  C1301   1.498   1_655 S
C1457  O1518   1.393   .     S
C1457  C1466   1.406   .     A
C1457  C1464   1.418   .     A
C1458  H1484   1.088   .     S
C1458  C1461   1.451   .     S
C1458  C949    1.344   1_565 S
C1459  C1460   1.430   .     S
C1459  C1473   1.485   .     S
C1460  O1517   1.272   .     A
C1460  O1525   1.291   .     A
C1461  O1520   1.260   .     A
C1461  O1526   1.268   .     A
C1462  O1509   1.283   .     A
C1462  C1465   1.461   .     S
C1462  O1507   1.286   .     A
C1463  O1510   1.287   .     A
C1463  O1508   1.280   .     A
C1463  C1464   1.491   .     S
C1464  C1468   1.416   .     A
C1466  H1500   1.076   .     S
C1466  C1479   1.403   .     A
C1467  C1483   1.486   .     S
C1467  O1511   1.221   .     D
C1467  H1503   1.086   .     S
C1468  C1478   1.420   .     A
C1468  C1477   1.500   .     S
C1469  O1512   1.414   .     S
C1469  H1504   1.114   .     S
C1469  C535    1.521   1_655 S
C1470  H1486   1.111   .     S
C1470  H1487   1.111   .     S
C1470  H1485   1.109   .     S
C1470  C619    1.521   1_556 S
C1471  H1488   1.086   .     S
C1471  O1513   1.221   .     D
C1472  H1489   1.085   .     S
C1472  O1514   1.222   .     D
C1472  C1286   1.494   1_655 S
C1473  H1490   1.085   .     S
C1474  H1491   1.084   .     S
C1474  O1516   1.221   .     D
C1475  H1493   1.115   .     S
C1475  C1476   1.524   .     S
C1475  H1492   1.105   .     S
C1475  O1518   1.419   .     S
C1476  H1497   1.111   .     S
C1476  H1494   1.109   .     S
C1476  H986    1.111   1_565 S
C1477  O1519   1.222   .     D
C1477  H1498   1.081   .     S
C1478  C1479   1.417   .     A
C1478  C1480   1.421   .     A
C1479  C718    1.415   1_556 S
C1480  C716    1.417   1_556 S
C1481  C1482   1.412   .     A
C1482  H1501   1.078   .     S
C1482  C1483   1.396   .     A
H1505  C704    1.114   1_556 S
O1506  Zn1527  1.958   .     S
O1506  Zn1528  1.970   .     S
O1506  Zn1530  1.916   .     S
O1506  Zn1529  1.936   .     S
O1507  Zn1528  1.918   .     S
O1508  Zn1530  1.936   .     S
O1509  Zn1529  1.935   .     S
O1510  Zn1527  1.915   .     S
O1515  C963    1.221   1_565 S
O1517  Zn1527  1.942   .     S
O1520  Zn1530  1.940   .     S
O1521  Zn1528  1.926   .     S
O1522  Zn1529  1.946   .     S
O1523  Zn1530  1.953   .     S
O1524  Zn1527  1.935   .     S
O1525  Zn1528  1.936   .     S
O1526  Zn1529  1.930   .     S
