data_str_m2_o2_o10_pcu_sym.132
_audit_creation_date              2020-01-03
_audit_creation_method            'Materials Studio'
_symmetry_space_group_name_H-M    'P1'
_symmetry_Int_Tables_number       1
_symmetry_cell_setting            triclinic
loop_
_symmetry_equiv_pos_as_xyz
  x,y,z
_cell_length_a                    26.2005
_cell_length_b                    30.3335
_cell_length_c                    27.7798
_cell_angle_alpha                 90.2598
_cell_angle_beta                  98.1292
_cell_angle_gamma                 90.3937
loop_
_atom_site_label
_atom_site_type_symbol
_atom_site_fract_x
_atom_site_fract_y
_atom_site_fract_z
_atom_site_U_iso_or_equiv
_atom_site_adp_type
_atom_site_occupancy
C1     C     0.16647   0.16501   0.24987   0.00000  Uiso   1.00
C2     C     0.16633   0.33518   0.25002   0.00000  Uiso   1.00
C3     C     0.20994   0.26488   0.05988   0.00000  Uiso   1.00
C4     C     0.14204   0.21649   0.44252   0.00000  Uiso   1.00
C5     C     0.20850   0.26563   0.11034   0.00000  Uiso   1.00
C6     C     0.14121   0.21769   0.39180   0.00000  Uiso   1.00
C7     C     0.12532   0.23363   0.09868   0.00000  Uiso   1.00
C8     C     0.19348   0.28168   0.39900   0.00000  Uiso   1.00
C9     C     0.12412   0.23445   0.04791   0.00000  Uiso   1.00
C10    C     0.19314   0.28302   0.44959   0.00000  Uiso   1.00
C11    C     0.16710   0.24980   0.02727   0.00000  Uiso   1.00
C12    C     0.16742   0.24987   0.47267   0.00000  Uiso   1.00
C13    C     0.06789   0.24995   0.23752   0.00000  Uiso   1.00
C14    C     0.26544   0.25001   0.26248   0.00000  Uiso   1.00
C15    C     0.01258   0.24991   0.23068   0.00000  Uiso   1.00
C16    C     0.32076   0.24998   0.26931   0.00000  Uiso   1.00
C17    C     0.14073   0.04789   0.28325   0.00000  Uiso   1.00
C18    C     0.15544   0.45257   0.20542   0.00000  Uiso   1.00
C19    C     0.14142   0.09370   0.28371   0.00000  Uiso   1.00
C20    C     0.15590   0.40675   0.20552   0.00000  Uiso   1.00
C21    C     0.16582   0.11684   0.24952   0.00000  Uiso   1.00
C22    C     0.16546   0.38370   0.24984   0.00000  Uiso   1.00
C23    C     0.18939   0.09350   0.21490   0.00000  Uiso   1.00
C24    C     0.17410   0.40772   0.29381   0.00000  Uiso   1.00
C25    C     0.18890   0.04766   0.21485   0.00000  Uiso   1.00
C26    C     0.17388   0.45351   0.29331   0.00000  Uiso   1.00
C27    C     0.16462   0.02459   0.24901   0.00000  Uiso   1.00
C28    C     0.16460   0.47622   0.24922   0.00000  Uiso   1.00
Cu29   Cu    0.16667   0.25000   0.29822   0.00000  Uiso   1.00
Cu30   Cu    0.16667   0.25001   0.20178   0.00000  Uiso   1.00
H31    H     0.32582   0.24984   0.19365   0.00000  Uiso   1.00
H32    H     0.00753   0.25003   0.30634   0.00000  Uiso   1.00
H33    H     0.20825   0.03020   0.18863   0.00000  Uiso   1.00
H34    H     0.18166   0.47127   0.32751   0.00000  Uiso   1.00
N35    N     0.16667   0.25001   0.12934   0.00000  Uiso   1.00
N36    N     0.16667   0.24999   0.37066   0.00000  Uiso   1.00
O37    O     0.16667   0.18573   0.29072   0.00000  Uiso   1.00
O38    O     0.16666   0.31428   0.20928   0.00000  Uiso   1.00
O39    O     0.16667   0.18573   0.20928   0.00000  Uiso   1.00
O40    O     0.16666   0.31427   0.29072   0.00000  Uiso   1.00
O41    O     0.09161   0.25000   0.28132   0.00000  Uiso   1.00
O42    O     0.24172   0.25000   0.21868   0.00000  Uiso   1.00
O43    O     0.09161   0.25000   0.19988   0.00000  Uiso   1.00
O44    O     0.24172   0.25000   0.30012   0.00000  Uiso   1.00
H45    H     0.12097   0.03061   0.30933   0.00000  Uiso   1.00
H46    H     0.14731   0.46960   0.17103   0.00000  Uiso   1.00
F47    F     0.11706   0.11526   0.31674   0.00000  Uiso   1.00
F48    F     0.14624   0.38527   0.16216   0.00000  Uiso   1.00
F49    F     0.21412   0.11490   0.18199   0.00000  Uiso   1.00
F50    F     0.18334   0.38732   0.33746   0.00000  Uiso   1.00
H51    H     0.24492   0.27567   0.04684   0.00000  Uiso   1.00
H52    H     0.12328   0.18910   0.45781   0.00000  Uiso   1.00
H53    H     0.24149   0.27838   0.13421   0.00000  Uiso   1.00
H54    H     0.12064   0.19223   0.36942   0.00000  Uiso   1.00
F55    F     0.08460   0.21568   0.11672   0.00000  Uiso   1.00
F56    F     0.22162   0.31209   0.37853   0.00000  Uiso   1.00
F57    F     0.08024   0.22121   0.01947   0.00000  Uiso   1.00
F58    F     0.21694   0.31738   0.47523   0.00000  Uiso   1.00
C59    C     0.49980   0.16501   0.24987   0.00000  Uiso   1.00
C60    C     0.49967   0.33518   0.25002   0.00000  Uiso   1.00
C61    C     0.54327   0.26488   0.05988   0.00000  Uiso   1.00
C62    C     0.47537   0.21649   0.44252   0.00000  Uiso   1.00
C63    C     0.54183   0.26563   0.11034   0.00000  Uiso   1.00
C64    C     0.47454   0.21769   0.39180   0.00000  Uiso   1.00
C65    C     0.45865   0.23363   0.09868   0.00000  Uiso   1.00
C66    C     0.52682   0.28168   0.39900   0.00000  Uiso   1.00
C67    C     0.45745   0.23445   0.04791   0.00000  Uiso   1.00
C68    C     0.52648   0.28302   0.44959   0.00000  Uiso   1.00
C69    C     0.50043   0.24980   0.02727   0.00000  Uiso   1.00
C70    C     0.50075   0.24987   0.47267   0.00000  Uiso   1.00
C71    C     0.40123   0.24995   0.23752   0.00000  Uiso   1.00
C72    C     0.59877   0.25001   0.26248   0.00000  Uiso   1.00
C73    C     0.34591   0.24991   0.23068   0.00000  Uiso   1.00
C74    C     0.65409   0.24998   0.26931   0.00000  Uiso   1.00
C75    C     0.47406   0.04789   0.28325   0.00000  Uiso   1.00
C76    C     0.48877   0.45257   0.20542   0.00000  Uiso   1.00
C77    C     0.47475   0.09370   0.28371   0.00000  Uiso   1.00
C78    C     0.48923   0.40675   0.20552   0.00000  Uiso   1.00
C79    C     0.49915   0.11684   0.24952   0.00000  Uiso   1.00
C80    C     0.49879   0.38370   0.24984   0.00000  Uiso   1.00
C81    C     0.52272   0.09350   0.21490   0.00000  Uiso   1.00
C82    C     0.50743   0.40772   0.29381   0.00000  Uiso   1.00
C83    C     0.52223   0.04766   0.21485   0.00000  Uiso   1.00
C84    C     0.50721   0.45351   0.29331   0.00000  Uiso   1.00
C85    C     0.49795   0.02459   0.24901   0.00000  Uiso   1.00
C86    C     0.49793   0.47622   0.24922   0.00000  Uiso   1.00
Cu87   Cu    0.50000   0.25000   0.29822   0.00000  Uiso   1.00
Cu88   Cu    0.50000   0.25001   0.20178   0.00000  Uiso   1.00
H89    H     0.65915   0.24984   0.19365   0.00000  Uiso   1.00
H90    H     0.34087   0.25003   0.30634   0.00000  Uiso   1.00
H91    H     0.54159   0.03020   0.18863   0.00000  Uiso   1.00
H92    H     0.51500   0.47127   0.32751   0.00000  Uiso   1.00
N93    N     0.50000   0.25001   0.12934   0.00000  Uiso   1.00
N94    N     0.50000   0.24999   0.37066   0.00000  Uiso   1.00
O95    O     0.50000   0.18573   0.29072   0.00000  Uiso   1.00
O96    O     0.50000   0.31428   0.20928   0.00000  Uiso   1.00
O97    O     0.50000   0.18573   0.20928   0.00000  Uiso   1.00
O98    O     0.50000   0.31427   0.29072   0.00000  Uiso   1.00
O99    O     0.42495   0.25000   0.28132   0.00000  Uiso   1.00
O100   O     0.57505   0.25000   0.21868   0.00000  Uiso   1.00
O101   O     0.42495   0.25000   0.19988   0.00000  Uiso   1.00
O102   O     0.57505   0.25000   0.30012   0.00000  Uiso   1.00
H103   H     0.45431   0.03061   0.30933   0.00000  Uiso   1.00
H104   H     0.48064   0.46960   0.17103   0.00000  Uiso   1.00
F105   F     0.45040   0.11526   0.31674   0.00000  Uiso   1.00
F106   F     0.47957   0.38527   0.16216   0.00000  Uiso   1.00
F107   F     0.54746   0.11490   0.18199   0.00000  Uiso   1.00
F108   F     0.51667   0.38732   0.33746   0.00000  Uiso   1.00
H109   H     0.57825   0.27567   0.04684   0.00000  Uiso   1.00
H110   H     0.45662   0.18910   0.45781   0.00000  Uiso   1.00
H111   H     0.57482   0.27838   0.13421   0.00000  Uiso   1.00
H112   H     0.45397   0.19223   0.36942   0.00000  Uiso   1.00
F113   F     0.41793   0.21568   0.11672   0.00000  Uiso   1.00
F114   F     0.55495   0.31209   0.37853   0.00000  Uiso   1.00
F115   F     0.41357   0.22121   0.01947   0.00000  Uiso   1.00
F116   F     0.55027   0.31738   0.47523   0.00000  Uiso   1.00
C117   C     0.83314   0.16501   0.24987   0.00000  Uiso   1.00
C118   C     0.83300   0.33518   0.25002   0.00000  Uiso   1.00
C119   C     0.87661   0.26488   0.05988   0.00000  Uiso   1.00
C120   C     0.80870   0.21649   0.44252   0.00000  Uiso   1.00
C121   C     0.87516   0.26563   0.11034   0.00000  Uiso   1.00
C122   C     0.80787   0.21769   0.39180   0.00000  Uiso   1.00
C123   C     0.79199   0.23363   0.09868   0.00000  Uiso   1.00
C124   C     0.86015   0.28168   0.39900   0.00000  Uiso   1.00
C125   C     0.79079   0.23445   0.04791   0.00000  Uiso   1.00
C126   C     0.85981   0.28302   0.44959   0.00000  Uiso   1.00
C127   C     0.83377   0.24980   0.02727   0.00000  Uiso   1.00
C128   C     0.83409   0.24987   0.47267   0.00000  Uiso   1.00
C129   C     0.73456   0.24995   0.23752   0.00000  Uiso   1.00
C130   C     0.93211   0.25001   0.26248   0.00000  Uiso   1.00
C131   C     0.67924   0.24991   0.23068   0.00000  Uiso   1.00
C132   C     0.98743   0.24998   0.26931   0.00000  Uiso   1.00
C133   C     0.80740   0.04789   0.28325   0.00000  Uiso   1.00
C134   C     0.82210   0.45257   0.20542   0.00000  Uiso   1.00
C135   C     0.80809   0.09370   0.28371   0.00000  Uiso   1.00
C136   C     0.82257   0.40675   0.20552   0.00000  Uiso   1.00
C137   C     0.83248   0.11684   0.24952   0.00000  Uiso   1.00
C138   C     0.83213   0.38370   0.24984   0.00000  Uiso   1.00
C139   C     0.85606   0.09350   0.21490   0.00000  Uiso   1.00
C140   C     0.84076   0.40772   0.29381   0.00000  Uiso   1.00
C141   C     0.85556   0.04766   0.21485   0.00000  Uiso   1.00
C142   C     0.84054   0.45351   0.29331   0.00000  Uiso   1.00
C143   C     0.83129   0.02459   0.24901   0.00000  Uiso   1.00
C144   C     0.83126   0.47622   0.24922   0.00000  Uiso   1.00
Cu145  Cu    0.83333   0.25000   0.29822   0.00000  Uiso   1.00
Cu146  Cu    0.83333   0.25001   0.20178   0.00000  Uiso   1.00
H147   H     0.99249   0.24984   0.19365   0.00000  Uiso   1.00
H148   H     0.67420   0.25003   0.30634   0.00000  Uiso   1.00
H149   H     0.87492   0.03020   0.18863   0.00000  Uiso   1.00
H150   H     0.84833   0.47127   0.32751   0.00000  Uiso   1.00
N151   N     0.83333   0.25001   0.12934   0.00000  Uiso   1.00
N152   N     0.83333   0.24999   0.37066   0.00000  Uiso   1.00
O153   O     0.83334   0.18573   0.29072   0.00000  Uiso   1.00
O154   O     0.83333   0.31428   0.20928   0.00000  Uiso   1.00
O155   O     0.83334   0.18573   0.20928   0.00000  Uiso   1.00
O156   O     0.83333   0.31427   0.29072   0.00000  Uiso   1.00
O157   O     0.75828   0.25000   0.28132   0.00000  Uiso   1.00
O158   O     0.90839   0.25000   0.21868   0.00000  Uiso   1.00
O159   O     0.75828   0.25000   0.19988   0.00000  Uiso   1.00
O160   O     0.90839   0.25000   0.30012   0.00000  Uiso   1.00
H161   H     0.78764   0.03061   0.30933   0.00000  Uiso   1.00
H162   H     0.81398   0.46960   0.17103   0.00000  Uiso   1.00
F163   F     0.78373   0.11526   0.31674   0.00000  Uiso   1.00
F164   F     0.81290   0.38527   0.16216   0.00000  Uiso   1.00
F165   F     0.88079   0.11490   0.18199   0.00000  Uiso   1.00
F166   F     0.85001   0.38732   0.33746   0.00000  Uiso   1.00
H167   H     0.91158   0.27567   0.04684   0.00000  Uiso   1.00
H168   H     0.78995   0.18910   0.45781   0.00000  Uiso   1.00
H169   H     0.90815   0.27838   0.13421   0.00000  Uiso   1.00
H170   H     0.78731   0.19223   0.36942   0.00000  Uiso   1.00
F171   F     0.75126   0.21568   0.11672   0.00000  Uiso   1.00
F172   F     0.88828   0.31209   0.37853   0.00000  Uiso   1.00
F173   F     0.74691   0.22121   0.01947   0.00000  Uiso   1.00
F174   F     0.88361   0.31738   0.47523   0.00000  Uiso   1.00
C175   C     0.16647   0.66501   0.24987   0.00000  Uiso   1.00
C176   C     0.16633   0.83518   0.25002   0.00000  Uiso   1.00
C177   C     0.20994   0.76488   0.05988   0.00000  Uiso   1.00
C178   C     0.14204   0.71649   0.44252   0.00000  Uiso   1.00
C179   C     0.20850   0.76563   0.11034   0.00000  Uiso   1.00
C180   C     0.14121   0.71769   0.39180   0.00000  Uiso   1.00
C181   C     0.12532   0.73363   0.09868   0.00000  Uiso   1.00
C182   C     0.19348   0.78168   0.39900   0.00000  Uiso   1.00
C183   C     0.12412   0.73445   0.04791   0.00000  Uiso   1.00
C184   C     0.19314   0.78302   0.44959   0.00000  Uiso   1.00
C185   C     0.16710   0.74980   0.02727   0.00000  Uiso   1.00
C186   C     0.16742   0.74987   0.47267   0.00000  Uiso   1.00
C187   C     0.06789   0.74995   0.23752   0.00000  Uiso   1.00
C188   C     0.26544   0.75001   0.26248   0.00000  Uiso   1.00
C189   C     0.01258   0.74991   0.23068   0.00000  Uiso   1.00
C190   C     0.32076   0.74998   0.26931   0.00000  Uiso   1.00
C191   C     0.14073   0.54789   0.28325   0.00000  Uiso   1.00
C192   C     0.15544   0.95257   0.20542   0.00000  Uiso   1.00
C193   C     0.14142   0.59370   0.28371   0.00000  Uiso   1.00
C194   C     0.15590   0.90675   0.20552   0.00000  Uiso   1.00
C195   C     0.16582   0.61684   0.24952   0.00000  Uiso   1.00
C196   C     0.16546   0.88370   0.24984   0.00000  Uiso   1.00
C197   C     0.18939   0.59350   0.21490   0.00000  Uiso   1.00
C198   C     0.17410   0.90772   0.29381   0.00000  Uiso   1.00
C199   C     0.18890   0.54766   0.21485   0.00000  Uiso   1.00
C200   C     0.17388   0.95351   0.29331   0.00000  Uiso   1.00
C201   C     0.16462   0.52459   0.24901   0.00000  Uiso   1.00
C202   C     0.16460   0.97622   0.24922   0.00000  Uiso   1.00
Cu203  Cu    0.16667   0.75000   0.29822   0.00000  Uiso   1.00
Cu204  Cu    0.16667   0.75001   0.20178   0.00000  Uiso   1.00
H205   H     0.32582   0.74984   0.19365   0.00000  Uiso   1.00
H206   H     0.00753   0.75003   0.30634   0.00000  Uiso   1.00
H207   H     0.20825   0.53020   0.18863   0.00000  Uiso   1.00
H208   H     0.18166   0.97127   0.32751   0.00000  Uiso   1.00
N209   N     0.16667   0.75001   0.12934   0.00000  Uiso   1.00
N210   N     0.16667   0.74999   0.37066   0.00000  Uiso   1.00
O211   O     0.16667   0.68573   0.29072   0.00000  Uiso   1.00
O212   O     0.16666   0.81428   0.20928   0.00000  Uiso   1.00
O213   O     0.16667   0.68573   0.20928   0.00000  Uiso   1.00
O214   O     0.16666   0.81427   0.29072   0.00000  Uiso   1.00
O215   O     0.09161   0.75000   0.28132   0.00000  Uiso   1.00
O216   O     0.24172   0.75000   0.21868   0.00000  Uiso   1.00
O217   O     0.09161   0.75000   0.19988   0.00000  Uiso   1.00
O218   O     0.24172   0.75000   0.30012   0.00000  Uiso   1.00
H219   H     0.12097   0.53061   0.30933   0.00000  Uiso   1.00
H220   H     0.14731   0.96960   0.17103   0.00000  Uiso   1.00
F221   F     0.11706   0.61526   0.31674   0.00000  Uiso   1.00
F222   F     0.14624   0.88527   0.16216   0.00000  Uiso   1.00
F223   F     0.21412   0.61490   0.18199   0.00000  Uiso   1.00
F224   F     0.18334   0.88732   0.33746   0.00000  Uiso   1.00
H225   H     0.24492   0.77567   0.04684   0.00000  Uiso   1.00
H226   H     0.12328   0.68910   0.45781   0.00000  Uiso   1.00
H227   H     0.24149   0.77838   0.13421   0.00000  Uiso   1.00
H228   H     0.12064   0.69223   0.36942   0.00000  Uiso   1.00
F229   F     0.08460   0.71568   0.11672   0.00000  Uiso   1.00
F230   F     0.22162   0.81209   0.37853   0.00000  Uiso   1.00
F231   F     0.08024   0.72121   0.01947   0.00000  Uiso   1.00
F232   F     0.21694   0.81738   0.47523   0.00000  Uiso   1.00
C233   C     0.49980   0.66501   0.24987   0.00000  Uiso   1.00
C234   C     0.49967   0.83518   0.25002   0.00000  Uiso   1.00
C235   C     0.54327   0.76488   0.05988   0.00000  Uiso   1.00
C236   C     0.47537   0.71649   0.44252   0.00000  Uiso   1.00
C237   C     0.54183   0.76563   0.11034   0.00000  Uiso   1.00
C238   C     0.47454   0.71769   0.39180   0.00000  Uiso   1.00
C239   C     0.45865   0.73363   0.09868   0.00000  Uiso   1.00
C240   C     0.52682   0.78168   0.39900   0.00000  Uiso   1.00
C241   C     0.45745   0.73445   0.04791   0.00000  Uiso   1.00
C242   C     0.52648   0.78302   0.44959   0.00000  Uiso   1.00
C243   C     0.50043   0.74980   0.02727   0.00000  Uiso   1.00
C244   C     0.50075   0.74987   0.47267   0.00000  Uiso   1.00
C245   C     0.40123   0.74995   0.23752   0.00000  Uiso   1.00
C246   C     0.59877   0.75001   0.26248   0.00000  Uiso   1.00
C247   C     0.34591   0.74991   0.23068   0.00000  Uiso   1.00
C248   C     0.65409   0.74998   0.26931   0.00000  Uiso   1.00
C249   C     0.47406   0.54789   0.28325   0.00000  Uiso   1.00
C250   C     0.48877   0.95257   0.20542   0.00000  Uiso   1.00
C251   C     0.47475   0.59370   0.28371   0.00000  Uiso   1.00
C252   C     0.48923   0.90675   0.20552   0.00000  Uiso   1.00
C253   C     0.49915   0.61684   0.24952   0.00000  Uiso   1.00
C254   C     0.49879   0.88370   0.24984   0.00000  Uiso   1.00
C255   C     0.52272   0.59350   0.21490   0.00000  Uiso   1.00
C256   C     0.50743   0.90772   0.29381   0.00000  Uiso   1.00
C257   C     0.52223   0.54766   0.21485   0.00000  Uiso   1.00
C258   C     0.50721   0.95351   0.29331   0.00000  Uiso   1.00
C259   C     0.49795   0.52459   0.24901   0.00000  Uiso   1.00
C260   C     0.49793   0.97622   0.24922   0.00000  Uiso   1.00
Cu261  Cu    0.50000   0.75000   0.29822   0.00000  Uiso   1.00
Cu262  Cu    0.50000   0.75001   0.20178   0.00000  Uiso   1.00
H263   H     0.65915   0.74984   0.19365   0.00000  Uiso   1.00
H264   H     0.34087   0.75003   0.30634   0.00000  Uiso   1.00
H265   H     0.54159   0.53020   0.18863   0.00000  Uiso   1.00
H266   H     0.51500   0.97127   0.32751   0.00000  Uiso   1.00
N267   N     0.50000   0.75001   0.12934   0.00000  Uiso   1.00
N268   N     0.50000   0.74999   0.37066   0.00000  Uiso   1.00
O269   O     0.50000   0.68573   0.29072   0.00000  Uiso   1.00
O270   O     0.50000   0.81428   0.20928   0.00000  Uiso   1.00
O271   O     0.50000   0.68573   0.20928   0.00000  Uiso   1.00
O272   O     0.50000   0.81427   0.29072   0.00000  Uiso   1.00
O273   O     0.42495   0.75000   0.28132   0.00000  Uiso   1.00
O274   O     0.57505   0.75000   0.21868   0.00000  Uiso   1.00
O275   O     0.42495   0.75000   0.19988   0.00000  Uiso   1.00
O276   O     0.57505   0.75000   0.30012   0.00000  Uiso   1.00
H277   H     0.45431   0.53061   0.30933   0.00000  Uiso   1.00
H278   H     0.48064   0.96960   0.17103   0.00000  Uiso   1.00
F279   F     0.45040   0.61526   0.31674   0.00000  Uiso   1.00
F280   F     0.47957   0.88527   0.16216   0.00000  Uiso   1.00
F281   F     0.54746   0.61490   0.18199   0.00000  Uiso   1.00
F282   F     0.51667   0.88732   0.33746   0.00000  Uiso   1.00
H283   H     0.57825   0.77567   0.04684   0.00000  Uiso   1.00
H284   H     0.45662   0.68910   0.45781   0.00000  Uiso   1.00
H285   H     0.57482   0.77838   0.13421   0.00000  Uiso   1.00
H286   H     0.45397   0.69223   0.36942   0.00000  Uiso   1.00
F287   F     0.41793   0.71568   0.11672   0.00000  Uiso   1.00
F288   F     0.55495   0.81209   0.37853   0.00000  Uiso   1.00
F289   F     0.41357   0.72121   0.01947   0.00000  Uiso   1.00
F290   F     0.55027   0.81738   0.47523   0.00000  Uiso   1.00
C291   C     0.83314   0.66501   0.24987   0.00000  Uiso   1.00
C292   C     0.83300   0.83518   0.25002   0.00000  Uiso   1.00
C293   C     0.87661   0.76488   0.05988   0.00000  Uiso   1.00
C294   C     0.80870   0.71649   0.44252   0.00000  Uiso   1.00
C295   C     0.87516   0.76563   0.11034   0.00000  Uiso   1.00
C296   C     0.80787   0.71769   0.39180   0.00000  Uiso   1.00
C297   C     0.79199   0.73363   0.09868   0.00000  Uiso   1.00
C298   C     0.86015   0.78168   0.39900   0.00000  Uiso   1.00
C299   C     0.79079   0.73445   0.04791   0.00000  Uiso   1.00
C300   C     0.85981   0.78302   0.44959   0.00000  Uiso   1.00
C301   C     0.83377   0.74980   0.02727   0.00000  Uiso   1.00
C302   C     0.83409   0.74987   0.47267   0.00000  Uiso   1.00
C303   C     0.73456   0.74995   0.23752   0.00000  Uiso   1.00
C304   C     0.93211   0.75001   0.26248   0.00000  Uiso   1.00
C305   C     0.67924   0.74991   0.23068   0.00000  Uiso   1.00
C306   C     0.98743   0.74998   0.26931   0.00000  Uiso   1.00
C307   C     0.80740   0.54789   0.28325   0.00000  Uiso   1.00
C308   C     0.82210   0.95257   0.20542   0.00000  Uiso   1.00
C309   C     0.80809   0.59370   0.28371   0.00000  Uiso   1.00
C310   C     0.82257   0.90675   0.20552   0.00000  Uiso   1.00
C311   C     0.83248   0.61684   0.24952   0.00000  Uiso   1.00
C312   C     0.83213   0.88370   0.24984   0.00000  Uiso   1.00
C313   C     0.85606   0.59350   0.21490   0.00000  Uiso   1.00
C314   C     0.84076   0.90772   0.29381   0.00000  Uiso   1.00
C315   C     0.85556   0.54766   0.21485   0.00000  Uiso   1.00
C316   C     0.84054   0.95351   0.29331   0.00000  Uiso   1.00
C317   C     0.83129   0.52459   0.24901   0.00000  Uiso   1.00
C318   C     0.83126   0.97622   0.24922   0.00000  Uiso   1.00
Cu319  Cu    0.83333   0.75000   0.29822   0.00000  Uiso   1.00
Cu320  Cu    0.83333   0.75001   0.20178   0.00000  Uiso   1.00
H321   H     0.99249   0.74984   0.19365   0.00000  Uiso   1.00
H322   H     0.67420   0.75003   0.30634   0.00000  Uiso   1.00
H323   H     0.87492   0.53020   0.18863   0.00000  Uiso   1.00
H324   H     0.84833   0.97127   0.32751   0.00000  Uiso   1.00
N325   N     0.83333   0.75001   0.12934   0.00000  Uiso   1.00
N326   N     0.83333   0.74999   0.37066   0.00000  Uiso   1.00
O327   O     0.83334   0.68573   0.29072   0.00000  Uiso   1.00
O328   O     0.83333   0.81428   0.20928   0.00000  Uiso   1.00
O329   O     0.83334   0.68573   0.20928   0.00000  Uiso   1.00
O330   O     0.83333   0.81427   0.29072   0.00000  Uiso   1.00
O331   O     0.75828   0.75000   0.28132   0.00000  Uiso   1.00
O332   O     0.90839   0.75000   0.21868   0.00000  Uiso   1.00
O333   O     0.75828   0.75000   0.19988   0.00000  Uiso   1.00
O334   O     0.90839   0.75000   0.30012   0.00000  Uiso   1.00
H335   H     0.78764   0.53061   0.30933   0.00000  Uiso   1.00
H336   H     0.81398   0.96960   0.17103   0.00000  Uiso   1.00
F337   F     0.78373   0.61526   0.31674   0.00000  Uiso   1.00
F338   F     0.81290   0.88527   0.16216   0.00000  Uiso   1.00
F339   F     0.88079   0.61490   0.18199   0.00000  Uiso   1.00
F340   F     0.85001   0.88732   0.33746   0.00000  Uiso   1.00
H341   H     0.91158   0.77567   0.04684   0.00000  Uiso   1.00
H342   H     0.78995   0.68910   0.45781   0.00000  Uiso   1.00
H343   H     0.90815   0.77838   0.13421   0.00000  Uiso   1.00
H344   H     0.78731   0.69223   0.36942   0.00000  Uiso   1.00
F345   F     0.75126   0.71568   0.11672   0.00000  Uiso   1.00
F346   F     0.88828   0.81209   0.37853   0.00000  Uiso   1.00
F347   F     0.74691   0.72121   0.01947   0.00000  Uiso   1.00
F348   F     0.88361   0.81738   0.47523   0.00000  Uiso   1.00
C349   C     0.16647   0.16501   0.74987   0.00000  Uiso   1.00
C350   C     0.16633   0.33518   0.75002   0.00000  Uiso   1.00
C351   C     0.20994   0.26488   0.55988   0.00000  Uiso   1.00
C352   C     0.14204   0.21649   0.94252   0.00000  Uiso   1.00
C353   C     0.20850   0.26563   0.61034   0.00000  Uiso   1.00
C354   C     0.14121   0.21769   0.89180   0.00000  Uiso   1.00
C355   C     0.12532   0.23363   0.59868   0.00000  Uiso   1.00
C356   C     0.19348   0.28168   0.89900   0.00000  Uiso   1.00
C357   C     0.12412   0.23445   0.54791   0.00000  Uiso   1.00
C358   C     0.19314   0.28302   0.94959   0.00000  Uiso   1.00
C359   C     0.16710   0.24980   0.52727   0.00000  Uiso   1.00
C360   C     0.16742   0.24987   0.97267   0.00000  Uiso   1.00
C361   C     0.06789   0.24995   0.73752   0.00000  Uiso   1.00
C362   C     0.26544   0.25001   0.76248   0.00000  Uiso   1.00
C363   C     0.01258   0.24991   0.73068   0.00000  Uiso   1.00
C364   C     0.32076   0.24998   0.76931   0.00000  Uiso   1.00
C365   C     0.14073   0.04789   0.78325   0.00000  Uiso   1.00
C366   C     0.15544   0.45257   0.70542   0.00000  Uiso   1.00
C367   C     0.14142   0.09370   0.78371   0.00000  Uiso   1.00
C368   C     0.15590   0.40675   0.70552   0.00000  Uiso   1.00
C369   C     0.16582   0.11684   0.74952   0.00000  Uiso   1.00
C370   C     0.16546   0.38370   0.74984   0.00000  Uiso   1.00
C371   C     0.18939   0.09350   0.71490   0.00000  Uiso   1.00
C372   C     0.17410   0.40772   0.79381   0.00000  Uiso   1.00
C373   C     0.18890   0.04766   0.71485   0.00000  Uiso   1.00
C374   C     0.17388   0.45351   0.79331   0.00000  Uiso   1.00
C375   C     0.16462   0.02459   0.74901   0.00000  Uiso   1.00
C376   C     0.16460   0.47622   0.74922   0.00000  Uiso   1.00
Cu377  Cu    0.16667   0.25000   0.79822   0.00000  Uiso   1.00
Cu378  Cu    0.16667   0.25001   0.70178   0.00000  Uiso   1.00
H379   H     0.32582   0.24984   0.69365   0.00000  Uiso   1.00
H380   H     0.00753   0.25003   0.80634   0.00000  Uiso   1.00
H381   H     0.20825   0.03020   0.68863   0.00000  Uiso   1.00
H382   H     0.18166   0.47127   0.82751   0.00000  Uiso   1.00
N383   N     0.16667   0.25001   0.62934   0.00000  Uiso   1.00
N384   N     0.16667   0.24999   0.87066   0.00000  Uiso   1.00
O385   O     0.16667   0.18573   0.79072   0.00000  Uiso   1.00
O386   O     0.16666   0.31428   0.70928   0.00000  Uiso   1.00
O387   O     0.16667   0.18573   0.70928   0.00000  Uiso   1.00
O388   O     0.16666   0.31427   0.79072   0.00000  Uiso   1.00
O389   O     0.09161   0.25000   0.78132   0.00000  Uiso   1.00
O390   O     0.24172   0.25000   0.71868   0.00000  Uiso   1.00
O391   O     0.09161   0.25000   0.69988   0.00000  Uiso   1.00
O392   O     0.24172   0.25000   0.80012   0.00000  Uiso   1.00
H393   H     0.12097   0.03061   0.80933   0.00000  Uiso   1.00
H394   H     0.14731   0.46960   0.67103   0.00000  Uiso   1.00
F395   F     0.11706   0.11526   0.81674   0.00000  Uiso   1.00
F396   F     0.14624   0.38527   0.66216   0.00000  Uiso   1.00
F397   F     0.21412   0.11490   0.68199   0.00000  Uiso   1.00
F398   F     0.18334   0.38732   0.83746   0.00000  Uiso   1.00
H399   H     0.24492   0.27567   0.54684   0.00000  Uiso   1.00
H400   H     0.12328   0.18910   0.95781   0.00000  Uiso   1.00
H401   H     0.24149   0.27838   0.63421   0.00000  Uiso   1.00
H402   H     0.12064   0.19223   0.86942   0.00000  Uiso   1.00
F403   F     0.08460   0.21568   0.61672   0.00000  Uiso   1.00
F404   F     0.22162   0.31209   0.87853   0.00000  Uiso   1.00
F405   F     0.08024   0.22121   0.51947   0.00000  Uiso   1.00
F406   F     0.21694   0.31738   0.97523   0.00000  Uiso   1.00
C407   C     0.49980   0.16501   0.74987   0.00000  Uiso   1.00
C408   C     0.49967   0.33518   0.75002   0.00000  Uiso   1.00
C409   C     0.54327   0.26488   0.55988   0.00000  Uiso   1.00
C410   C     0.47537   0.21649   0.94252   0.00000  Uiso   1.00
C411   C     0.54183   0.26563   0.61034   0.00000  Uiso   1.00
C412   C     0.47454   0.21769   0.89180   0.00000  Uiso   1.00
C413   C     0.45865   0.23363   0.59868   0.00000  Uiso   1.00
C414   C     0.52682   0.28168   0.89900   0.00000  Uiso   1.00
C415   C     0.45745   0.23445   0.54791   0.00000  Uiso   1.00
C416   C     0.52648   0.28302   0.94959   0.00000  Uiso   1.00
C417   C     0.50043   0.24980   0.52727   0.00000  Uiso   1.00
C418   C     0.50075   0.24987   0.97267   0.00000  Uiso   1.00
C419   C     0.40123   0.24995   0.73752   0.00000  Uiso   1.00
C420   C     0.59877   0.25001   0.76248   0.00000  Uiso   1.00
C421   C     0.34591   0.24991   0.73068   0.00000  Uiso   1.00
C422   C     0.65409   0.24998   0.76931   0.00000  Uiso   1.00
C423   C     0.47406   0.04789   0.78325   0.00000  Uiso   1.00
C424   C     0.48877   0.45257   0.70542   0.00000  Uiso   1.00
C425   C     0.47475   0.09370   0.78371   0.00000  Uiso   1.00
C426   C     0.48923   0.40675   0.70552   0.00000  Uiso   1.00
C427   C     0.49915   0.11684   0.74952   0.00000  Uiso   1.00
C428   C     0.49879   0.38370   0.74984   0.00000  Uiso   1.00
C429   C     0.52272   0.09350   0.71490   0.00000  Uiso   1.00
C430   C     0.50743   0.40772   0.79381   0.00000  Uiso   1.00
C431   C     0.52223   0.04766   0.71485   0.00000  Uiso   1.00
C432   C     0.50721   0.45351   0.79331   0.00000  Uiso   1.00
C433   C     0.49795   0.02459   0.74901   0.00000  Uiso   1.00
C434   C     0.49793   0.47622   0.74922   0.00000  Uiso   1.00
Cu435  Cu    0.50000   0.25000   0.79822   0.00000  Uiso   1.00
Cu436  Cu    0.50000   0.25001   0.70178   0.00000  Uiso   1.00
H437   H     0.65915   0.24984   0.69365   0.00000  Uiso   1.00
H438   H     0.34087   0.25003   0.80634   0.00000  Uiso   1.00
H439   H     0.54159   0.03020   0.68863   0.00000  Uiso   1.00
H440   H     0.51500   0.47127   0.82751   0.00000  Uiso   1.00
N441   N     0.50000   0.25001   0.62934   0.00000  Uiso   1.00
N442   N     0.50000   0.24999   0.87066   0.00000  Uiso   1.00
O443   O     0.50000   0.18573   0.79072   0.00000  Uiso   1.00
O444   O     0.50000   0.31428   0.70928   0.00000  Uiso   1.00
O445   O     0.50000   0.18573   0.70928   0.00000  Uiso   1.00
O446   O     0.50000   0.31427   0.79072   0.00000  Uiso   1.00
O447   O     0.42495   0.25000   0.78132   0.00000  Uiso   1.00
O448   O     0.57505   0.25000   0.71868   0.00000  Uiso   1.00
O449   O     0.42495   0.25000   0.69988   0.00000  Uiso   1.00
O450   O     0.57505   0.25000   0.80012   0.00000  Uiso   1.00
H451   H     0.45431   0.03061   0.80933   0.00000  Uiso   1.00
H452   H     0.48064   0.46960   0.67103   0.00000  Uiso   1.00
F453   F     0.45040   0.11526   0.81674   0.00000  Uiso   1.00
F454   F     0.47957   0.38527   0.66216   0.00000  Uiso   1.00
F455   F     0.54746   0.11490   0.68199   0.00000  Uiso   1.00
F456   F     0.51667   0.38732   0.83746   0.00000  Uiso   1.00
H457   H     0.57825   0.27567   0.54684   0.00000  Uiso   1.00
H458   H     0.45662   0.18910   0.95781   0.00000  Uiso   1.00
H459   H     0.57482   0.27838   0.63421   0.00000  Uiso   1.00
H460   H     0.45397   0.19223   0.86942   0.00000  Uiso   1.00
F461   F     0.41793   0.21568   0.61672   0.00000  Uiso   1.00
F462   F     0.55495   0.31209   0.87853   0.00000  Uiso   1.00
F463   F     0.41357   0.22121   0.51947   0.00000  Uiso   1.00
F464   F     0.55027   0.31738   0.97523   0.00000  Uiso   1.00
C465   C     0.83314   0.16501   0.74987   0.00000  Uiso   1.00
C466   C     0.83300   0.33518   0.75002   0.00000  Uiso   1.00
C467   C     0.87661   0.26488   0.55988   0.00000  Uiso   1.00
C468   C     0.80870   0.21649   0.94252   0.00000  Uiso   1.00
C469   C     0.87516   0.26563   0.61034   0.00000  Uiso   1.00
C470   C     0.80787   0.21769   0.89180   0.00000  Uiso   1.00
C471   C     0.79199   0.23363   0.59868   0.00000  Uiso   1.00
C472   C     0.86015   0.28168   0.89900   0.00000  Uiso   1.00
C473   C     0.79079   0.23445   0.54791   0.00000  Uiso   1.00
C474   C     0.85981   0.28302   0.94959   0.00000  Uiso   1.00
C475   C     0.83377   0.24980   0.52727   0.00000  Uiso   1.00
C476   C     0.83409   0.24987   0.97267   0.00000  Uiso   1.00
C477   C     0.73456   0.24995   0.73752   0.00000  Uiso   1.00
C478   C     0.93211   0.25001   0.76248   0.00000  Uiso   1.00
C479   C     0.67924   0.24991   0.73068   0.00000  Uiso   1.00
C480   C     0.98743   0.24998   0.76931   0.00000  Uiso   1.00
C481   C     0.80740   0.04789   0.78325   0.00000  Uiso   1.00
C482   C     0.82210   0.45257   0.70542   0.00000  Uiso   1.00
C483   C     0.80809   0.09370   0.78371   0.00000  Uiso   1.00
C484   C     0.82257   0.40675   0.70552   0.00000  Uiso   1.00
C485   C     0.83248   0.11684   0.74952   0.00000  Uiso   1.00
C486   C     0.83213   0.38370   0.74984   0.00000  Uiso   1.00
C487   C     0.85606   0.09350   0.71490   0.00000  Uiso   1.00
C488   C     0.84076   0.40772   0.79381   0.00000  Uiso   1.00
C489   C     0.85556   0.04766   0.71485   0.00000  Uiso   1.00
C490   C     0.84054   0.45351   0.79331   0.00000  Uiso   1.00
C491   C     0.83129   0.02459   0.74901   0.00000  Uiso   1.00
C492   C     0.83126   0.47622   0.74922   0.00000  Uiso   1.00
Cu493  Cu    0.83333   0.25000   0.79822   0.00000  Uiso   1.00
Cu494  Cu    0.83333   0.25001   0.70178   0.00000  Uiso   1.00
H495   H     0.99249   0.24984   0.69365   0.00000  Uiso   1.00
H496   H     0.67420   0.25003   0.80634   0.00000  Uiso   1.00
H497   H     0.87492   0.03020   0.68863   0.00000  Uiso   1.00
H498   H     0.84833   0.47127   0.82751   0.00000  Uiso   1.00
N499   N     0.83333   0.25001   0.62934   0.00000  Uiso   1.00
N500   N     0.83333   0.24999   0.87066   0.00000  Uiso   1.00
O501   O     0.83334   0.18573   0.79072   0.00000  Uiso   1.00
O502   O     0.83333   0.31428   0.70928   0.00000  Uiso   1.00
O503   O     0.83334   0.18573   0.70928   0.00000  Uiso   1.00
O504   O     0.83333   0.31427   0.79072   0.00000  Uiso   1.00
O505   O     0.75828   0.25000   0.78132   0.00000  Uiso   1.00
O506   O     0.90839   0.25000   0.71868   0.00000  Uiso   1.00
O507   O     0.75828   0.25000   0.69988   0.00000  Uiso   1.00
O508   O     0.90839   0.25000   0.80012   0.00000  Uiso   1.00
H509   H     0.78764   0.03061   0.80933   0.00000  Uiso   1.00
H510   H     0.81398   0.46960   0.67103   0.00000  Uiso   1.00
F511   F     0.78373   0.11526   0.81674   0.00000  Uiso   1.00
F512   F     0.81290   0.38527   0.66216   0.00000  Uiso   1.00
F513   F     0.88079   0.11490   0.68199   0.00000  Uiso   1.00
F514   F     0.85001   0.38732   0.83746   0.00000  Uiso   1.00
H515   H     0.91158   0.27567   0.54684   0.00000  Uiso   1.00
H516   H     0.78995   0.18910   0.95781   0.00000  Uiso   1.00
H517   H     0.90815   0.27838   0.63421   0.00000  Uiso   1.00
H518   H     0.78731   0.19223   0.86942   0.00000  Uiso   1.00
F519   F     0.75126   0.21568   0.61672   0.00000  Uiso   1.00
F520   F     0.88828   0.31209   0.87853   0.00000  Uiso   1.00
F521   F     0.74691   0.22121   0.51947   0.00000  Uiso   1.00
F522   F     0.88361   0.31738   0.97523   0.00000  Uiso   1.00
C523   C     0.16647   0.66501   0.74987   0.00000  Uiso   1.00
C524   C     0.16633   0.83518   0.75002   0.00000  Uiso   1.00
C525   C     0.20994   0.76488   0.55988   0.00000  Uiso   1.00
C526   C     0.14204   0.71649   0.94252   0.00000  Uiso   1.00
C527   C     0.20850   0.76563   0.61034   0.00000  Uiso   1.00
C528   C     0.14121   0.71769   0.89180   0.00000  Uiso   1.00
C529   C     0.12532   0.73363   0.59868   0.00000  Uiso   1.00
C530   C     0.19348   0.78168   0.89900   0.00000  Uiso   1.00
C531   C     0.12412   0.73445   0.54791   0.00000  Uiso   1.00
C532   C     0.19314   0.78302   0.94959   0.00000  Uiso   1.00
C533   C     0.16710   0.74980   0.52727   0.00000  Uiso   1.00
C534   C     0.16742   0.74987   0.97267   0.00000  Uiso   1.00
C535   C     0.06789   0.74995   0.73752   0.00000  Uiso   1.00
C536   C     0.26544   0.75001   0.76248   0.00000  Uiso   1.00
C537   C     0.01258   0.74991   0.73068   0.00000  Uiso   1.00
C538   C     0.32076   0.74998   0.76931   0.00000  Uiso   1.00
C539   C     0.14073   0.54789   0.78325   0.00000  Uiso   1.00
C540   C     0.15544   0.95257   0.70542   0.00000  Uiso   1.00
C541   C     0.14142   0.59370   0.78371   0.00000  Uiso   1.00
C542   C     0.15590   0.90675   0.70552   0.00000  Uiso   1.00
C543   C     0.16582   0.61684   0.74952   0.00000  Uiso   1.00
C544   C     0.16546   0.88370   0.74984   0.00000  Uiso   1.00
C545   C     0.18939   0.59350   0.71490   0.00000  Uiso   1.00
C546   C     0.17410   0.90772   0.79381   0.00000  Uiso   1.00
C547   C     0.18890   0.54766   0.71485   0.00000  Uiso   1.00
C548   C     0.17388   0.95351   0.79331   0.00000  Uiso   1.00
C549   C     0.16462   0.52459   0.74901   0.00000  Uiso   1.00
C550   C     0.16460   0.97622   0.74922   0.00000  Uiso   1.00
Cu551  Cu    0.16667   0.75000   0.79822   0.00000  Uiso   1.00
Cu552  Cu    0.16667   0.75001   0.70178   0.00000  Uiso   1.00
H553   H     0.32582   0.74984   0.69365   0.00000  Uiso   1.00
H554   H     0.00753   0.75003   0.80634   0.00000  Uiso   1.00
H555   H     0.20825   0.53020   0.68863   0.00000  Uiso   1.00
H556   H     0.18166   0.97127   0.82751   0.00000  Uiso   1.00
N557   N     0.16667   0.75001   0.62934   0.00000  Uiso   1.00
N558   N     0.16667   0.74999   0.87066   0.00000  Uiso   1.00
O559   O     0.16667   0.68573   0.79072   0.00000  Uiso   1.00
O560   O     0.16666   0.81428   0.70928   0.00000  Uiso   1.00
O561   O     0.16667   0.68573   0.70928   0.00000  Uiso   1.00
O562   O     0.16666   0.81427   0.79072   0.00000  Uiso   1.00
O563   O     0.09161   0.75000   0.78132   0.00000  Uiso   1.00
O564   O     0.24172   0.75000   0.71868   0.00000  Uiso   1.00
O565   O     0.09161   0.75000   0.69988   0.00000  Uiso   1.00
O566   O     0.24172   0.75000   0.80012   0.00000  Uiso   1.00
H567   H     0.12097   0.53061   0.80933   0.00000  Uiso   1.00
H568   H     0.14731   0.96960   0.67103   0.00000  Uiso   1.00
F569   F     0.11706   0.61526   0.81674   0.00000  Uiso   1.00
F570   F     0.14624   0.88527   0.66216   0.00000  Uiso   1.00
F571   F     0.21412   0.61490   0.68199   0.00000  Uiso   1.00
F572   F     0.18334   0.88732   0.83746   0.00000  Uiso   1.00
H573   H     0.24492   0.77567   0.54684   0.00000  Uiso   1.00
H574   H     0.12328   0.68910   0.95781   0.00000  Uiso   1.00
H575   H     0.24149   0.77838   0.63421   0.00000  Uiso   1.00
H576   H     0.12064   0.69223   0.86942   0.00000  Uiso   1.00
F577   F     0.08460   0.71568   0.61672   0.00000  Uiso   1.00
F578   F     0.22162   0.81209   0.87853   0.00000  Uiso   1.00
F579   F     0.08024   0.72121   0.51947   0.00000  Uiso   1.00
F580   F     0.21694   0.81738   0.97523   0.00000  Uiso   1.00
C581   C     0.49980   0.66501   0.74987   0.00000  Uiso   1.00
C582   C     0.49967   0.83518   0.75002   0.00000  Uiso   1.00
C583   C     0.54327   0.76488   0.55988   0.00000  Uiso   1.00
C584   C     0.47537   0.71649   0.94252   0.00000  Uiso   1.00
C585   C     0.54183   0.76563   0.61034   0.00000  Uiso   1.00
C586   C     0.47454   0.71769   0.89180   0.00000  Uiso   1.00
C587   C     0.45865   0.73363   0.59868   0.00000  Uiso   1.00
C588   C     0.52682   0.78168   0.89900   0.00000  Uiso   1.00
C589   C     0.45745   0.73445   0.54791   0.00000  Uiso   1.00
C590   C     0.52648   0.78302   0.94959   0.00000  Uiso   1.00
C591   C     0.50043   0.74980   0.52727   0.00000  Uiso   1.00
C592   C     0.50075   0.74987   0.97267   0.00000  Uiso   1.00
C593   C     0.40123   0.74995   0.73752   0.00000  Uiso   1.00
C594   C     0.59877   0.75001   0.76248   0.00000  Uiso   1.00
C595   C     0.34591   0.74991   0.73068   0.00000  Uiso   1.00
C596   C     0.65409   0.74998   0.76931   0.00000  Uiso   1.00
C597   C     0.47406   0.54789   0.78325   0.00000  Uiso   1.00
C598   C     0.48877   0.95257   0.70542   0.00000  Uiso   1.00
C599   C     0.47475   0.59370   0.78371   0.00000  Uiso   1.00
C600   C     0.48923   0.90675   0.70552   0.00000  Uiso   1.00
C601   C     0.49915   0.61684   0.74952   0.00000  Uiso   1.00
C602   C     0.49879   0.88370   0.74984   0.00000  Uiso   1.00
C603   C     0.52272   0.59350   0.71490   0.00000  Uiso   1.00
C604   C     0.50743   0.90772   0.79381   0.00000  Uiso   1.00
C605   C     0.52223   0.54766   0.71485   0.00000  Uiso   1.00
C606   C     0.50721   0.95351   0.79331   0.00000  Uiso   1.00
C607   C     0.49795   0.52459   0.74901   0.00000  Uiso   1.00
C608   C     0.49793   0.97622   0.74922   0.00000  Uiso   1.00
Cu609  Cu    0.50000   0.75000   0.79822   0.00000  Uiso   1.00
Cu610  Cu    0.50000   0.75001   0.70178   0.00000  Uiso   1.00
H611   H     0.65915   0.74984   0.69365   0.00000  Uiso   1.00
H612   H     0.34087   0.75003   0.80634   0.00000  Uiso   1.00
H613   H     0.54159   0.53020   0.68863   0.00000  Uiso   1.00
H614   H     0.51500   0.97127   0.82751   0.00000  Uiso   1.00
N615   N     0.50000   0.75001   0.62934   0.00000  Uiso   1.00
N616   N     0.50000   0.74999   0.87066   0.00000  Uiso   1.00
O617   O     0.50000   0.68573   0.79072   0.00000  Uiso   1.00
O618   O     0.50000   0.81428   0.70928   0.00000  Uiso   1.00
O619   O     0.50000   0.68573   0.70928   0.00000  Uiso   1.00
O620   O     0.50000   0.81427   0.79072   0.00000  Uiso   1.00
O621   O     0.42495   0.75000   0.78132   0.00000  Uiso   1.00
O622   O     0.57505   0.75000   0.71868   0.00000  Uiso   1.00
O623   O     0.42495   0.75000   0.69988   0.00000  Uiso   1.00
O624   O     0.57505   0.75000   0.80012   0.00000  Uiso   1.00
H625   H     0.45431   0.53061   0.80933   0.00000  Uiso   1.00
H626   H     0.48064   0.96960   0.67103   0.00000  Uiso   1.00
F627   F     0.45040   0.61526   0.81674   0.00000  Uiso   1.00
F628   F     0.47957   0.88527   0.66216   0.00000  Uiso   1.00
F629   F     0.54746   0.61490   0.68199   0.00000  Uiso   1.00
F630   F     0.51667   0.88732   0.83746   0.00000  Uiso   1.00
H631   H     0.57825   0.77567   0.54684   0.00000  Uiso   1.00
H632   H     0.45662   0.68910   0.95781   0.00000  Uiso   1.00
H633   H     0.57482   0.77838   0.63421   0.00000  Uiso   1.00
H634   H     0.45397   0.69223   0.86942   0.00000  Uiso   1.00
F635   F     0.41793   0.71568   0.61672   0.00000  Uiso   1.00
F636   F     0.55495   0.81209   0.87853   0.00000  Uiso   1.00
F637   F     0.41357   0.72121   0.51947   0.00000  Uiso   1.00
F638   F     0.55027   0.81738   0.97523   0.00000  Uiso   1.00
C639   C     0.83314   0.66501   0.74987   0.00000  Uiso   1.00
C640   C     0.83300   0.83518   0.75002   0.00000  Uiso   1.00
C641   C     0.87661   0.76488   0.55988   0.00000  Uiso   1.00
C642   C     0.80870   0.71649   0.94252   0.00000  Uiso   1.00
C643   C     0.87516   0.76563   0.61034   0.00000  Uiso   1.00
C644   C     0.80787   0.71769   0.89180   0.00000  Uiso   1.00
C645   C     0.79199   0.73363   0.59868   0.00000  Uiso   1.00
C646   C     0.86015   0.78168   0.89900   0.00000  Uiso   1.00
C647   C     0.79079   0.73445   0.54791   0.00000  Uiso   1.00
C648   C     0.85981   0.78302   0.94959   0.00000  Uiso   1.00
C649   C     0.83377   0.74980   0.52727   0.00000  Uiso   1.00
C650   C     0.83409   0.74987   0.97267   0.00000  Uiso   1.00
C651   C     0.73456   0.74995   0.73752   0.00000  Uiso   1.00
C652   C     0.93211   0.75001   0.76248   0.00000  Uiso   1.00
C653   C     0.67924   0.74991   0.73068   0.00000  Uiso   1.00
C654   C     0.98743   0.74998   0.76931   0.00000  Uiso   1.00
C655   C     0.80740   0.54789   0.78325   0.00000  Uiso   1.00
C656   C     0.82210   0.95257   0.70542   0.00000  Uiso   1.00
C657   C     0.80809   0.59370   0.78371   0.00000  Uiso   1.00
C658   C     0.82257   0.90675   0.70552   0.00000  Uiso   1.00
C659   C     0.83248   0.61684   0.74952   0.00000  Uiso   1.00
C660   C     0.83213   0.88370   0.74984   0.00000  Uiso   1.00
C661   C     0.85606   0.59350   0.71490   0.00000  Uiso   1.00
C662   C     0.84076   0.90772   0.79381   0.00000  Uiso   1.00
C663   C     0.85556   0.54766   0.71485   0.00000  Uiso   1.00
C664   C     0.84054   0.95351   0.79331   0.00000  Uiso   1.00
C665   C     0.83129   0.52459   0.74901   0.00000  Uiso   1.00
C666   C     0.83126   0.97622   0.74922   0.00000  Uiso   1.00
Cu667  Cu    0.83333   0.75000   0.79822   0.00000  Uiso   1.00
Cu668  Cu    0.83333   0.75001   0.70178   0.00000  Uiso   1.00
H669   H     0.99249   0.74984   0.69365   0.00000  Uiso   1.00
H670   H     0.67420   0.75003   0.80634   0.00000  Uiso   1.00
H671   H     0.87492   0.53020   0.68863   0.00000  Uiso   1.00
H672   H     0.84833   0.97127   0.82751   0.00000  Uiso   1.00
N673   N     0.83333   0.75001   0.62934   0.00000  Uiso   1.00
N674   N     0.83333   0.74999   0.87066   0.00000  Uiso   1.00
O675   O     0.83334   0.68573   0.79072   0.00000  Uiso   1.00
O676   O     0.83333   0.81428   0.70928   0.00000  Uiso   1.00
O677   O     0.83334   0.68573   0.70928   0.00000  Uiso   1.00
O678   O     0.83333   0.81427   0.79072   0.00000  Uiso   1.00
O679   O     0.75828   0.75000   0.78132   0.00000  Uiso   1.00
O680   O     0.90839   0.75000   0.71868   0.00000  Uiso   1.00
O681   O     0.75828   0.75000   0.69988   0.00000  Uiso   1.00
O682   O     0.90839   0.75000   0.80012   0.00000  Uiso   1.00
H683   H     0.78764   0.53061   0.80933   0.00000  Uiso   1.00
H684   H     0.81398   0.96960   0.67103   0.00000  Uiso   1.00
F685   F     0.78373   0.61526   0.81674   0.00000  Uiso   1.00
F686   F     0.81290   0.88527   0.66216   0.00000  Uiso   1.00
F687   F     0.88079   0.61490   0.68199   0.00000  Uiso   1.00
F688   F     0.85001   0.88732   0.83746   0.00000  Uiso   1.00
H689   H     0.91158   0.77567   0.54684   0.00000  Uiso   1.00
H690   H     0.78995   0.68910   0.95781   0.00000  Uiso   1.00
H691   H     0.90815   0.77838   0.63421   0.00000  Uiso   1.00
H692   H     0.78731   0.69223   0.86942   0.00000  Uiso   1.00
F693   F     0.75126   0.71568   0.61672   0.00000  Uiso   1.00
F694   F     0.88828   0.81209   0.87853   0.00000  Uiso   1.00
F695   F     0.74691   0.72121   0.51947   0.00000  Uiso   1.00
F696   F     0.88361   0.81738   0.97523   0.00000  Uiso   1.00
loop_
_geom_bond_atom_site_label_1
_geom_bond_atom_site_label_2
_geom_bond_distance
_geom_bond_site_symmetry_2
_ccdc_geom_bond_type
C1     C21     1.461   .     S
C1     O37     1.294   .     A
C1     O39     1.294   .     A
C2     C22     1.472   .     S
C2     O38     1.296   .     A
C2     O40     1.298   .     A
C3     C11     1.411   .     A
C3     H51     1.081   .     S
C3     C5      1.408   .     A
C4     H52     1.081   .     S
C4     C6      1.407   .     A
C4     C12     1.412   .     A
C5     N35     1.365   .     A
C5     H53     1.080   .     S
C6     N36     1.363   .     A
C6     H54     1.081   .     S
C7     F55     1.354   .     S
C7     C9      1.406   .     A
C7     N35     1.369   .     A
C8     F56     1.353   .     S
C8     N36     1.366   .     A
C8     C10     1.407   .     A
C9     C11     1.411   .     A
C9     F57     1.357   .     S
C10    C12     1.413   .     A
C10    F58     1.357   .     S
C11    C360    1.518   1_554 S
C12    C359    1.518   .     S
C13    O41     1.286   .     A
C13    C15     1.435   .     S
C13    O43     1.290   .     A
C14    O42     1.286   .     A
C14    C16     1.435   .     S
C14    O44     1.290   .     A
C15    C132    1.337   1_455 S
C15    H147    1.087   1_455 S
C16    C73     1.337   .     S
C16    H90     1.087   .     S
C17    H45     1.083   .     S
C17    C19     1.390   .     A
C17    C27     1.402   .     A
C18    C28     1.400   .     A
C18    H46     1.083   .     S
C18    C20     1.390   .     A
C19    C21     1.405   .     A
C19    F47     1.358   .     S
C20    C22     1.411   .     A
C20    F48     1.358   .     S
C21    C23     1.406   .     A
C22    C24     1.409   .     A
C23    F49     1.358   .     S
C23    C25     1.390   .     A
C24    F50     1.356   .     S
C24    C26     1.389   .     A
C25    C27     1.402   .     A
C25    H33     1.083   .     S
C26    C28     1.400   .     A
C26    H34     1.083   .     S
C27    C202    1.467   1_545 S
C28    C201    1.467   .     S
Cu29   Cu30    2.679   .     S
Cu29   O41     1.956   .     S
Cu29   N36     2.012   .     S
Cu29   O40     1.962   .     S
Cu29   O44     1.960   .     S
Cu29   O37     1.960   .     S
Cu30   N35     2.012   .     S
Cu30   O39     1.962   .     S
Cu30   O43     1.960   .     S
Cu30   O38     1.960   .     S
Cu30   O42     1.956   .     S
H31    C73     1.087   .     S
H32    C132    1.087   1_455 S
C59    C79     1.461   .     S
C59    O95     1.294   .     A
C59    O97     1.294   .     A
C60    C80     1.472   .     S
C60    O96     1.296   .     A
C60    O98     1.298   .     A
C61    C69     1.411   .     A
C61    H109    1.081   .     S
C61    C63     1.408   .     A
C62    H110    1.081   .     S
C62    C64     1.407   .     A
C62    C70     1.412   .     A
C63    N93     1.365   .     A
C63    H111    1.080   .     S
C64    N94     1.363   .     A
C64    H112    1.081   .     S
C65    F113    1.354   .     S
C65    C67     1.406   .     A
C65    N93     1.369   .     A
C66    F114    1.353   .     S
C66    N94     1.366   .     A
C66    C68     1.407   .     A
C67    C69     1.411   .     A
C67    F115    1.357   .     S
C68    C70     1.413   .     A
C68    F116    1.357   .     S
C69    C418    1.518   1_554 S
C70    C417    1.518   .     S
C71    O99     1.286   .     A
C71    C73     1.435   .     S
C71    O101    1.290   .     A
C72    O100    1.286   .     A
C72    C74     1.435   .     S
C72    O102    1.290   .     A
C74    C131    1.337   .     S
C74    H148    1.087   .     S
C75    H103    1.083   .     S
C75    C77     1.390   .     A
C75    C85     1.402   .     A
C76    C86     1.400   .     A
C76    H104    1.083   .     S
C76    C78     1.390   .     A
C77    C79     1.405   .     A
C77    F105    1.358   .     S
C78    C80     1.411   .     A
C78    F106    1.358   .     S
C79    C81     1.406   .     A
C80    C82     1.409   .     A
C81    F107    1.358   .     S
C81    C83     1.390   .     A
C82    F108    1.356   .     S
C82    C84     1.389   .     A
C83    C85     1.402   .     A
C83    H91     1.083   .     S
C84    C86     1.400   .     A
C84    H92     1.083   .     S
C85    C260    1.467   1_545 S
C86    C259    1.467   .     S
Cu87   Cu88    2.679   .     S
Cu87   O99     1.956   .     S
Cu87   N94     2.012   .     S
Cu87   O98     1.962   .     S
Cu87   O102    1.960   .     S
Cu87   O95     1.960   .     S
Cu88   N93     2.012   .     S
Cu88   O97     1.962   .     S
Cu88   O101    1.960   .     S
Cu88   O96     1.960   .     S
Cu88   O100    1.956   .     S
H89    C131    1.087   .     S
C117   C137    1.461   .     S
C117   O153    1.294   .     A
C117   O155    1.294   .     A
C118   C138    1.472   .     S
C118   O154    1.296   .     A
C118   O156    1.298   .     A
C119   C127    1.411   .     A
C119   H167    1.081   .     S
C119   C121    1.408   .     A
C120   H168    1.081   .     S
C120   C122    1.407   .     A
C120   C128    1.412   .     A
C121   N151    1.365   .     A
C121   H169    1.080   .     S
C122   N152    1.363   .     A
C122   H170    1.081   .     S
C123   F171    1.354   .     S
C123   C125    1.406   .     A
C123   N151    1.369   .     A
C124   F172    1.353   .     S
C124   N152    1.366   .     A
C124   C126    1.407   .     A
C125   C127    1.411   .     A
C125   F173    1.357   .     S
C126   C128    1.413   .     A
C126   F174    1.357   .     S
C127   C476    1.518   1_554 S
C128   C475    1.518   .     S
C129   O157    1.286   .     A
C129   C131    1.435   .     S
C129   O159    1.290   .     A
C130   O158    1.286   .     A
C130   C132    1.435   .     S
C130   O160    1.290   .     A
C132   C15     1.337   1_655 S
C132   H32     1.087   1_655 S
C133   H161    1.083   .     S
C133   C135    1.390   .     A
C133   C143    1.402   .     A
C134   C144    1.400   .     A
C134   H162    1.083   .     S
C134   C136    1.390   .     A
C135   C137    1.405   .     A
C135   F163    1.358   .     S
C136   C138    1.411   .     A
C136   F164    1.358   .     S
C137   C139    1.406   .     A
C138   C140    1.409   .     A
C139   F165    1.358   .     S
C139   C141    1.390   .     A
C140   F166    1.356   .     S
C140   C142    1.389   .     A
C141   C143    1.402   .     A
C141   H149    1.083   .     S
C142   C144    1.400   .     A
C142   H150    1.083   .     S
C143   C318    1.467   1_545 S
C144   C317    1.467   .     S
Cu145  Cu146   2.679   .     S
Cu145  O157    1.956   .     S
Cu145  N152    2.012   .     S
Cu145  O156    1.962   .     S
Cu145  O160    1.960   .     S
Cu145  O153    1.960   .     S
Cu146  N151    2.012   .     S
Cu146  O155    1.962   .     S
Cu146  O159    1.960   .     S
Cu146  O154    1.960   .     S
Cu146  O158    1.956   .     S
H147   C15     1.087   1_655 S
C175   C195    1.461   .     S
C175   O211    1.294   .     A
C175   O213    1.294   .     A
C176   C196    1.472   .     S
C176   O212    1.296   .     A
C176   O214    1.298   .     A
C177   C185    1.411   .     A
C177   H225    1.081   .     S
C177   C179    1.408   .     A
C178   H226    1.081   .     S
C178   C180    1.407   .     A
C178   C186    1.412   .     A
C179   N209    1.365   .     A
C179   H227    1.080   .     S
C180   N210    1.363   .     A
C180   H228    1.081   .     S
C181   F229    1.354   .     S
C181   C183    1.406   .     A
C181   N209    1.369   .     A
C182   F230    1.353   .     S
C182   N210    1.366   .     A
C182   C184    1.407   .     A
C183   C185    1.411   .     A
C183   F231    1.357   .     S
C184   C186    1.413   .     A
C184   F232    1.357   .     S
C185   C534    1.518   1_554 S
C186   C533    1.518   .     S
C187   O215    1.286   .     A
C187   C189    1.435   .     S
C187   O217    1.290   .     A
C188   O216    1.286   .     A
C188   C190    1.435   .     S
C188   O218    1.290   .     A
C189   C306    1.337   1_455 S
C189   H321    1.087   1_455 S
C190   C247    1.337   .     S
C190   H264    1.087   .     S
C191   H219    1.083   .     S
C191   C193    1.390   .     A
C191   C201    1.402   .     A
C192   C202    1.400   .     A
C192   H220    1.083   .     S
C192   C194    1.390   .     A
C193   C195    1.405   .     A
C193   F221    1.358   .     S
C194   C196    1.411   .     A
C194   F222    1.358   .     S
C195   C197    1.406   .     A
C196   C198    1.409   .     A
C197   F223    1.358   .     S
C197   C199    1.390   .     A
C198   F224    1.356   .     S
C198   C200    1.389   .     A
C199   C201    1.402   .     A
C199   H207    1.083   .     S
C200   C202    1.400   .     A
C200   H208    1.083   .     S
C202   C27     1.467   1_565 S
Cu203  Cu204   2.679   .     S
Cu203  O215    1.956   .     S
Cu203  N210    2.012   .     S
Cu203  O214    1.962   .     S
Cu203  O218    1.960   .     S
Cu203  O211    1.960   .     S
Cu204  N209    2.012   .     S
Cu204  O213    1.962   .     S
Cu204  O217    1.960   .     S
Cu204  O212    1.960   .     S
Cu204  O216    1.956   .     S
H205   C247    1.087   .     S
H206   C306    1.087   1_455 S
C233   C253    1.461   .     S
C233   O269    1.294   .     A
C233   O271    1.294   .     A
C234   C254    1.472   .     S
C234   O270    1.296   .     A
C234   O272    1.298   .     A
C235   C243    1.411   .     A
C235   H283    1.081   .     S
C235   C237    1.408   .     A
C236   H284    1.081   .     S
C236   C238    1.407   .     A
C236   C244    1.412   .     A
C237   N267    1.365   .     A
C237   H285    1.080   .     S
C238   N268    1.363   .     A
C238   H286    1.081   .     S
C239   F287    1.354   .     S
C239   C241    1.406   .     A
C239   N267    1.369   .     A
C240   F288    1.353   .     S
C240   N268    1.366   .     A
C240   C242    1.407   .     A
C241   C243    1.411   .     A
C241   F289    1.357   .     S
C242   C244    1.413   .     A
C242   F290    1.357   .     S
C243   C592    1.518   1_554 S
C244   C591    1.518   .     S
C245   O273    1.286   .     A
C245   C247    1.435   .     S
C245   O275    1.290   .     A
C246   O274    1.286   .     A
C246   C248    1.435   .     S
C246   O276    1.290   .     A
C248   C305    1.337   .     S
C248   H322    1.087   .     S
C249   H277    1.083   .     S
C249   C251    1.390   .     A
C249   C259    1.402   .     A
C250   C260    1.400   .     A
C250   H278    1.083   .     S
C250   C252    1.390   .     A
C251   C253    1.405   .     A
C251   F279    1.358   .     S
C252   C254    1.411   .     A
C252   F280    1.358   .     S
C253   C255    1.406   .     A
C254   C256    1.409   .     A
C255   F281    1.358   .     S
C255   C257    1.390   .     A
C256   F282    1.356   .     S
C256   C258    1.389   .     A
C257   C259    1.402   .     A
C257   H265    1.083   .     S
C258   C260    1.400   .     A
C258   H266    1.083   .     S
C260   C85     1.467   1_565 S
Cu261  Cu262   2.679   .     S
Cu261  O273    1.956   .     S
Cu261  N268    2.012   .     S
Cu261  O272    1.962   .     S
Cu261  O276    1.960   .     S
Cu261  O269    1.960   .     S
Cu262  N267    2.012   .     S
Cu262  O271    1.962   .     S
Cu262  O275    1.960   .     S
Cu262  O270    1.960   .     S
Cu262  O274    1.956   .     S
H263   C305    1.087   .     S
C291   C311    1.461   .     S
C291   O327    1.294   .     A
C291   O329    1.294   .     A
C292   C312    1.472   .     S
C292   O328    1.296   .     A
C292   O330    1.298   .     A
C293   C301    1.411   .     A
C293   H341    1.081   .     S
C293   C295    1.408   .     A
C294   H342    1.081   .     S
C294   C296    1.407   .     A
C294   C302    1.412   .     A
C295   N325    1.365   .     A
C295   H343    1.080   .     S
C296   N326    1.363   .     A
C296   H344    1.081   .     S
C297   F345    1.354   .     S
C297   C299    1.406   .     A
C297   N325    1.369   .     A
C298   F346    1.353   .     S
C298   N326    1.366   .     A
C298   C300    1.407   .     A
C299   C301    1.411   .     A
C299   F347    1.357   .     S
C300   C302    1.413   .     A
C300   F348    1.357   .     S
C301   C650    1.518   1_554 S
C302   C649    1.518   .     S
C303   O331    1.286   .     A
C303   C305    1.435   .     S
C303   O333    1.290   .     A
C304   O332    1.286   .     A
C304   C306    1.435   .     S
C304   O334    1.290   .     A
C306   C189    1.337   1_655 S
C306   H206    1.087   1_655 S
C307   H335    1.083   .     S
C307   C309    1.390   .     A
C307   C317    1.402   .     A
C308   C318    1.400   .     A
C308   H336    1.083   .     S
C308   C310    1.390   .     A
C309   C311    1.405   .     A
C309   F337    1.358   .     S
C310   C312    1.411   .     A
C310   F338    1.358   .     S
C311   C313    1.406   .     A
C312   C314    1.409   .     A
C313   F339    1.358   .     S
C313   C315    1.390   .     A
C314   F340    1.356   .     S
C314   C316    1.389   .     A
C315   C317    1.402   .     A
C315   H323    1.083   .     S
C316   C318    1.400   .     A
C316   H324    1.083   .     S
C318   C143    1.467   1_565 S
Cu319  Cu320   2.679   .     S
Cu319  O331    1.956   .     S
Cu319  N326    2.012   .     S
Cu319  O330    1.962   .     S
Cu319  O334    1.960   .     S
Cu319  O327    1.960   .     S
Cu320  N325    2.012   .     S
Cu320  O329    1.962   .     S
Cu320  O333    1.960   .     S
Cu320  O328    1.960   .     S
Cu320  O332    1.956   .     S
H321   C189    1.087   1_655 S
C349   C369    1.461   .     S
C349   O385    1.294   .     A
C349   O387    1.294   .     A
C350   C370    1.472   .     S
C350   O386    1.296   .     A
C350   O388    1.298   .     A
C351   C359    1.411   .     A
C351   H399    1.081   .     S
C351   C353    1.408   .     A
C352   H400    1.081   .     S
C352   C354    1.407   .     A
C352   C360    1.412   .     A
C353   N383    1.365   .     A
C353   H401    1.080   .     S
C354   N384    1.363   .     A
C354   H402    1.081   .     S
C355   F403    1.354   .     S
C355   C357    1.406   .     A
C355   N383    1.369   .     A
C356   F404    1.353   .     S
C356   N384    1.366   .     A
C356   C358    1.407   .     A
C357   C359    1.411   .     A
C357   F405    1.357   .     S
C358   C360    1.413   .     A
C358   F406    1.357   .     S
C360   C11     1.518   1_556 S
C361   O389    1.286   .     A
C361   C363    1.435   .     S
C361   O391    1.290   .     A
C362   O390    1.286   .     A
C362   C364    1.435   .     S
C362   O392    1.290   .     A
C363   C480    1.337   1_455 S
C363   H495    1.087   1_455 S
C364   C421    1.337   .     S
C364   H438    1.087   .     S
C365   H393    1.083   .     S
C365   C367    1.390   .     A
C365   C375    1.402   .     A
C366   C376    1.400   .     A
C366   H394    1.083   .     S
C366   C368    1.390   .     A
C367   C369    1.405   .     A
C367   F395    1.358   .     S
C368   C370    1.411   .     A
C368   F396    1.358   .     S
C369   C371    1.406   .     A
C370   C372    1.409   .     A
C371   F397    1.358   .     S
C371   C373    1.390   .     A
C372   F398    1.356   .     S
C372   C374    1.389   .     A
C373   C375    1.402   .     A
C373   H381    1.083   .     S
C374   C376    1.400   .     A
C374   H382    1.083   .     S
C375   C550    1.467   1_545 S
C376   C549    1.467   .     S
Cu377  Cu378   2.679   .     S
Cu377  O389    1.956   .     S
Cu377  N384    2.012   .     S
Cu377  O388    1.962   .     S
Cu377  O392    1.960   .     S
Cu377  O385    1.960   .     S
Cu378  N383    2.012   .     S
Cu378  O387    1.962   .     S
Cu378  O391    1.960   .     S
Cu378  O386    1.960   .     S
Cu378  O390    1.956   .     S
H379   C421    1.087   .     S
H380   C480    1.087   1_455 S
C407   C427    1.461   .     S
C407   O443    1.294   .     A
C407   O445    1.294   .     A
C408   C428    1.472   .     S
C408   O444    1.296   .     A
C408   O446    1.298   .     A
C409   C417    1.411   .     A
C409   H457    1.081   .     S
C409   C411    1.408   .     A
C410   H458    1.081   .     S
C410   C412    1.407   .     A
C410   C418    1.412   .     A
C411   N441    1.365   .     A
C411   H459    1.080   .     S
C412   N442    1.363   .     A
C412   H460    1.081   .     S
C413   F461    1.354   .     S
C413   C415    1.406   .     A
C413   N441    1.369   .     A
C414   F462    1.353   .     S
C414   N442    1.366   .     A
C414   C416    1.407   .     A
C415   C417    1.411   .     A
C415   F463    1.357   .     S
C416   C418    1.413   .     A
C416   F464    1.357   .     S
C418   C69     1.518   1_556 S
C419   O447    1.286   .     A
C419   C421    1.435   .     S
C419   O449    1.290   .     A
C420   O448    1.286   .     A
C420   C422    1.435   .     S
C420   O450    1.290   .     A
C422   C479    1.337   .     S
C422   H496    1.087   .     S
C423   H451    1.083   .     S
C423   C425    1.390   .     A
C423   C433    1.402   .     A
C424   C434    1.400   .     A
C424   H452    1.083   .     S
C424   C426    1.390   .     A
C425   C427    1.405   .     A
C425   F453    1.358   .     S
C426   C428    1.411   .     A
C426   F454    1.358   .     S
C427   C429    1.406   .     A
C428   C430    1.409   .     A
C429   F455    1.358   .     S
C429   C431    1.390   .     A
C430   F456    1.356   .     S
C430   C432    1.389   .     A
C431   C433    1.402   .     A
C431   H439    1.083   .     S
C432   C434    1.400   .     A
C432   H440    1.083   .     S
C433   C608    1.467   1_545 S
C434   C607    1.467   .     S
Cu435  Cu436   2.679   .     S
Cu435  O447    1.956   .     S
Cu435  N442    2.012   .     S
Cu435  O446    1.962   .     S
Cu435  O450    1.960   .     S
Cu435  O443    1.960   .     S
Cu436  N441    2.012   .     S
Cu436  O445    1.962   .     S
Cu436  O449    1.960   .     S
Cu436  O444    1.960   .     S
Cu436  O448    1.956   .     S
H437   C479    1.087   .     S
C465   C485    1.461   .     S
C465   O501    1.294   .     A
C465   O503    1.294   .     A
C466   C486    1.472   .     S
C466   O502    1.296   .     A
C466   O504    1.298   .     A
C467   C475    1.411   .     A
C467   H515    1.081   .     S
C467   C469    1.408   .     A
C468   H516    1.081   .     S
C468   C470    1.407   .     A
C468   C476    1.412   .     A
C469   N499    1.365   .     A
C469   H517    1.080   .     S
C470   N500    1.363   .     A
C470   H518    1.081   .     S
C471   F519    1.354   .     S
C471   C473    1.406   .     A
C471   N499    1.369   .     A
C472   F520    1.353   .     S
C472   N500    1.366   .     A
C472   C474    1.407   .     A
C473   C475    1.411   .     A
C473   F521    1.357   .     S
C474   C476    1.413   .     A
C474   F522    1.357   .     S
C476   C127    1.518   1_556 S
C477   O505    1.286   .     A
C477   C479    1.435   .     S
C477   O507    1.290   .     A
C478   O506    1.286   .     A
C478   C480    1.435   .     S
C478   O508    1.290   .     A
C480   C363    1.337   1_655 S
C480   H380    1.087   1_655 S
C481   H509    1.083   .     S
C481   C483    1.390   .     A
C481   C491    1.402   .     A
C482   C492    1.400   .     A
C482   H510    1.083   .     S
C482   C484    1.390   .     A
C483   C485    1.405   .     A
C483   F511    1.358   .     S
C484   C486    1.411   .     A
C484   F512    1.358   .     S
C485   C487    1.406   .     A
C486   C488    1.409   .     A
C487   F513    1.358   .     S
C487   C489    1.390   .     A
C488   F514    1.356   .     S
C488   C490    1.389   .     A
C489   C491    1.402   .     A
C489   H497    1.083   .     S
C490   C492    1.400   .     A
C490   H498    1.083   .     S
C491   C666    1.467   1_545 S
C492   C665    1.467   .     S
Cu493  Cu494   2.679   .     S
Cu493  O505    1.956   .     S
Cu493  N500    2.012   .     S
Cu493  O504    1.962   .     S
Cu493  O508    1.960   .     S
Cu493  O501    1.960   .     S
Cu494  N499    2.012   .     S
Cu494  O503    1.962   .     S
Cu494  O507    1.960   .     S
Cu494  O502    1.960   .     S
Cu494  O506    1.956   .     S
H495   C363    1.087   1_655 S
C523   C543    1.461   .     S
C523   O559    1.294   .     A
C523   O561    1.294   .     A
C524   C544    1.472   .     S
C524   O560    1.296   .     A
C524   O562    1.298   .     A
C525   C533    1.411   .     A
C525   H573    1.081   .     S
C525   C527    1.408   .     A
C526   H574    1.081   .     S
C526   C528    1.407   .     A
C526   C534    1.412   .     A
C527   N557    1.365   .     A
C527   H575    1.080   .     S
C528   N558    1.363   .     A
C528   H576    1.081   .     S
C529   F577    1.354   .     S
C529   C531    1.406   .     A
C529   N557    1.369   .     A
C530   F578    1.353   .     S
C530   N558    1.366   .     A
C530   C532    1.407   .     A
C531   C533    1.411   .     A
C531   F579    1.357   .     S
C532   C534    1.413   .     A
C532   F580    1.357   .     S
C534   C185    1.518   1_556 S
C535   O563    1.286   .     A
C535   C537    1.435   .     S
C535   O565    1.290   .     A
C536   O564    1.286   .     A
C536   C538    1.435   .     S
C536   O566    1.290   .     A
C537   C654    1.337   1_455 S
C537   H669    1.087   1_455 S
C538   C595    1.337   .     S
C538   H612    1.087   .     S
C539   H567    1.083   .     S
C539   C541    1.390   .     A
C539   C549    1.402   .     A
C540   C550    1.400   .     A
C540   H568    1.083   .     S
C540   C542    1.390   .     A
C541   C543    1.405   .     A
C541   F569    1.358   .     S
C542   C544    1.411   .     A
C542   F570    1.358   .     S
C543   C545    1.406   .     A
C544   C546    1.409   .     A
C545   F571    1.358   .     S
C545   C547    1.390   .     A
C546   F572    1.356   .     S
C546   C548    1.389   .     A
C547   C549    1.402   .     A
C547   H555    1.083   .     S
C548   C550    1.400   .     A
C548   H556    1.083   .     S
C550   C375    1.467   1_565 S
Cu551  Cu552   2.679   .     S
Cu551  O563    1.956   .     S
Cu551  N558    2.012   .     S
Cu551  O562    1.962   .     S
Cu551  O566    1.960   .     S
Cu551  O559    1.960   .     S
Cu552  N557    2.012   .     S
Cu552  O561    1.962   .     S
Cu552  O565    1.960   .     S
Cu552  O560    1.960   .     S
Cu552  O564    1.956   .     S
H553   C595    1.087   .     S
H554   C654    1.087   1_455 S
C581   C601    1.461   .     S
C581   O617    1.294   .     A
C581   O619    1.294   .     A
C582   C602    1.472   .     S
C582   O618    1.296   .     A
C582   O620    1.298   .     A
C583   C591    1.411   .     A
C583   H631    1.081   .     S
C583   C585    1.408   .     A
C584   H632    1.081   .     S
C584   C586    1.407   .     A
C584   C592    1.412   .     A
C585   N615    1.365   .     A
C585   H633    1.080   .     S
C586   N616    1.363   .     A
C586   H634    1.081   .     S
C587   F635    1.354   .     S
C587   C589    1.406   .     A
C587   N615    1.369   .     A
C588   F636    1.353   .     S
C588   N616    1.366   .     A
C588   C590    1.407   .     A
C589   C591    1.411   .     A
C589   F637    1.357   .     S
C590   C592    1.413   .     A
C590   F638    1.357   .     S
C592   C243    1.518   1_556 S
C593   O621    1.286   .     A
C593   C595    1.435   .     S
C593   O623    1.290   .     A
C594   O622    1.286   .     A
C594   C596    1.435   .     S
C594   O624    1.290   .     A
C596   C653    1.337   .     S
C596   H670    1.087   .     S
C597   H625    1.083   .     S
C597   C599    1.390   .     A
C597   C607    1.402   .     A
C598   C608    1.400   .     A
C598   H626    1.083   .     S
C598   C600    1.390   .     A
C599   C601    1.405   .     A
C599   F627    1.358   .     S
C600   C602    1.411   .     A
C600   F628    1.358   .     S
C601   C603    1.406   .     A
C602   C604    1.409   .     A
C603   F629    1.358   .     S
C603   C605    1.390   .     A
C604   F630    1.356   .     S
C604   C606    1.389   .     A
C605   C607    1.402   .     A
C605   H613    1.083   .     S
C606   C608    1.400   .     A
C606   H614    1.083   .     S
C608   C433    1.467   1_565 S
Cu609  Cu610   2.679   .     S
Cu609  O621    1.956   .     S
Cu609  N616    2.012   .     S
Cu609  O620    1.962   .     S
Cu609  O624    1.960   .     S
Cu609  O617    1.960   .     S
Cu610  N615    2.012   .     S
Cu610  O619    1.962   .     S
Cu610  O623    1.960   .     S
Cu610  O618    1.960   .     S
Cu610  O622    1.956   .     S
H611   C653    1.087   .     S
C639   C659    1.461   .     S
C639   O675    1.294   .     A
C639   O677    1.294   .     A
C640   C660    1.472   .     S
C640   O676    1.296   .     A
C640   O678    1.298   .     A
C641   C649    1.411   .     A
C641   H689    1.081   .     S
C641   C643    1.408   .     A
C642   H690    1.081   .     S
C642   C644    1.407   .     A
C642   C650    1.412   .     A
C643   N673    1.365   .     A
C643   H691    1.080   .     S
C644   N674    1.363   .     A
C644   H692    1.081   .     S
C645   F693    1.354   .     S
C645   C647    1.406   .     A
C645   N673    1.369   .     A
C646   F694    1.353   .     S
C646   N674    1.366   .     A
C646   C648    1.407   .     A
C647   C649    1.411   .     A
C647   F695    1.357   .     S
C648   C650    1.413   .     A
C648   F696    1.357   .     S
C650   C301    1.518   1_556 S
C651   O679    1.286   .     A
C651   C653    1.435   .     S
C651   O681    1.290   .     A
C652   O680    1.286   .     A
C652   C654    1.435   .     S
C652   O682    1.290   .     A
C654   C537    1.337   1_655 S
C654   H554    1.087   1_655 S
C655   H683    1.083   .     S
C655   C657    1.390   .     A
C655   C665    1.402   .     A
C656   C666    1.400   .     A
C656   H684    1.083   .     S
C656   C658    1.390   .     A
C657   C659    1.405   .     A
C657   F685    1.358   .     S
C658   C660    1.411   .     A
C658   F686    1.358   .     S
C659   C661    1.406   .     A
C660   C662    1.409   .     A
C661   F687    1.358   .     S
C661   C663    1.390   .     A
C662   F688    1.356   .     S
C662   C664    1.389   .     A
C663   C665    1.402   .     A
C663   H671    1.083   .     S
C664   C666    1.400   .     A
C664   H672    1.083   .     S
C666   C491    1.467   1_565 S
Cu667  Cu668   2.679   .     S
Cu667  O679    1.956   .     S
Cu667  N674    2.012   .     S
Cu667  O678    1.962   .     S
Cu667  O682    1.960   .     S
Cu667  O675    1.960   .     S
Cu668  N673    2.012   .     S
Cu668  O677    1.962   .     S
Cu668  O681    1.960   .     S
Cu668  O676    1.960   .     S
Cu668  O680    1.956   .     S
H669   C537    1.087   1_655 S
