data_str_m1_o1_o2_pcu_sym.97
_audit_creation_date              2020-01-03
_audit_creation_method            'Materials Studio'
_symmetry_space_group_name_H-M    'P1'
_symmetry_Int_Tables_number       1
_symmetry_cell_setting            triclinic
loop_
_symmetry_equiv_pos_as_xyz
  x,y,z
_cell_length_a                    36.5650
_cell_length_b                    36.5652
_cell_length_c                    34.5283
_cell_angle_alpha                 90.0008
_cell_angle_beta                  90.0010
_cell_angle_gamma                 89.9806
loop_
_atom_site_label
_atom_site_type_symbol
_atom_site_fract_x
_atom_site_fract_y
_atom_site_fract_z
_atom_site_U_iso_or_equiv
_atom_site_adp_type
_atom_site_occupancy
Br1    Br    0.10291   0.46137   0.27150   0.00000  Uiso   1.00
Br2    Br    0.32708   0.39144   0.16940   0.00000  Uiso   1.00
Br3    Br    0.03861   0.39711   0.72860   0.00000  Uiso   1.00
Br4    Br    0.46137   0.10291   0.27151   0.00000  Uiso   1.00
Br5    Br    0.32707   0.39140   0.83056   0.00000  Uiso   1.00
Br6    Br    0.17235   0.10801   0.16912   0.00000  Uiso   1.00
Br7    Br    0.46137   0.10291   0.72849   0.00000  Uiso   1.00
Br8    Br    0.03863   0.39709   0.27151   0.00000  Uiso   1.00
Br9    Br    0.35291   0.21137   0.77151   0.00000  Uiso   1.00
Br10   Br    0.14709   0.28863   0.22849   0.00000  Uiso   1.00
Br11   Br    0.35860   0.42293   0.66943   0.00000  Uiso   1.00
Br12   Br    0.39709   0.03863   0.72848   0.00000  Uiso   1.00
Br13   Br    0.14198   0.07763   0.33086   0.00000  Uiso   1.00
Br14   Br    0.14711   0.28861   0.77140   0.00000  Uiso   1.00
Br15   Br    0.35291   0.21137   0.22849   0.00000  Uiso   1.00
Br16   Br    0.14173   0.07740   0.66927   0.00000  Uiso   1.00
Br17   Br    0.35856   0.42292   0.33059   0.00000  Uiso   1.00
Br18   Br    0.42299   0.35866   0.33055   0.00000  Uiso   1.00
Br19   Br    0.07751   0.14186   0.66920   0.00000  Uiso   1.00
Br20   Br    0.28863   0.14709   0.22850   0.00000  Uiso   1.00
Br21   Br    0.21139   0.35289   0.77141   0.00000  Uiso   1.00
Br22   Br    0.07757   0.14187   0.33082   0.00000  Uiso   1.00
Br23   Br    0.10813   0.17245   0.16919   0.00000  Uiso   1.00
Br24   Br    0.42287   0.35850   0.66939   0.00000  Uiso   1.00
Br25   Br    0.21137   0.35291   0.22849   0.00000  Uiso   1.00
Br26   Br    0.28863   0.14709   0.77152   0.00000  Uiso   1.00
Br27   Br    0.39152   0.32716   0.83063   0.00000  Uiso   1.00
Br28   Br    0.39709   0.03863   0.27151   0.00000  Uiso   1.00
Br29   Br    0.10289   0.46139   0.72859   0.00000  Uiso   1.00
Br30   Br    0.39134   0.32701   0.16945   0.00000  Uiso   1.00
Br31   Br    0.10815   0.17250   0.83079   0.00000  Uiso   1.00
Br32   Br    0.17258   0.10827   0.83075   0.00000  Uiso   1.00
C33    C     0.22299   0.02009   0.04205   0.00000  Uiso   1.00
C34    C     0.02767   0.26914   0.45801   0.00000  Uiso   1.00
C35    C     0.34809   0.40191   0.75000   0.00000  Uiso   1.00
C36    C     0.40191   0.15191   0.25000   0.00000  Uiso   1.00
C37    C     0.09809   0.34809   0.75000   0.00000  Uiso   1.00
C38    C     0.34808   0.40192   0.25000   0.00000  Uiso   1.00
C39    C     0.15191   0.09809   0.75000   0.00000  Uiso   1.00
C40    C     0.09808   0.15192   0.75000   0.00000  Uiso   1.00
C41    C     0.40191   0.34809   0.25000   0.00000  Uiso   1.00
C42    C     0.15191   0.40191   0.75000   0.00000  Uiso   1.00
C43    C     0.34809   0.09809   0.25000   0.00000  Uiso   1.00
C44    C     0.40192   0.34808   0.75000   0.00000  Uiso   1.00
C45    C     0.23086   0.47233   0.54199   0.00000  Uiso   1.00
C46    C     0.09809   0.15191   0.25000   0.00000  Uiso   1.00
C47    C     0.34809   0.09809   0.75000   0.00000  Uiso   1.00
C48    C     0.15191   0.40191   0.25000   0.00000  Uiso   1.00
C49    C     0.25000   0.00000   0.10254   0.00000  Uiso   1.00
C50    C     0.25000   0.00000   0.89750   0.00000  Uiso   1.00
C51    C     0.00000   0.25000   0.10250   0.00000  Uiso   1.00
C52    C     0.00000   0.25000   0.89745   0.00000  Uiso   1.00
C53    C    -0.00000   0.25000   0.60254   0.00000  Uiso   1.00
C54    C     0.00000   0.25000   0.39750   0.00000  Uiso   1.00
C55    C     0.25000   0.00000   0.60250   0.00000  Uiso   1.00
C56    C     0.22992   0.02701   0.45795   0.00000  Uiso   1.00
C57    C     0.25000   0.00000   0.39745   0.00000  Uiso   1.00
C58    C     0.02701   0.22992   0.54205   0.00000  Uiso   1.00
C59    C     0.47233   0.23086   0.45801   0.00000  Uiso   1.00
C60    C     0.26914   0.02767   0.54199   0.00000  Uiso   1.00
C61    C     0.27008   0.47299   0.45795   0.00000  Uiso   1.00
C62    C     0.22286   0.01896   0.08236   0.00000  Uiso   1.00
C63    C     0.27775   0.01802   0.91770   0.00000  Uiso   1.00
C64    C     0.48198   0.22225   0.08230   0.00000  Uiso   1.00
C65    C     0.27767   0.01914   0.95801   0.00000  Uiso   1.00
C66    C     0.48104   0.27714   0.91764   0.00000  Uiso   1.00
C67    C     0.27713   0.48104   0.08236   0.00000  Uiso   1.00
C68    C     0.22225   0.48198   0.91770   0.00000  Uiso   1.00
C69    C     0.01802   0.27775   0.08230   0.00000  Uiso   1.00
C70    C     0.01896   0.22286   0.91764   0.00000  Uiso   1.00
C71    C     0.47286   0.26896   0.58236   0.00000  Uiso   1.00
C72    C     0.02775   0.26802   0.41770   0.00000  Uiso   1.00
C73    C     0.23198   0.47225   0.58230   0.00000  Uiso   1.00
C74    C     0.23104   0.02714   0.41764   0.00000  Uiso   1.00
C75    C     0.02713   0.23104   0.58236   0.00000  Uiso   1.00
C76    C     0.48086   0.22233   0.04199   0.00000  Uiso   1.00
C77    C     0.47225   0.23198   0.41770   0.00000  Uiso   1.00
C78    C     0.26802   0.02775   0.58230   0.00000  Uiso   1.00
C79    C     0.26896   0.47287   0.41764   0.00000  Uiso   1.00
C80    C     0.25000   0.00000   0.02139   0.00000  Uiso   1.00
C81    C     0.25000   0.00000   0.97867   0.00000  Uiso   1.00
C82    C     0.00000   0.25000   0.02133   0.00000  Uiso   1.00
C83    C     0.00000   0.25000   0.97861   0.00000  Uiso   1.00
C84    C    -0.00000   0.25000   0.52139   0.00000  Uiso   1.00
C85    C    -0.00000   0.25000   0.47867   0.00000  Uiso   1.00
C86    C     0.25000   0.00000   0.52133   0.00000  Uiso   1.00
C87    C     0.47992   0.27701   0.95795   0.00000  Uiso   1.00
C88    C     0.25000   0.00000   0.47861   0.00000  Uiso   1.00
C89    C     0.25000   0.00000   0.35519   0.00000  Uiso   1.00
C90    C     0.25000   0.00000   0.64479   0.00000  Uiso   1.00
C91    C     0.00000   0.25000   0.35520   0.00000  Uiso   1.00
C92    C    -0.00000   0.25000   0.64481   0.00000  Uiso   1.00
C93    C     0.00000   0.25000   0.85519   0.00000  Uiso   1.00
C94    C     0.00000   0.25000   0.14479   0.00000  Uiso   1.00
C95    C     0.25000   0.00000   0.85520   0.00000  Uiso   1.00
C96    C     0.25000   0.00000   0.14481   0.00000  Uiso   1.00
C97    C     0.17998   0.07003   0.25000   0.00000  Uiso   1.00
C98    C     0.27701   0.47992   0.04205   0.00000  Uiso   1.00
C99    C     0.32003   0.42997   0.75000   0.00000  Uiso   1.00
C100   C     0.42997   0.17997   0.25000   0.00000  Uiso   1.00
C101   C     0.07003   0.32003   0.75000   0.00000  Uiso   1.00
C102   C     0.32002   0.42998   0.25000   0.00000  Uiso   1.00
C103   C     0.17997   0.07003   0.75000   0.00000  Uiso   1.00
C104   C     0.07003   0.32003   0.25000   0.00000  Uiso   1.00
C105   C     0.42997   0.17997   0.75000   0.00000  Uiso   1.00
C106   C     0.17997   0.42997   0.75000   0.00000  Uiso   1.00
C107   C     0.32003   0.07003   0.25000   0.00000  Uiso   1.00
C108   C     0.42998   0.32002   0.75000   0.00000  Uiso   1.00
C109   C     0.22233   0.48087   0.95801   0.00000  Uiso   1.00
C110   C     0.07003   0.17997   0.25000   0.00000  Uiso   1.00
C111   C     0.32003   0.07003   0.75000   0.00000  Uiso   1.00
C112   C     0.17997   0.42997   0.25000   0.00000  Uiso   1.00
C113   C     0.07002   0.17998   0.75000   0.00000  Uiso   1.00
C114   C     0.42997   0.32003   0.25000   0.00000  Uiso   1.00
C115   C     0.11549   0.41155   0.25830   0.00000  Uiso   1.00
C116   C     0.38451   0.08845   0.74170   0.00000  Uiso   1.00
C117   C     0.11741   0.14445   0.21565   0.00000  Uiso   1.00
C118   C     0.38240   0.35535   0.78426   0.00000  Uiso   1.00
C119   C     0.38451   0.08845   0.25830   0.00000  Uiso   1.00
C120   C     0.01914   0.27767   0.04199   0.00000  Uiso   1.00
C121   C     0.11548   0.41156   0.74175   0.00000  Uiso   1.00
C122   C     0.38235   0.35531   0.21576   0.00000  Uiso   1.00
C123   C     0.11745   0.14450   0.78433   0.00000  Uiso   1.00
C124   C     0.14451   0.11748   0.78432   0.00000  Uiso   1.00
C125   C     0.35532   0.38237   0.21575   0.00000  Uiso   1.00
C126   C     0.08844   0.38452   0.74175   0.00000  Uiso   1.00
C127   C     0.41155   0.11549   0.25830   0.00000  Uiso   1.00
C128   C     0.35534   0.38238   0.78425   0.00000  Uiso   1.00
C129   C     0.14444   0.11739   0.21564   0.00000  Uiso   1.00
C130   C     0.41155   0.11549   0.74170   0.00000  Uiso   1.00
C131   C     0.02008   0.22299   0.95795   0.00000  Uiso   1.00
C132   C     0.08845   0.38451   0.25830   0.00000  Uiso   1.00
C133   C     0.36549   0.16155   0.75830   0.00000  Uiso   1.00
C134   C     0.13451   0.33845   0.24170   0.00000  Uiso   1.00
C135   C     0.36763   0.39466   0.71575   0.00000  Uiso   1.00
C136   C     0.13261   0.10556   0.28435   0.00000  Uiso   1.00
C137   C     0.13452   0.33844   0.75825   0.00000  Uiso   1.00
C138   C     0.36549   0.16155   0.24170   0.00000  Uiso   1.00
C139   C     0.13253   0.10549   0.71569   0.00000  Uiso   1.00
C140   C     0.36763   0.39468   0.28425   0.00000  Uiso   1.00
C141   C     0.39469   0.36765   0.28424   0.00000  Uiso   1.00
C142   C     0.47299   0.27008   0.54205   0.00000  Uiso   1.00
C143   C     0.10550   0.13255   0.71568   0.00000  Uiso   1.00
C144   C     0.33845   0.13451   0.24170   0.00000  Uiso   1.00
C145   C     0.16156   0.36548   0.75825   0.00000  Uiso   1.00
C146   C     0.10555   0.13259   0.28435   0.00000  Uiso   1.00
C147   C     0.39466   0.36760   0.71574   0.00000  Uiso   1.00
C148   C     0.16155   0.36549   0.24170   0.00000  Uiso   1.00
C149   C     0.33845   0.13451   0.75830   0.00000  Uiso   1.00
C150   C     0.09809   0.34809   0.25000   0.00000  Uiso   1.00
C151   C     0.40191   0.15191   0.75000   0.00000  Uiso   1.00
C152   C     0.15192   0.09808   0.25000   0.00000  Uiso   1.00
H153   H     0.20202   0.03399   0.09804   0.00000  Uiso   1.00
H154   H     0.04910   0.28231   0.40205   0.00000  Uiso   1.00
H155   H     0.21767   0.45091   0.59795   0.00000  Uiso   1.00
H156   H     0.21601   0.04798   0.40196   0.00000  Uiso   1.00
H157   H     0.04797   0.21601   0.59804   0.00000  Uiso   1.00
H158   H     0.45090   0.21768   0.40204   0.00000  Uiso   1.00
H159   H     0.28232   0.04909   0.59796   0.00000  Uiso   1.00
H160   H     0.28399   0.45203   0.40196   0.00000  Uiso   1.00
H161   H     0.20162   0.04374   0.99649   0.00000  Uiso   1.00
H162   H     0.29981   0.04206   0.00358   0.00000  Uiso   1.00
H163   H     0.45795   0.20019   0.99642   0.00000  Uiso   1.00
H164   H     0.29910   0.03232   0.90205   0.00000  Uiso   1.00
H165   H     0.45626   0.29837   0.00351   0.00000  Uiso   1.00
H166   H     0.29836   0.45626   0.99648   0.00000  Uiso   1.00
H167   H     0.20017   0.45797   0.00358   0.00000  Uiso   1.00
H168   H     0.04204   0.29982   0.99642   0.00000  Uiso   1.00
H169   H     0.04374   0.20163   0.00351   0.00000  Uiso   1.00
H170   H     0.45163   0.29374   0.49649   0.00000  Uiso   1.00
H171   H     0.04981   0.29205   0.50358   0.00000  Uiso   1.00
H172   H     0.20795   0.45019   0.49642   0.00000  Uiso   1.00
H173   H     0.20626   0.04838   0.50351   0.00000  Uiso   1.00
H174   H     0.04836   0.20625   0.49649   0.00000  Uiso   1.00
H175   H     0.46768   0.20090   0.09795   0.00000  Uiso   1.00
H176   H     0.45017   0.20797   0.50358   0.00000  Uiso   1.00
H177   H     0.29204   0.04983   0.49642   0.00000  Uiso   1.00
H178   H     0.29374   0.45163   0.50351   0.00000  Uiso   1.00
H179   H     0.46601   0.29798   0.90196   0.00000  Uiso   1.00
H180   H     0.29797   0.46601   0.09804   0.00000  Uiso   1.00
H181   H     0.20090   0.46768   0.90204   0.00000  Uiso   1.00
H182   H     0.03232   0.29909   0.09796   0.00000  Uiso   1.00
H183   H     0.03399   0.20202   0.90196   0.00000  Uiso   1.00
H184   H     0.45202   0.28399   0.59804   0.00000  Uiso   1.00
O185   O     0.25000   0.00000   0.25000   0.00000  Uiso   1.00
O186   O     0.25000   0.46964   0.66317   0.00000  Uiso   1.00
O187   O     0.46964   0.25000   0.33683   0.00000  Uiso   1.00
O188   O     0.03036   0.25000   0.66317   0.00000  Uiso   1.00
O189   O     0.00000   0.21964   0.83683   0.00000  Uiso   1.00
O190   O     0.00000   0.28036   0.16317   0.00000  Uiso   1.00
O191   O     0.28036   0.00000   0.83683   0.00000  Uiso   1.00
O192   O     0.21964   0.00000   0.16317   0.00000  Uiso   1.00
O193   O     0.00000   0.28036   0.83683   0.00000  Uiso   1.00
O194   O     0.00000   0.21964   0.16317   0.00000  Uiso   1.00
O195   O     0.21964   0.00000   0.83683   0.00000  Uiso   1.00
O196   O     0.25000   0.00000   0.75000   0.00000  Uiso   1.00
O197   O     0.28036   0.00000   0.16317   0.00000  Uiso   1.00
O198   O     0.20726   0.07307   0.27282   0.00000  Uiso   1.00
O199   O     0.29275   0.42693   0.72718   0.00000  Uiso   1.00
O200   O     0.42693   0.20726   0.27282   0.00000  Uiso   1.00
O201   O     0.07307   0.29274   0.72718   0.00000  Uiso   1.00
O202   O     0.29275   0.42693   0.27282   0.00000  Uiso   1.00
O203   O     0.20726   0.07307   0.72718   0.00000  Uiso   1.00
O204   O     0.07307   0.29274   0.27282   0.00000  Uiso   1.00
O205   O     0.42693   0.20726   0.72718   0.00000  Uiso   1.00
O206   O     0.20726   0.42693   0.72718   0.00000  Uiso   1.00
O207   O     0.00000   0.25000   0.25000   0.00000  Uiso   1.00
O208   O     0.29275   0.07307   0.27282   0.00000  Uiso   1.00
O209   O     0.42693   0.29275   0.72718   0.00000  Uiso   1.00
O210   O     0.07307   0.20725   0.27282   0.00000  Uiso   1.00
O211   O     0.29275   0.07307   0.72718   0.00000  Uiso   1.00
O212   O     0.20726   0.42693   0.27282   0.00000  Uiso   1.00
O213   O     0.07307   0.20725   0.72718   0.00000  Uiso   1.00
O214   O     0.42693   0.29275   0.27282   0.00000  Uiso   1.00
O215   O     0.45726   0.32307   0.77282   0.00000  Uiso   1.00
O216   O     0.04275   0.17693   0.22718   0.00000  Uiso   1.00
O217   O     0.17693   0.45725   0.77282   0.00000  Uiso   1.00
O218   O     0.00000   0.25000   0.75000   0.00000  Uiso   1.00
O219   O     0.32307   0.04275   0.22718   0.00000  Uiso   1.00
O220   O     0.04275   0.17693   0.77282   0.00000  Uiso   1.00
O221   O     0.45726   0.32307   0.22718   0.00000  Uiso   1.00
O222   O     0.32307   0.04275   0.77282   0.00000  Uiso   1.00
O223   O     0.17693   0.45725   0.22718   0.00000  Uiso   1.00
O224   O     0.45726   0.17693   0.22718   0.00000  Uiso   1.00
O225   O     0.04275   0.32307   0.77282   0.00000  Uiso   1.00
O226   O     0.17693   0.04275   0.22718   0.00000  Uiso   1.00
O227   O     0.32307   0.45726   0.77282   0.00000  Uiso   1.00
O228   O     0.04275   0.32307   0.22718   0.00000  Uiso   1.00
O229   O     0.25000   0.46964   0.33683   0.00000  Uiso   1.00
O230   O     0.45726   0.17693   0.77282   0.00000  Uiso   1.00
O231   O     0.32307   0.45726   0.22718   0.00000  Uiso   1.00
O232   O     0.17693   0.04275   0.77282   0.00000  Uiso   1.00
O233   O     0.19630   0.04107   0.02440   0.00000  Uiso   1.00
O234   O     0.30504   0.03919   0.97567   0.00000  Uiso   1.00
O235   O     0.46081   0.19496   0.02433   0.00000  Uiso   1.00
O236   O     0.45893   0.30369   0.97560   0.00000  Uiso   1.00
O237   O     0.30369   0.45894   0.02440   0.00000  Uiso   1.00
O238   O     0.19495   0.46082   0.97566   0.00000  Uiso   1.00
O239   O     0.03919   0.30505   0.02434   0.00000  Uiso   1.00
O240   O     0.25000   0.03036   0.66317   0.00000  Uiso   1.00
O241   O     0.04107   0.19631   0.97560   0.00000  Uiso   1.00
O242   O     0.44631   0.29107   0.52440   0.00000  Uiso   1.00
O243   O     0.05505   0.28918   0.47567   0.00000  Uiso   1.00
O244   O     0.21081   0.44496   0.52433   0.00000  Uiso   1.00
O245   O     0.20893   0.05370   0.47560   0.00000  Uiso   1.00
O246   O     0.05369   0.20893   0.52440   0.00000  Uiso   1.00
O247   O     0.44495   0.21082   0.47566   0.00000  Uiso   1.00
O248   O     0.28919   0.05505   0.52434   0.00000  Uiso   1.00
O249   O     0.29107   0.44631   0.47560   0.00000  Uiso   1.00
O250   O     0.03036   0.25000   0.33683   0.00000  Uiso   1.00
O251   O     0.46964   0.25000   0.66317   0.00000  Uiso   1.00
O252   O     0.25000   0.03036   0.33683   0.00000  Uiso   1.00
Zn253  Zn    0.20660   0.00000   0.21760   0.00000  Uiso   1.00
Zn254  Zn    0.04340   0.25000   0.28240   0.00000  Uiso   1.00
Zn255  Zn    0.25000   0.45660   0.71760   0.00000  Uiso   1.00
Zn256  Zn    0.25000   0.04340   0.28240   0.00000  Uiso   1.00
Zn257  Zn    0.04340   0.25000   0.71760   0.00000  Uiso   1.00
Zn258  Zn    0.45660   0.25000   0.28240   0.00000  Uiso   1.00
Zn259  Zn    0.25000   0.04340   0.71760   0.00000  Uiso   1.00
Zn260  Zn    0.25000   0.45660   0.28240   0.00000  Uiso   1.00
Zn261  Zn    0.29340   0.00000   0.78240   0.00000  Uiso   1.00
Zn262  Zn    0.00000   0.20660   0.21760   0.00000  Uiso   1.00
Zn263  Zn    0.00000   0.29340   0.78240   0.00000  Uiso   1.00
Zn264  Zn    0.29340   0.00000   0.21760   0.00000  Uiso   1.00
Zn265  Zn    0.20660   0.00000   0.78240   0.00000  Uiso   1.00
Zn266  Zn    0.00000   0.29340   0.21760   0.00000  Uiso   1.00
Zn267  Zn    0.00000   0.20660   0.78240   0.00000  Uiso   1.00
Zn268  Zn    0.45660   0.25000   0.71760   0.00000  Uiso   1.00
Br269  Br    0.60291   0.46137   0.27150   0.00000  Uiso   1.00
Br270  Br    0.82708   0.39144   0.16940   0.00000  Uiso   1.00
Br271  Br    0.53861   0.39711   0.72860   0.00000  Uiso   1.00
Br272  Br    0.96137   0.10291   0.27151   0.00000  Uiso   1.00
Br273  Br    0.82707   0.39140   0.83056   0.00000  Uiso   1.00
Br274  Br    0.67235   0.10801   0.16912   0.00000  Uiso   1.00
Br275  Br    0.96137   0.10291   0.72849   0.00000  Uiso   1.00
Br276  Br    0.53863   0.39709   0.27151   0.00000  Uiso   1.00
Br277  Br    0.85291   0.21137   0.77151   0.00000  Uiso   1.00
Br278  Br    0.64709   0.28863   0.22849   0.00000  Uiso   1.00
Br279  Br    0.85860   0.42293   0.66943   0.00000  Uiso   1.00
Br280  Br    0.89709   0.03863   0.72848   0.00000  Uiso   1.00
Br281  Br    0.64198   0.07763   0.33086   0.00000  Uiso   1.00
Br282  Br    0.64711   0.28861   0.77140   0.00000  Uiso   1.00
Br283  Br    0.85291   0.21137   0.22849   0.00000  Uiso   1.00
Br284  Br    0.64173   0.07740   0.66927   0.00000  Uiso   1.00
Br285  Br    0.85856   0.42292   0.33059   0.00000  Uiso   1.00
Br286  Br    0.92299   0.35866   0.33055   0.00000  Uiso   1.00
Br287  Br    0.57751   0.14186   0.66920   0.00000  Uiso   1.00
Br288  Br    0.78863   0.14709   0.22850   0.00000  Uiso   1.00
Br289  Br    0.71139   0.35289   0.77141   0.00000  Uiso   1.00
Br290  Br    0.57757   0.14187   0.33082   0.00000  Uiso   1.00
Br291  Br    0.60813   0.17245   0.16919   0.00000  Uiso   1.00
Br292  Br    0.92287   0.35850   0.66939   0.00000  Uiso   1.00
Br293  Br    0.71137   0.35291   0.22849   0.00000  Uiso   1.00
Br294  Br    0.78863   0.14709   0.77152   0.00000  Uiso   1.00
Br295  Br    0.89152   0.32716   0.83063   0.00000  Uiso   1.00
Br296  Br    0.89709   0.03863   0.27151   0.00000  Uiso   1.00
Br297  Br    0.60289   0.46139   0.72859   0.00000  Uiso   1.00
Br298  Br    0.89134   0.32701   0.16945   0.00000  Uiso   1.00
Br299  Br    0.60815   0.17250   0.83079   0.00000  Uiso   1.00
Br300  Br    0.67258   0.10827   0.83075   0.00000  Uiso   1.00
C301   C     0.72299   0.02009   0.04205   0.00000  Uiso   1.00
C302   C     0.52767   0.26914   0.45801   0.00000  Uiso   1.00
C303   C     0.84809   0.40191   0.75000   0.00000  Uiso   1.00
C304   C     0.90191   0.15191   0.25000   0.00000  Uiso   1.00
C305   C     0.59809   0.34809   0.75000   0.00000  Uiso   1.00
C306   C     0.84808   0.40192   0.25000   0.00000  Uiso   1.00
C307   C     0.65191   0.09809   0.75000   0.00000  Uiso   1.00
C308   C     0.59808   0.15192   0.75000   0.00000  Uiso   1.00
C309   C     0.90191   0.34809   0.25000   0.00000  Uiso   1.00
C310   C     0.65191   0.40191   0.75000   0.00000  Uiso   1.00
C311   C     0.84809   0.09809   0.25000   0.00000  Uiso   1.00
C312   C     0.90192   0.34808   0.75000   0.00000  Uiso   1.00
C313   C     0.73086   0.47233   0.54199   0.00000  Uiso   1.00
C314   C     0.59809   0.15191   0.25000   0.00000  Uiso   1.00
C315   C     0.84809   0.09809   0.75000   0.00000  Uiso   1.00
C316   C     0.65191   0.40191   0.25000   0.00000  Uiso   1.00
C317   C     0.75000   0.00000   0.10254   0.00000  Uiso   1.00
C318   C     0.75000   0.00000   0.89750   0.00000  Uiso   1.00
C319   C     0.50000   0.25000   0.10250   0.00000  Uiso   1.00
C320   C     0.50000   0.25000   0.89745   0.00000  Uiso   1.00
C321   C     0.50000   0.25000   0.60254   0.00000  Uiso   1.00
C322   C     0.50000   0.25000   0.39750   0.00000  Uiso   1.00
C323   C     0.75000   0.00000   0.60250   0.00000  Uiso   1.00
C324   C     0.72992   0.02701   0.45795   0.00000  Uiso   1.00
C325   C     0.75000   0.00000   0.39745   0.00000  Uiso   1.00
C326   C     0.52701   0.22992   0.54205   0.00000  Uiso   1.00
C327   C     0.97233   0.23086   0.45801   0.00000  Uiso   1.00
C328   C     0.76914   0.02767   0.54199   0.00000  Uiso   1.00
C329   C     0.77008   0.47299   0.45795   0.00000  Uiso   1.00
C330   C     0.72286   0.01896   0.08236   0.00000  Uiso   1.00
C331   C     0.77775   0.01802   0.91770   0.00000  Uiso   1.00
C332   C     0.98198   0.22225   0.08230   0.00000  Uiso   1.00
C333   C     0.77767   0.01914   0.95801   0.00000  Uiso   1.00
C334   C     0.98104   0.27714   0.91764   0.00000  Uiso   1.00
C335   C     0.77713   0.48104   0.08236   0.00000  Uiso   1.00
C336   C     0.72225   0.48198   0.91770   0.00000  Uiso   1.00
C337   C     0.51802   0.27775   0.08230   0.00000  Uiso   1.00
C338   C     0.51896   0.22286   0.91764   0.00000  Uiso   1.00
C339   C     0.97286   0.26896   0.58236   0.00000  Uiso   1.00
C340   C     0.52775   0.26802   0.41770   0.00000  Uiso   1.00
C341   C     0.73198   0.47225   0.58230   0.00000  Uiso   1.00
C342   C     0.73104   0.02714   0.41764   0.00000  Uiso   1.00
C343   C     0.52713   0.23104   0.58236   0.00000  Uiso   1.00
C344   C     0.98086   0.22233   0.04199   0.00000  Uiso   1.00
C345   C     0.97225   0.23198   0.41770   0.00000  Uiso   1.00
C346   C     0.76802   0.02775   0.58230   0.00000  Uiso   1.00
C347   C     0.76896   0.47287   0.41764   0.00000  Uiso   1.00
C348   C     0.75000   0.00000   0.02139   0.00000  Uiso   1.00
C349   C     0.75000   0.00000   0.97867   0.00000  Uiso   1.00
C350   C     0.50000   0.25000   0.02133   0.00000  Uiso   1.00
C351   C     0.50000   0.25000   0.97861   0.00000  Uiso   1.00
C352   C     0.50000   0.25000   0.52139   0.00000  Uiso   1.00
C353   C     0.50000   0.25000   0.47867   0.00000  Uiso   1.00
C354   C     0.75000   0.00000   0.52133   0.00000  Uiso   1.00
C355   C     0.97992   0.27701   0.95795   0.00000  Uiso   1.00
C356   C     0.75000   0.00000   0.47861   0.00000  Uiso   1.00
C357   C     0.75000   0.00000   0.35519   0.00000  Uiso   1.00
C358   C     0.75000   0.00000   0.64479   0.00000  Uiso   1.00
C359   C     0.50000   0.25000   0.35520   0.00000  Uiso   1.00
C360   C     0.50000   0.25000   0.64481   0.00000  Uiso   1.00
C361   C     0.50000   0.25000   0.85519   0.00000  Uiso   1.00
C362   C     0.50000   0.25000   0.14479   0.00000  Uiso   1.00
C363   C     0.75000   0.00000   0.85520   0.00000  Uiso   1.00
C364   C     0.75000   0.00000   0.14481   0.00000  Uiso   1.00
C365   C     0.67998   0.07003   0.25000   0.00000  Uiso   1.00
C366   C     0.77701   0.47992   0.04205   0.00000  Uiso   1.00
C367   C     0.82003   0.42997   0.75000   0.00000  Uiso   1.00
C368   C     0.92997   0.17997   0.25000   0.00000  Uiso   1.00
C369   C     0.57003   0.32003   0.75000   0.00000  Uiso   1.00
C370   C     0.82002   0.42998   0.25000   0.00000  Uiso   1.00
C371   C     0.67997   0.07003   0.75000   0.00000  Uiso   1.00
C372   C     0.57003   0.32003   0.25000   0.00000  Uiso   1.00
C373   C     0.92997   0.17997   0.75000   0.00000  Uiso   1.00
C374   C     0.67997   0.42997   0.75000   0.00000  Uiso   1.00
C375   C     0.82003   0.07003   0.25000   0.00000  Uiso   1.00
C376   C     0.92998   0.32002   0.75000   0.00000  Uiso   1.00
C377   C     0.72233   0.48087   0.95801   0.00000  Uiso   1.00
C378   C     0.57003   0.17997   0.25000   0.00000  Uiso   1.00
C379   C     0.82003   0.07003   0.75000   0.00000  Uiso   1.00
C380   C     0.67997   0.42997   0.25000   0.00000  Uiso   1.00
C381   C     0.57002   0.17998   0.75000   0.00000  Uiso   1.00
C382   C     0.92997   0.32003   0.25000   0.00000  Uiso   1.00
C383   C     0.61549   0.41155   0.25830   0.00000  Uiso   1.00
C384   C     0.88451   0.08845   0.74170   0.00000  Uiso   1.00
C385   C     0.61741   0.14445   0.21565   0.00000  Uiso   1.00
C386   C     0.88240   0.35535   0.78426   0.00000  Uiso   1.00
C387   C     0.88451   0.08845   0.25830   0.00000  Uiso   1.00
C388   C     0.51914   0.27767   0.04199   0.00000  Uiso   1.00
C389   C     0.61548   0.41156   0.74175   0.00000  Uiso   1.00
C390   C     0.88235   0.35531   0.21576   0.00000  Uiso   1.00
C391   C     0.61745   0.14450   0.78433   0.00000  Uiso   1.00
C392   C     0.64451   0.11748   0.78432   0.00000  Uiso   1.00
C393   C     0.85532   0.38237   0.21575   0.00000  Uiso   1.00
C394   C     0.58844   0.38452   0.74175   0.00000  Uiso   1.00
C395   C     0.91155   0.11549   0.25830   0.00000  Uiso   1.00
C396   C     0.85534   0.38238   0.78425   0.00000  Uiso   1.00
C397   C     0.64444   0.11739   0.21564   0.00000  Uiso   1.00
C398   C     0.91155   0.11549   0.74170   0.00000  Uiso   1.00
C399   C     0.52008   0.22299   0.95795   0.00000  Uiso   1.00
C400   C     0.58845   0.38451   0.25830   0.00000  Uiso   1.00
C401   C     0.86549   0.16155   0.75830   0.00000  Uiso   1.00
C402   C     0.63451   0.33845   0.24170   0.00000  Uiso   1.00
C403   C     0.86763   0.39466   0.71575   0.00000  Uiso   1.00
C404   C     0.63261   0.10556   0.28435   0.00000  Uiso   1.00
C405   C     0.63452   0.33844   0.75825   0.00000  Uiso   1.00
C406   C     0.86549   0.16155   0.24170   0.00000  Uiso   1.00
C407   C     0.63253   0.10549   0.71569   0.00000  Uiso   1.00
C408   C     0.86763   0.39468   0.28425   0.00000  Uiso   1.00
C409   C     0.89469   0.36765   0.28424   0.00000  Uiso   1.00
C410   C     0.97299   0.27008   0.54205   0.00000  Uiso   1.00
C411   C     0.60550   0.13255   0.71568   0.00000  Uiso   1.00
C412   C     0.83845   0.13451   0.24170   0.00000  Uiso   1.00
C413   C     0.66156   0.36548   0.75825   0.00000  Uiso   1.00
C414   C     0.60555   0.13259   0.28435   0.00000  Uiso   1.00
C415   C     0.89466   0.36760   0.71574   0.00000  Uiso   1.00
C416   C     0.66155   0.36549   0.24170   0.00000  Uiso   1.00
C417   C     0.83845   0.13451   0.75830   0.00000  Uiso   1.00
C418   C     0.59809   0.34809   0.25000   0.00000  Uiso   1.00
C419   C     0.90191   0.15191   0.75000   0.00000  Uiso   1.00
C420   C     0.65192   0.09808   0.25000   0.00000  Uiso   1.00
H421   H     0.70202   0.03399   0.09804   0.00000  Uiso   1.00
H422   H     0.54910   0.28231   0.40205   0.00000  Uiso   1.00
H423   H     0.71767   0.45091   0.59795   0.00000  Uiso   1.00
H424   H     0.71601   0.04798   0.40196   0.00000  Uiso   1.00
H425   H     0.54797   0.21601   0.59804   0.00000  Uiso   1.00
H426   H     0.95090   0.21768   0.40204   0.00000  Uiso   1.00
H427   H     0.78232   0.04909   0.59796   0.00000  Uiso   1.00
H428   H     0.78399   0.45203   0.40196   0.00000  Uiso   1.00
H429   H     0.70162   0.04374   0.99649   0.00000  Uiso   1.00
H430   H     0.79981   0.04206   0.00358   0.00000  Uiso   1.00
H431   H     0.95795   0.20019   0.99642   0.00000  Uiso   1.00
H432   H     0.79910   0.03232   0.90205   0.00000  Uiso   1.00
H433   H     0.95626   0.29837   0.00351   0.00000  Uiso   1.00
H434   H     0.79836   0.45626   0.99648   0.00000  Uiso   1.00
H435   H     0.70017   0.45797   0.00358   0.00000  Uiso   1.00
H436   H     0.54204   0.29982   0.99642   0.00000  Uiso   1.00
H437   H     0.54374   0.20163   0.00351   0.00000  Uiso   1.00
H438   H     0.95163   0.29374   0.49649   0.00000  Uiso   1.00
H439   H     0.54981   0.29205   0.50358   0.00000  Uiso   1.00
H440   H     0.70795   0.45019   0.49642   0.00000  Uiso   1.00
H441   H     0.70626   0.04838   0.50351   0.00000  Uiso   1.00
H442   H     0.54836   0.20625   0.49649   0.00000  Uiso   1.00
H443   H     0.96768   0.20090   0.09795   0.00000  Uiso   1.00
H444   H     0.95017   0.20797   0.50358   0.00000  Uiso   1.00
H445   H     0.79204   0.04983   0.49642   0.00000  Uiso   1.00
H446   H     0.79374   0.45163   0.50351   0.00000  Uiso   1.00
H447   H     0.96601   0.29798   0.90196   0.00000  Uiso   1.00
H448   H     0.79797   0.46601   0.09804   0.00000  Uiso   1.00
H449   H     0.70090   0.46768   0.90204   0.00000  Uiso   1.00
H450   H     0.53232   0.29909   0.09796   0.00000  Uiso   1.00
H451   H     0.53399   0.20202   0.90196   0.00000  Uiso   1.00
H452   H     0.95202   0.28399   0.59804   0.00000  Uiso   1.00
O453   O     0.75000   0.00000   0.25000   0.00000  Uiso   1.00
O454   O     0.75000   0.46964   0.66317   0.00000  Uiso   1.00
O455   O     0.96964   0.25000   0.33683   0.00000  Uiso   1.00
O456   O     0.53036   0.25000   0.66317   0.00000  Uiso   1.00
O457   O     0.50000   0.21964   0.83683   0.00000  Uiso   1.00
O458   O     0.50000   0.28036   0.16317   0.00000  Uiso   1.00
O459   O     0.78036   0.00000   0.83683   0.00000  Uiso   1.00
O460   O     0.71964   0.00000   0.16317   0.00000  Uiso   1.00
O461   O     0.50000   0.28036   0.83683   0.00000  Uiso   1.00
O462   O     0.50000   0.21964   0.16317   0.00000  Uiso   1.00
O463   O     0.71964   0.00000   0.83683   0.00000  Uiso   1.00
O464   O     0.75000   0.00000   0.75000   0.00000  Uiso   1.00
O465   O     0.78036   0.00000   0.16317   0.00000  Uiso   1.00
O466   O     0.70726   0.07307   0.27282   0.00000  Uiso   1.00
O467   O     0.79275   0.42693   0.72718   0.00000  Uiso   1.00
O468   O     0.92693   0.20726   0.27282   0.00000  Uiso   1.00
O469   O     0.57307   0.29274   0.72718   0.00000  Uiso   1.00
O470   O     0.79275   0.42693   0.27282   0.00000  Uiso   1.00
O471   O     0.70726   0.07307   0.72718   0.00000  Uiso   1.00
O472   O     0.57307   0.29274   0.27282   0.00000  Uiso   1.00
O473   O     0.92693   0.20726   0.72718   0.00000  Uiso   1.00
O474   O     0.70726   0.42693   0.72718   0.00000  Uiso   1.00
O475   O     0.50000   0.25000   0.25000   0.00000  Uiso   1.00
O476   O     0.79275   0.07307   0.27282   0.00000  Uiso   1.00
O477   O     0.92693   0.29275   0.72718   0.00000  Uiso   1.00
O478   O     0.57307   0.20725   0.27282   0.00000  Uiso   1.00
O479   O     0.79275   0.07307   0.72718   0.00000  Uiso   1.00
O480   O     0.70726   0.42693   0.27282   0.00000  Uiso   1.00
O481   O     0.57307   0.20725   0.72718   0.00000  Uiso   1.00
O482   O     0.92693   0.29275   0.27282   0.00000  Uiso   1.00
O483   O     0.95726   0.32307   0.77282   0.00000  Uiso   1.00
O484   O     0.54275   0.17693   0.22718   0.00000  Uiso   1.00
O485   O     0.67693   0.45725   0.77282   0.00000  Uiso   1.00
O486   O     0.50000   0.25000   0.75000   0.00000  Uiso   1.00
O487   O     0.82307   0.04275   0.22718   0.00000  Uiso   1.00
O488   O     0.54275   0.17693   0.77282   0.00000  Uiso   1.00
O489   O     0.95726   0.32307   0.22718   0.00000  Uiso   1.00
O490   O     0.82307   0.04275   0.77282   0.00000  Uiso   1.00
O491   O     0.67693   0.45725   0.22718   0.00000  Uiso   1.00
O492   O     0.95726   0.17693   0.22718   0.00000  Uiso   1.00
O493   O     0.54275   0.32307   0.77282   0.00000  Uiso   1.00
O494   O     0.67693   0.04275   0.22718   0.00000  Uiso   1.00
O495   O     0.82307   0.45726   0.77282   0.00000  Uiso   1.00
O496   O     0.54275   0.32307   0.22718   0.00000  Uiso   1.00
O497   O     0.75000   0.46964   0.33683   0.00000  Uiso   1.00
O498   O     0.95726   0.17693   0.77282   0.00000  Uiso   1.00
O499   O     0.82307   0.45726   0.22718   0.00000  Uiso   1.00
O500   O     0.67693   0.04275   0.77282   0.00000  Uiso   1.00
O501   O     0.69630   0.04107   0.02440   0.00000  Uiso   1.00
O502   O     0.80504   0.03919   0.97567   0.00000  Uiso   1.00
O503   O     0.96081   0.19496   0.02433   0.00000  Uiso   1.00
O504   O     0.95893   0.30369   0.97560   0.00000  Uiso   1.00
O505   O     0.80369   0.45894   0.02440   0.00000  Uiso   1.00
O506   O     0.69495   0.46082   0.97566   0.00000  Uiso   1.00
O507   O     0.53919   0.30505   0.02434   0.00000  Uiso   1.00
O508   O     0.75000   0.03036   0.66317   0.00000  Uiso   1.00
O509   O     0.54107   0.19631   0.97560   0.00000  Uiso   1.00
O510   O     0.94631   0.29107   0.52440   0.00000  Uiso   1.00
O511   O     0.55505   0.28918   0.47567   0.00000  Uiso   1.00
O512   O     0.71081   0.44496   0.52433   0.00000  Uiso   1.00
O513   O     0.70893   0.05370   0.47560   0.00000  Uiso   1.00
O514   O     0.55369   0.20893   0.52440   0.00000  Uiso   1.00
O515   O     0.94495   0.21082   0.47566   0.00000  Uiso   1.00
O516   O     0.78919   0.05505   0.52434   0.00000  Uiso   1.00
O517   O     0.79107   0.44631   0.47560   0.00000  Uiso   1.00
O518   O     0.53036   0.25000   0.33683   0.00000  Uiso   1.00
O519   O     0.96964   0.25000   0.66317   0.00000  Uiso   1.00
O520   O     0.75000   0.03036   0.33683   0.00000  Uiso   1.00
Zn521  Zn    0.70660   0.00000   0.21760   0.00000  Uiso   1.00
Zn522  Zn    0.54340   0.25000   0.28240   0.00000  Uiso   1.00
Zn523  Zn    0.75000   0.45660   0.71760   0.00000  Uiso   1.00
Zn524  Zn    0.75000   0.04340   0.28240   0.00000  Uiso   1.00
Zn525  Zn    0.54340   0.25000   0.71760   0.00000  Uiso   1.00
Zn526  Zn    0.95660   0.25000   0.28240   0.00000  Uiso   1.00
Zn527  Zn    0.75000   0.04340   0.71760   0.00000  Uiso   1.00
Zn528  Zn    0.75000   0.45660   0.28240   0.00000  Uiso   1.00
Zn529  Zn    0.79340   0.00000   0.78240   0.00000  Uiso   1.00
Zn530  Zn    0.50000   0.20660   0.21760   0.00000  Uiso   1.00
Zn531  Zn    0.50000   0.29340   0.78240   0.00000  Uiso   1.00
Zn532  Zn    0.79340   0.00000   0.21760   0.00000  Uiso   1.00
Zn533  Zn    0.70660   0.00000   0.78240   0.00000  Uiso   1.00
Zn534  Zn    0.50000   0.29340   0.21760   0.00000  Uiso   1.00
Zn535  Zn    0.50000   0.20660   0.78240   0.00000  Uiso   1.00
Zn536  Zn    0.95660   0.25000   0.71760   0.00000  Uiso   1.00
Br537  Br    0.10291   0.96137   0.27150   0.00000  Uiso   1.00
Br538  Br    0.32708   0.89144   0.16940   0.00000  Uiso   1.00
Br539  Br    0.03861   0.89711   0.72860   0.00000  Uiso   1.00
Br540  Br    0.46137   0.60291   0.27151   0.00000  Uiso   1.00
Br541  Br    0.32707   0.89140   0.83056   0.00000  Uiso   1.00
Br542  Br    0.17235   0.60801   0.16912   0.00000  Uiso   1.00
Br543  Br    0.46137   0.60291   0.72849   0.00000  Uiso   1.00
Br544  Br    0.03863   0.89709   0.27151   0.00000  Uiso   1.00
Br545  Br    0.35291   0.71137   0.77151   0.00000  Uiso   1.00
Br546  Br    0.14709   0.78863   0.22849   0.00000  Uiso   1.00
Br547  Br    0.35860   0.92293   0.66943   0.00000  Uiso   1.00
Br548  Br    0.39709   0.53863   0.72848   0.00000  Uiso   1.00
Br549  Br    0.14198   0.57763   0.33086   0.00000  Uiso   1.00
Br550  Br    0.14711   0.78861   0.77140   0.00000  Uiso   1.00
Br551  Br    0.35291   0.71137   0.22849   0.00000  Uiso   1.00
Br552  Br    0.14173   0.57740   0.66927   0.00000  Uiso   1.00
Br553  Br    0.35856   0.92292   0.33059   0.00000  Uiso   1.00
Br554  Br    0.42299   0.85866   0.33055   0.00000  Uiso   1.00
Br555  Br    0.07751   0.64186   0.66920   0.00000  Uiso   1.00
Br556  Br    0.28863   0.64709   0.22850   0.00000  Uiso   1.00
Br557  Br    0.21139   0.85289   0.77141   0.00000  Uiso   1.00
Br558  Br    0.07757   0.64187   0.33082   0.00000  Uiso   1.00
Br559  Br    0.10813   0.67245   0.16919   0.00000  Uiso   1.00
Br560  Br    0.42287   0.85850   0.66939   0.00000  Uiso   1.00
Br561  Br    0.21137   0.85291   0.22849   0.00000  Uiso   1.00
Br562  Br    0.28863   0.64709   0.77152   0.00000  Uiso   1.00
Br563  Br    0.39152   0.82716   0.83063   0.00000  Uiso   1.00
Br564  Br    0.39709   0.53863   0.27151   0.00000  Uiso   1.00
Br565  Br    0.10289   0.96139   0.72859   0.00000  Uiso   1.00
Br566  Br    0.39134   0.82701   0.16945   0.00000  Uiso   1.00
Br567  Br    0.10815   0.67250   0.83079   0.00000  Uiso   1.00
Br568  Br    0.17258   0.60827   0.83075   0.00000  Uiso   1.00
C569   C     0.22299   0.52009   0.04205   0.00000  Uiso   1.00
C570   C     0.02767   0.76914   0.45801   0.00000  Uiso   1.00
C571   C     0.34809   0.90191   0.75000   0.00000  Uiso   1.00
C572   C     0.40191   0.65191   0.25000   0.00000  Uiso   1.00
C573   C     0.09809   0.84809   0.75000   0.00000  Uiso   1.00
C574   C     0.34808   0.90192   0.25000   0.00000  Uiso   1.00
C575   C     0.15191   0.59809   0.75000   0.00000  Uiso   1.00
C576   C     0.09808   0.65192   0.75000   0.00000  Uiso   1.00
C577   C     0.40191   0.84809   0.25000   0.00000  Uiso   1.00
C578   C     0.15191   0.90191   0.75000   0.00000  Uiso   1.00
C579   C     0.34809   0.59809   0.25000   0.00000  Uiso   1.00
C580   C     0.40192   0.84808   0.75000   0.00000  Uiso   1.00
C581   C     0.23086   0.97233   0.54199   0.00000  Uiso   1.00
C582   C     0.09809   0.65191   0.25000   0.00000  Uiso   1.00
C583   C     0.34809   0.59809   0.75000   0.00000  Uiso   1.00
C584   C     0.15191   0.90191   0.25000   0.00000  Uiso   1.00
C585   C     0.25000   0.50000   0.10254   0.00000  Uiso   1.00
C586   C     0.25000   0.50000   0.89750   0.00000  Uiso   1.00
C587   C     0.00000   0.75000   0.10250   0.00000  Uiso   1.00
C588   C     0.00000   0.75000   0.89745   0.00000  Uiso   1.00
C589   C    -0.00000   0.75000   0.60254   0.00000  Uiso   1.00
C590   C     0.00000   0.75000   0.39750   0.00000  Uiso   1.00
C591   C     0.25000   0.50000   0.60250   0.00000  Uiso   1.00
C592   C     0.22992   0.52701   0.45795   0.00000  Uiso   1.00
C593   C     0.25000   0.50000   0.39745   0.00000  Uiso   1.00
C594   C     0.02701   0.72992   0.54205   0.00000  Uiso   1.00
C595   C     0.47233   0.73086   0.45801   0.00000  Uiso   1.00
C596   C     0.26914   0.52767   0.54199   0.00000  Uiso   1.00
C597   C     0.27008   0.97299   0.45795   0.00000  Uiso   1.00
C598   C     0.22286   0.51896   0.08236   0.00000  Uiso   1.00
C599   C     0.27775   0.51802   0.91770   0.00000  Uiso   1.00
C600   C     0.48198   0.72225   0.08230   0.00000  Uiso   1.00
C601   C     0.27767   0.51914   0.95801   0.00000  Uiso   1.00
C602   C     0.48104   0.77714   0.91764   0.00000  Uiso   1.00
C603   C     0.27713   0.98104   0.08236   0.00000  Uiso   1.00
C604   C     0.22225   0.98198   0.91770   0.00000  Uiso   1.00
C605   C     0.01802   0.77775   0.08230   0.00000  Uiso   1.00
C606   C     0.01896   0.72286   0.91764   0.00000  Uiso   1.00
C607   C     0.47286   0.76896   0.58236   0.00000  Uiso   1.00
C608   C     0.02775   0.76802   0.41770   0.00000  Uiso   1.00
C609   C     0.23198   0.97225   0.58230   0.00000  Uiso   1.00
C610   C     0.23104   0.52714   0.41764   0.00000  Uiso   1.00
C611   C     0.02713   0.73104   0.58236   0.00000  Uiso   1.00
C612   C     0.48086   0.72233   0.04199   0.00000  Uiso   1.00
C613   C     0.47225   0.73198   0.41770   0.00000  Uiso   1.00
C614   C     0.26802   0.52775   0.58230   0.00000  Uiso   1.00
C615   C     0.26896   0.97287   0.41764   0.00000  Uiso   1.00
C616   C     0.25000   0.50000   0.02139   0.00000  Uiso   1.00
C617   C     0.25000   0.50000   0.97867   0.00000  Uiso   1.00
C618   C     0.00000   0.75000   0.02133   0.00000  Uiso   1.00
C619   C     0.00000   0.75000   0.97861   0.00000  Uiso   1.00
C620   C    -0.00000   0.75000   0.52139   0.00000  Uiso   1.00
C621   C    -0.00000   0.75000   0.47867   0.00000  Uiso   1.00
C622   C     0.25000   0.50000   0.52133   0.00000  Uiso   1.00
C623   C     0.47992   0.77701   0.95795   0.00000  Uiso   1.00
C624   C     0.25000   0.50000   0.47861   0.00000  Uiso   1.00
C625   C     0.25000   0.50000   0.35519   0.00000  Uiso   1.00
C626   C     0.25000   0.50000   0.64479   0.00000  Uiso   1.00
C627   C     0.00000   0.75000   0.35520   0.00000  Uiso   1.00
C628   C    -0.00000   0.75000   0.64481   0.00000  Uiso   1.00
C629   C     0.00000   0.75000   0.85519   0.00000  Uiso   1.00
C630   C     0.00000   0.75000   0.14479   0.00000  Uiso   1.00
C631   C     0.25000   0.50000   0.85520   0.00000  Uiso   1.00
C632   C     0.25000   0.50000   0.14481   0.00000  Uiso   1.00
C633   C     0.17998   0.57003   0.25000   0.00000  Uiso   1.00
C634   C     0.27701   0.97992   0.04205   0.00000  Uiso   1.00
C635   C     0.32003   0.92997   0.75000   0.00000  Uiso   1.00
C636   C     0.42997   0.67997   0.25000   0.00000  Uiso   1.00
C637   C     0.07003   0.82003   0.75000   0.00000  Uiso   1.00
C638   C     0.32002   0.92998   0.25000   0.00000  Uiso   1.00
C639   C     0.17997   0.57003   0.75000   0.00000  Uiso   1.00
C640   C     0.07003   0.82003   0.25000   0.00000  Uiso   1.00
C641   C     0.42997   0.67997   0.75000   0.00000  Uiso   1.00
C642   C     0.17997   0.92997   0.75000   0.00000  Uiso   1.00
C643   C     0.32003   0.57003   0.25000   0.00000  Uiso   1.00
C644   C     0.42998   0.82002   0.75000   0.00000  Uiso   1.00
C645   C     0.22233   0.98087   0.95801   0.00000  Uiso   1.00
C646   C     0.07003   0.67997   0.25000   0.00000  Uiso   1.00
C647   C     0.32003   0.57003   0.75000   0.00000  Uiso   1.00
C648   C     0.17997   0.92997   0.25000   0.00000  Uiso   1.00
C649   C     0.07002   0.67998   0.75000   0.00000  Uiso   1.00
C650   C     0.42997   0.82003   0.25000   0.00000  Uiso   1.00
C651   C     0.11549   0.91155   0.25830   0.00000  Uiso   1.00
C652   C     0.38451   0.58845   0.74170   0.00000  Uiso   1.00
C653   C     0.11741   0.64445   0.21565   0.00000  Uiso   1.00
C654   C     0.38240   0.85535   0.78426   0.00000  Uiso   1.00
C655   C     0.38451   0.58845   0.25830   0.00000  Uiso   1.00
C656   C     0.01914   0.77767   0.04199   0.00000  Uiso   1.00
C657   C     0.11548   0.91156   0.74175   0.00000  Uiso   1.00
C658   C     0.38235   0.85531   0.21576   0.00000  Uiso   1.00
C659   C     0.11745   0.64450   0.78433   0.00000  Uiso   1.00
C660   C     0.14451   0.61748   0.78432   0.00000  Uiso   1.00
C661   C     0.35532   0.88237   0.21575   0.00000  Uiso   1.00
C662   C     0.08844   0.88452   0.74175   0.00000  Uiso   1.00
C663   C     0.41155   0.61549   0.25830   0.00000  Uiso   1.00
C664   C     0.35534   0.88238   0.78425   0.00000  Uiso   1.00
C665   C     0.14444   0.61739   0.21564   0.00000  Uiso   1.00
C666   C     0.41155   0.61549   0.74170   0.00000  Uiso   1.00
C667   C     0.02008   0.72299   0.95795   0.00000  Uiso   1.00
C668   C     0.08845   0.88451   0.25830   0.00000  Uiso   1.00
C669   C     0.36549   0.66155   0.75830   0.00000  Uiso   1.00
C670   C     0.13451   0.83845   0.24170   0.00000  Uiso   1.00
C671   C     0.36763   0.89466   0.71575   0.00000  Uiso   1.00
C672   C     0.13261   0.60556   0.28435   0.00000  Uiso   1.00
C673   C     0.13452   0.83844   0.75825   0.00000  Uiso   1.00
C674   C     0.36549   0.66155   0.24170   0.00000  Uiso   1.00
C675   C     0.13253   0.60549   0.71569   0.00000  Uiso   1.00
C676   C     0.36763   0.89468   0.28425   0.00000  Uiso   1.00
C677   C     0.39469   0.86765   0.28424   0.00000  Uiso   1.00
C678   C     0.47299   0.77008   0.54205   0.00000  Uiso   1.00
C679   C     0.10550   0.63255   0.71568   0.00000  Uiso   1.00
C680   C     0.33845   0.63451   0.24170   0.00000  Uiso   1.00
C681   C     0.16156   0.86548   0.75825   0.00000  Uiso   1.00
C682   C     0.10555   0.63259   0.28435   0.00000  Uiso   1.00
C683   C     0.39466   0.86760   0.71574   0.00000  Uiso   1.00
C684   C     0.16155   0.86549   0.24170   0.00000  Uiso   1.00
C685   C     0.33845   0.63451   0.75830   0.00000  Uiso   1.00
C686   C     0.09809   0.84809   0.25000   0.00000  Uiso   1.00
C687   C     0.40191   0.65191   0.75000   0.00000  Uiso   1.00
C688   C     0.15192   0.59808   0.25000   0.00000  Uiso   1.00
H689   H     0.20202   0.53399   0.09804   0.00000  Uiso   1.00
H690   H     0.04910   0.78231   0.40205   0.00000  Uiso   1.00
H691   H     0.21767   0.95091   0.59795   0.00000  Uiso   1.00
H692   H     0.21601   0.54798   0.40196   0.00000  Uiso   1.00
H693   H     0.04797   0.71601   0.59804   0.00000  Uiso   1.00
H694   H     0.45090   0.71768   0.40204   0.00000  Uiso   1.00
H695   H     0.28232   0.54909   0.59796   0.00000  Uiso   1.00
H696   H     0.28399   0.95203   0.40196   0.00000  Uiso   1.00
H697   H     0.20162   0.54374   0.99649   0.00000  Uiso   1.00
H698   H     0.29981   0.54206   0.00358   0.00000  Uiso   1.00
H699   H     0.45795   0.70019   0.99642   0.00000  Uiso   1.00
H700   H     0.29910   0.53232   0.90205   0.00000  Uiso   1.00
H701   H     0.45626   0.79837   0.00351   0.00000  Uiso   1.00
H702   H     0.29836   0.95626   0.99648   0.00000  Uiso   1.00
H703   H     0.20017   0.95797   0.00358   0.00000  Uiso   1.00
H704   H     0.04204   0.79982   0.99642   0.00000  Uiso   1.00
H705   H     0.04374   0.70163   0.00351   0.00000  Uiso   1.00
H706   H     0.45163   0.79374   0.49649   0.00000  Uiso   1.00
H707   H     0.04981   0.79205   0.50358   0.00000  Uiso   1.00
H708   H     0.20795   0.95019   0.49642   0.00000  Uiso   1.00
H709   H     0.20626   0.54838   0.50351   0.00000  Uiso   1.00
H710   H     0.04836   0.70625   0.49649   0.00000  Uiso   1.00
H711   H     0.46768   0.70090   0.09795   0.00000  Uiso   1.00
H712   H     0.45017   0.70797   0.50358   0.00000  Uiso   1.00
H713   H     0.29204   0.54983   0.49642   0.00000  Uiso   1.00
H714   H     0.29374   0.95163   0.50351   0.00000  Uiso   1.00
H715   H     0.46601   0.79798   0.90196   0.00000  Uiso   1.00
H716   H     0.29797   0.96601   0.09804   0.00000  Uiso   1.00
H717   H     0.20090   0.96768   0.90204   0.00000  Uiso   1.00
H718   H     0.03232   0.79909   0.09796   0.00000  Uiso   1.00
H719   H     0.03399   0.70202   0.90196   0.00000  Uiso   1.00
H720   H     0.45202   0.78399   0.59804   0.00000  Uiso   1.00
O721   O     0.25000   0.50000   0.25000   0.00000  Uiso   1.00
O722   O     0.25000   0.96964   0.66317   0.00000  Uiso   1.00
O723   O     0.46964   0.75000   0.33683   0.00000  Uiso   1.00
O724   O     0.03036   0.75000   0.66317   0.00000  Uiso   1.00
O725   O     0.00000   0.71964   0.83683   0.00000  Uiso   1.00
O726   O     0.00000   0.78036   0.16317   0.00000  Uiso   1.00
O727   O     0.28036   0.50000   0.83683   0.00000  Uiso   1.00
O728   O     0.21964   0.50000   0.16317   0.00000  Uiso   1.00
O729   O     0.00000   0.78036   0.83683   0.00000  Uiso   1.00
O730   O     0.00000   0.71964   0.16317   0.00000  Uiso   1.00
O731   O     0.21964   0.50000   0.83683   0.00000  Uiso   1.00
O732   O     0.25000   0.50000   0.75000   0.00000  Uiso   1.00
O733   O     0.28036   0.50000   0.16317   0.00000  Uiso   1.00
O734   O     0.20726   0.57307   0.27282   0.00000  Uiso   1.00
O735   O     0.29275   0.92693   0.72718   0.00000  Uiso   1.00
O736   O     0.42693   0.70726   0.27282   0.00000  Uiso   1.00
O737   O     0.07307   0.79274   0.72718   0.00000  Uiso   1.00
O738   O     0.29275   0.92693   0.27282   0.00000  Uiso   1.00
O739   O     0.20726   0.57307   0.72718   0.00000  Uiso   1.00
O740   O     0.07307   0.79274   0.27282   0.00000  Uiso   1.00
O741   O     0.42693   0.70726   0.72718   0.00000  Uiso   1.00
O742   O     0.20726   0.92693   0.72718   0.00000  Uiso   1.00
O743   O     0.00000   0.75000   0.25000   0.00000  Uiso   1.00
O744   O     0.29275   0.57307   0.27282   0.00000  Uiso   1.00
O745   O     0.42693   0.79275   0.72718   0.00000  Uiso   1.00
O746   O     0.07307   0.70725   0.27282   0.00000  Uiso   1.00
O747   O     0.29275   0.57307   0.72718   0.00000  Uiso   1.00
O748   O     0.20726   0.92693   0.27282   0.00000  Uiso   1.00
O749   O     0.07307   0.70725   0.72718   0.00000  Uiso   1.00
O750   O     0.42693   0.79275   0.27282   0.00000  Uiso   1.00
O751   O     0.45726   0.82307   0.77282   0.00000  Uiso   1.00
O752   O     0.04275   0.67693   0.22718   0.00000  Uiso   1.00
O753   O     0.17693   0.95725   0.77282   0.00000  Uiso   1.00
O754   O     0.00000   0.75000   0.75000   0.00000  Uiso   1.00
O755   O     0.32307   0.54275   0.22718   0.00000  Uiso   1.00
O756   O     0.04275   0.67693   0.77282   0.00000  Uiso   1.00
O757   O     0.45726   0.82307   0.22718   0.00000  Uiso   1.00
O758   O     0.32307   0.54275   0.77282   0.00000  Uiso   1.00
O759   O     0.17693   0.95725   0.22718   0.00000  Uiso   1.00
O760   O     0.45726   0.67693   0.22718   0.00000  Uiso   1.00
O761   O     0.04275   0.82307   0.77282   0.00000  Uiso   1.00
O762   O     0.17693   0.54275   0.22718   0.00000  Uiso   1.00
O763   O     0.32307   0.95726   0.77282   0.00000  Uiso   1.00
O764   O     0.04275   0.82307   0.22718   0.00000  Uiso   1.00
O765   O     0.25000   0.96964   0.33683   0.00000  Uiso   1.00
O766   O     0.45726   0.67693   0.77282   0.00000  Uiso   1.00
O767   O     0.32307   0.95726   0.22718   0.00000  Uiso   1.00
O768   O     0.17693   0.54275   0.77282   0.00000  Uiso   1.00
O769   O     0.19630   0.54107   0.02440   0.00000  Uiso   1.00
O770   O     0.30504   0.53919   0.97567   0.00000  Uiso   1.00
O771   O     0.46081   0.69496   0.02433   0.00000  Uiso   1.00
O772   O     0.45893   0.80369   0.97560   0.00000  Uiso   1.00
O773   O     0.30369   0.95894   0.02440   0.00000  Uiso   1.00
O774   O     0.19495   0.96082   0.97566   0.00000  Uiso   1.00
O775   O     0.03919   0.80505   0.02434   0.00000  Uiso   1.00
O776   O     0.25000   0.53036   0.66317   0.00000  Uiso   1.00
O777   O     0.04107   0.69631   0.97560   0.00000  Uiso   1.00
O778   O     0.44631   0.79107   0.52440   0.00000  Uiso   1.00
O779   O     0.05505   0.78918   0.47567   0.00000  Uiso   1.00
O780   O     0.21081   0.94496   0.52433   0.00000  Uiso   1.00
O781   O     0.20893   0.55370   0.47560   0.00000  Uiso   1.00
O782   O     0.05369   0.70893   0.52440   0.00000  Uiso   1.00
O783   O     0.44495   0.71082   0.47566   0.00000  Uiso   1.00
O784   O     0.28919   0.55505   0.52434   0.00000  Uiso   1.00
O785   O     0.29107   0.94631   0.47560   0.00000  Uiso   1.00
O786   O     0.03036   0.75000   0.33683   0.00000  Uiso   1.00
O787   O     0.46964   0.75000   0.66317   0.00000  Uiso   1.00
O788   O     0.25000   0.53036   0.33683   0.00000  Uiso   1.00
Zn789  Zn    0.20660   0.50000   0.21760   0.00000  Uiso   1.00
Zn790  Zn    0.04340   0.75000   0.28240   0.00000  Uiso   1.00
Zn791  Zn    0.25000   0.95660   0.71760   0.00000  Uiso   1.00
Zn792  Zn    0.25000   0.54340   0.28240   0.00000  Uiso   1.00
Zn793  Zn    0.04340   0.75000   0.71760   0.00000  Uiso   1.00
Zn794  Zn    0.45660   0.75000   0.28240   0.00000  Uiso   1.00
Zn795  Zn    0.25000   0.54340   0.71760   0.00000  Uiso   1.00
Zn796  Zn    0.25000   0.95660   0.28240   0.00000  Uiso   1.00
Zn797  Zn    0.29340   0.50000   0.78240   0.00000  Uiso   1.00
Zn798  Zn    0.00000   0.70660   0.21760   0.00000  Uiso   1.00
Zn799  Zn    0.00000   0.79340   0.78240   0.00000  Uiso   1.00
Zn800  Zn    0.29340   0.50000   0.21760   0.00000  Uiso   1.00
Zn801  Zn    0.20660   0.50000   0.78240   0.00000  Uiso   1.00
Zn802  Zn    0.00000   0.79340   0.21760   0.00000  Uiso   1.00
Zn803  Zn    0.00000   0.70660   0.78240   0.00000  Uiso   1.00
Zn804  Zn    0.45660   0.75000   0.71760   0.00000  Uiso   1.00
Br805  Br    0.60291   0.96137   0.27150   0.00000  Uiso   1.00
Br806  Br    0.82708   0.89144   0.16940   0.00000  Uiso   1.00
Br807  Br    0.53861   0.89711   0.72860   0.00000  Uiso   1.00
Br808  Br    0.96137   0.60291   0.27151   0.00000  Uiso   1.00
Br809  Br    0.82707   0.89140   0.83056   0.00000  Uiso   1.00
Br810  Br    0.67235   0.60801   0.16912   0.00000  Uiso   1.00
Br811  Br    0.96137   0.60291   0.72849   0.00000  Uiso   1.00
Br812  Br    0.53863   0.89709   0.27151   0.00000  Uiso   1.00
Br813  Br    0.85291   0.71137   0.77151   0.00000  Uiso   1.00
Br814  Br    0.64709   0.78863   0.22849   0.00000  Uiso   1.00
Br815  Br    0.85860   0.92293   0.66943   0.00000  Uiso   1.00
Br816  Br    0.89709   0.53863   0.72848   0.00000  Uiso   1.00
Br817  Br    0.64198   0.57763   0.33086   0.00000  Uiso   1.00
Br818  Br    0.64711   0.78861   0.77140   0.00000  Uiso   1.00
Br819  Br    0.85291   0.71137   0.22849   0.00000  Uiso   1.00
Br820  Br    0.64173   0.57740   0.66927   0.00000  Uiso   1.00
Br821  Br    0.85856   0.92292   0.33059   0.00000  Uiso   1.00
Br822  Br    0.92299   0.85866   0.33055   0.00000  Uiso   1.00
Br823  Br    0.57751   0.64186   0.66920   0.00000  Uiso   1.00
Br824  Br    0.78863   0.64709   0.22850   0.00000  Uiso   1.00
Br825  Br    0.71139   0.85289   0.77141   0.00000  Uiso   1.00
Br826  Br    0.57757   0.64187   0.33082   0.00000  Uiso   1.00
Br827  Br    0.60813   0.67245   0.16919   0.00000  Uiso   1.00
Br828  Br    0.92287   0.85850   0.66939   0.00000  Uiso   1.00
Br829  Br    0.71137   0.85291   0.22849   0.00000  Uiso   1.00
Br830  Br    0.78863   0.64709   0.77152   0.00000  Uiso   1.00
Br831  Br    0.89152   0.82716   0.83063   0.00000  Uiso   1.00
Br832  Br    0.89709   0.53863   0.27151   0.00000  Uiso   1.00
Br833  Br    0.60289   0.96139   0.72859   0.00000  Uiso   1.00
Br834  Br    0.89134   0.82701   0.16945   0.00000  Uiso   1.00
Br835  Br    0.60815   0.67250   0.83079   0.00000  Uiso   1.00
Br836  Br    0.67258   0.60827   0.83075   0.00000  Uiso   1.00
C837   C     0.72299   0.52009   0.04205   0.00000  Uiso   1.00
C838   C     0.52767   0.76914   0.45801   0.00000  Uiso   1.00
C839   C     0.84809   0.90191   0.75000   0.00000  Uiso   1.00
C840   C     0.90191   0.65191   0.25000   0.00000  Uiso   1.00
C841   C     0.59809   0.84809   0.75000   0.00000  Uiso   1.00
C842   C     0.84808   0.90192   0.25000   0.00000  Uiso   1.00
C843   C     0.65191   0.59809   0.75000   0.00000  Uiso   1.00
C844   C     0.59808   0.65192   0.75000   0.00000  Uiso   1.00
C845   C     0.90191   0.84809   0.25000   0.00000  Uiso   1.00
C846   C     0.65191   0.90191   0.75000   0.00000  Uiso   1.00
C847   C     0.84809   0.59809   0.25000   0.00000  Uiso   1.00
C848   C     0.90192   0.84808   0.75000   0.00000  Uiso   1.00
C849   C     0.73086   0.97233   0.54199   0.00000  Uiso   1.00
C850   C     0.59809   0.65191   0.25000   0.00000  Uiso   1.00
C851   C     0.84809   0.59809   0.75000   0.00000  Uiso   1.00
C852   C     0.65191   0.90191   0.25000   0.00000  Uiso   1.00
C853   C     0.75000   0.50000   0.10254   0.00000  Uiso   1.00
C854   C     0.75000   0.50000   0.89750   0.00000  Uiso   1.00
C855   C     0.50000   0.75000   0.10250   0.00000  Uiso   1.00
C856   C     0.50000   0.75000   0.89745   0.00000  Uiso   1.00
C857   C     0.50000   0.75000   0.60254   0.00000  Uiso   1.00
C858   C     0.50000   0.75000   0.39750   0.00000  Uiso   1.00
C859   C     0.75000   0.50000   0.60250   0.00000  Uiso   1.00
C860   C     0.72992   0.52701   0.45795   0.00000  Uiso   1.00
C861   C     0.75000   0.50000   0.39745   0.00000  Uiso   1.00
C862   C     0.52701   0.72992   0.54205   0.00000  Uiso   1.00
C863   C     0.97233   0.73086   0.45801   0.00000  Uiso   1.00
C864   C     0.76914   0.52767   0.54199   0.00000  Uiso   1.00
C865   C     0.77008   0.97299   0.45795   0.00000  Uiso   1.00
C866   C     0.72286   0.51896   0.08236   0.00000  Uiso   1.00
C867   C     0.77775   0.51802   0.91770   0.00000  Uiso   1.00
C868   C     0.98198   0.72225   0.08230   0.00000  Uiso   1.00
C869   C     0.77767   0.51914   0.95801   0.00000  Uiso   1.00
C870   C     0.98104   0.77714   0.91764   0.00000  Uiso   1.00
C871   C     0.77713   0.98104   0.08236   0.00000  Uiso   1.00
C872   C     0.72225   0.98198   0.91770   0.00000  Uiso   1.00
C873   C     0.51802   0.77775   0.08230   0.00000  Uiso   1.00
C874   C     0.51896   0.72286   0.91764   0.00000  Uiso   1.00
C875   C     0.97286   0.76896   0.58236   0.00000  Uiso   1.00
C876   C     0.52775   0.76802   0.41770   0.00000  Uiso   1.00
C877   C     0.73198   0.97225   0.58230   0.00000  Uiso   1.00
C878   C     0.73104   0.52714   0.41764   0.00000  Uiso   1.00
C879   C     0.52713   0.73104   0.58236   0.00000  Uiso   1.00
C880   C     0.98086   0.72233   0.04199   0.00000  Uiso   1.00
C881   C     0.97225   0.73198   0.41770   0.00000  Uiso   1.00
C882   C     0.76802   0.52775   0.58230   0.00000  Uiso   1.00
C883   C     0.76896   0.97287   0.41764   0.00000  Uiso   1.00
C884   C     0.75000   0.50000   0.02139   0.00000  Uiso   1.00
C885   C     0.75000   0.50000   0.97867   0.00000  Uiso   1.00
C886   C     0.50000   0.75000   0.02133   0.00000  Uiso   1.00
C887   C     0.50000   0.75000   0.97861   0.00000  Uiso   1.00
C888   C     0.50000   0.75000   0.52139   0.00000  Uiso   1.00
C889   C     0.50000   0.75000   0.47867   0.00000  Uiso   1.00
C890   C     0.75000   0.50000   0.52133   0.00000  Uiso   1.00
C891   C     0.97992   0.77701   0.95795   0.00000  Uiso   1.00
C892   C     0.75000   0.50000   0.47861   0.00000  Uiso   1.00
C893   C     0.75000   0.50000   0.35519   0.00000  Uiso   1.00
C894   C     0.75000   0.50000   0.64479   0.00000  Uiso   1.00
C895   C     0.50000   0.75000   0.35520   0.00000  Uiso   1.00
C896   C     0.50000   0.75000   0.64481   0.00000  Uiso   1.00
C897   C     0.50000   0.75000   0.85519   0.00000  Uiso   1.00
C898   C     0.50000   0.75000   0.14479   0.00000  Uiso   1.00
C899   C     0.75000   0.50000   0.85520   0.00000  Uiso   1.00
C900   C     0.75000   0.50000   0.14481   0.00000  Uiso   1.00
C901   C     0.67998   0.57003   0.25000   0.00000  Uiso   1.00
C902   C     0.77701   0.97992   0.04205   0.00000  Uiso   1.00
C903   C     0.82003   0.92997   0.75000   0.00000  Uiso   1.00
C904   C     0.92997   0.67997   0.25000   0.00000  Uiso   1.00
C905   C     0.57003   0.82003   0.75000   0.00000  Uiso   1.00
C906   C     0.82002   0.92998   0.25000   0.00000  Uiso   1.00
C907   C     0.67997   0.57003   0.75000   0.00000  Uiso   1.00
C908   C     0.57003   0.82003   0.25000   0.00000  Uiso   1.00
C909   C     0.92997   0.67997   0.75000   0.00000  Uiso   1.00
C910   C     0.67997   0.92997   0.75000   0.00000  Uiso   1.00
C911   C     0.82003   0.57003   0.25000   0.00000  Uiso   1.00
C912   C     0.92998   0.82002   0.75000   0.00000  Uiso   1.00
C913   C     0.72233   0.98087   0.95801   0.00000  Uiso   1.00
C914   C     0.57003   0.67997   0.25000   0.00000  Uiso   1.00
C915   C     0.82003   0.57003   0.75000   0.00000  Uiso   1.00
C916   C     0.67997   0.92997   0.25000   0.00000  Uiso   1.00
C917   C     0.57002   0.67998   0.75000   0.00000  Uiso   1.00
C918   C     0.92997   0.82003   0.25000   0.00000  Uiso   1.00
C919   C     0.61549   0.91155   0.25830   0.00000  Uiso   1.00
C920   C     0.88451   0.58845   0.74170   0.00000  Uiso   1.00
C921   C     0.61741   0.64445   0.21565   0.00000  Uiso   1.00
C922   C     0.88240   0.85535   0.78426   0.00000  Uiso   1.00
C923   C     0.88451   0.58845   0.25830   0.00000  Uiso   1.00
C924   C     0.51914   0.77767   0.04199   0.00000  Uiso   1.00
C925   C     0.61548   0.91156   0.74175   0.00000  Uiso   1.00
C926   C     0.88235   0.85531   0.21576   0.00000  Uiso   1.00
C927   C     0.61745   0.64450   0.78433   0.00000  Uiso   1.00
C928   C     0.64451   0.61748   0.78432   0.00000  Uiso   1.00
C929   C     0.85532   0.88237   0.21575   0.00000  Uiso   1.00
C930   C     0.58844   0.88452   0.74175   0.00000  Uiso   1.00
C931   C     0.91155   0.61549   0.25830   0.00000  Uiso   1.00
C932   C     0.85534   0.88238   0.78425   0.00000  Uiso   1.00
C933   C     0.64444   0.61739   0.21564   0.00000  Uiso   1.00
C934   C     0.91155   0.61549   0.74170   0.00000  Uiso   1.00
C935   C     0.52008   0.72299   0.95795   0.00000  Uiso   1.00
C936   C     0.58845   0.88451   0.25830   0.00000  Uiso   1.00
C937   C     0.86549   0.66155   0.75830   0.00000  Uiso   1.00
C938   C     0.63451   0.83845   0.24170   0.00000  Uiso   1.00
C939   C     0.86763   0.89466   0.71575   0.00000  Uiso   1.00
C940   C     0.63261   0.60556   0.28435   0.00000  Uiso   1.00
C941   C     0.63452   0.83844   0.75825   0.00000  Uiso   1.00
C942   C     0.86549   0.66155   0.24170   0.00000  Uiso   1.00
C943   C     0.63253   0.60549   0.71569   0.00000  Uiso   1.00
C944   C     0.86763   0.89468   0.28425   0.00000  Uiso   1.00
C945   C     0.89469   0.86765   0.28424   0.00000  Uiso   1.00
C946   C     0.97299   0.77008   0.54205   0.00000  Uiso   1.00
C947   C     0.60550   0.63255   0.71568   0.00000  Uiso   1.00
C948   C     0.83845   0.63451   0.24170   0.00000  Uiso   1.00
C949   C     0.66156   0.86548   0.75825   0.00000  Uiso   1.00
C950   C     0.60555   0.63259   0.28435   0.00000  Uiso   1.00
C951   C     0.89466   0.86760   0.71574   0.00000  Uiso   1.00
C952   C     0.66155   0.86549   0.24170   0.00000  Uiso   1.00
C953   C     0.83845   0.63451   0.75830   0.00000  Uiso   1.00
C954   C     0.59809   0.84809   0.25000   0.00000  Uiso   1.00
C955   C     0.90191   0.65191   0.75000   0.00000  Uiso   1.00
C956   C     0.65192   0.59808   0.25000   0.00000  Uiso   1.00
H957   H     0.70202   0.53399   0.09804   0.00000  Uiso   1.00
H958   H     0.54910   0.78231   0.40205   0.00000  Uiso   1.00
H959   H     0.71767   0.95091   0.59795   0.00000  Uiso   1.00
H960   H     0.71601   0.54798   0.40196   0.00000  Uiso   1.00
H961   H     0.54797   0.71601   0.59804   0.00000  Uiso   1.00
H962   H     0.95090   0.71768   0.40204   0.00000  Uiso   1.00
H963   H     0.78232   0.54909   0.59796   0.00000  Uiso   1.00
H964   H     0.78399   0.95203   0.40196   0.00000  Uiso   1.00
H965   H     0.70162   0.54374   0.99649   0.00000  Uiso   1.00
H966   H     0.79981   0.54206   0.00358   0.00000  Uiso   1.00
H967   H     0.95795   0.70019   0.99642   0.00000  Uiso   1.00
H968   H     0.79910   0.53232   0.90205   0.00000  Uiso   1.00
H969   H     0.95626   0.79837   0.00351   0.00000  Uiso   1.00
H970   H     0.79836   0.95626   0.99648   0.00000  Uiso   1.00
H971   H     0.70017   0.95797   0.00358   0.00000  Uiso   1.00
H972   H     0.54204   0.79982   0.99642   0.00000  Uiso   1.00
H973   H     0.54374   0.70163   0.00351   0.00000  Uiso   1.00
H974   H     0.95163   0.79374   0.49649   0.00000  Uiso   1.00
H975   H     0.54981   0.79205   0.50358   0.00000  Uiso   1.00
H976   H     0.70795   0.95019   0.49642   0.00000  Uiso   1.00
H977   H     0.70626   0.54838   0.50351   0.00000  Uiso   1.00
H978   H     0.54836   0.70625   0.49649   0.00000  Uiso   1.00
H979   H     0.96768   0.70090   0.09795   0.00000  Uiso   1.00
H980   H     0.95017   0.70797   0.50358   0.00000  Uiso   1.00
H981   H     0.79204   0.54983   0.49642   0.00000  Uiso   1.00
H982   H     0.79374   0.95163   0.50351   0.00000  Uiso   1.00
H983   H     0.96601   0.79798   0.90196   0.00000  Uiso   1.00
H984   H     0.79797   0.96601   0.09804   0.00000  Uiso   1.00
H985   H     0.70090   0.96768   0.90204   0.00000  Uiso   1.00
H986   H     0.53232   0.79909   0.09796   0.00000  Uiso   1.00
H987   H     0.53399   0.70202   0.90196   0.00000  Uiso   1.00
H988   H     0.95202   0.78399   0.59804   0.00000  Uiso   1.00
O989   O     0.75000   0.50000   0.25000   0.00000  Uiso   1.00
O990   O     0.75000   0.96964   0.66317   0.00000  Uiso   1.00
O991   O     0.96964   0.75000   0.33683   0.00000  Uiso   1.00
O992   O     0.53036   0.75000   0.66317   0.00000  Uiso   1.00
O993   O     0.50000   0.71964   0.83683   0.00000  Uiso   1.00
O994   O     0.50000   0.78036   0.16317   0.00000  Uiso   1.00
O995   O     0.78036   0.50000   0.83683   0.00000  Uiso   1.00
O996   O     0.71964   0.50000   0.16317   0.00000  Uiso   1.00
O997   O     0.50000   0.78036   0.83683   0.00000  Uiso   1.00
O998   O     0.50000   0.71964   0.16317   0.00000  Uiso   1.00
O999   O     0.71964   0.50000   0.83683   0.00000  Uiso   1.00
O1000  O     0.75000   0.50000   0.75000   0.00000  Uiso   1.00
O1001  O     0.78036   0.50000   0.16317   0.00000  Uiso   1.00
O1002  O     0.70726   0.57307   0.27282   0.00000  Uiso   1.00
O1003  O     0.79275   0.92693   0.72718   0.00000  Uiso   1.00
O1004  O     0.92693   0.70726   0.27282   0.00000  Uiso   1.00
O1005  O     0.57307   0.79274   0.72718   0.00000  Uiso   1.00
O1006  O     0.79275   0.92693   0.27282   0.00000  Uiso   1.00
O1007  O     0.70726   0.57307   0.72718   0.00000  Uiso   1.00
O1008  O     0.57307   0.79274   0.27282   0.00000  Uiso   1.00
O1009  O     0.92693   0.70726   0.72718   0.00000  Uiso   1.00
O1010  O     0.70726   0.92693   0.72718   0.00000  Uiso   1.00
O1011  O     0.50000   0.75000   0.25000   0.00000  Uiso   1.00
O1012  O     0.79275   0.57307   0.27282   0.00000  Uiso   1.00
O1013  O     0.92693   0.79275   0.72718   0.00000  Uiso   1.00
O1014  O     0.57307   0.70725   0.27282   0.00000  Uiso   1.00
O1015  O     0.79275   0.57307   0.72718   0.00000  Uiso   1.00
O1016  O     0.70726   0.92693   0.27282   0.00000  Uiso   1.00
O1017  O     0.57307   0.70725   0.72718   0.00000  Uiso   1.00
O1018  O     0.92693   0.79275   0.27282   0.00000  Uiso   1.00
O1019  O     0.95726   0.82307   0.77282   0.00000  Uiso   1.00
O1020  O     0.54275   0.67693   0.22718   0.00000  Uiso   1.00
O1021  O     0.67693   0.95725   0.77282   0.00000  Uiso   1.00
O1022  O     0.50000   0.75000   0.75000   0.00000  Uiso   1.00
O1023  O     0.82307   0.54275   0.22718   0.00000  Uiso   1.00
O1024  O     0.54275   0.67693   0.77282   0.00000  Uiso   1.00
O1025  O     0.95726   0.82307   0.22718   0.00000  Uiso   1.00
O1026  O     0.82307   0.54275   0.77282   0.00000  Uiso   1.00
O1027  O     0.67693   0.95725   0.22718   0.00000  Uiso   1.00
O1028  O     0.95726   0.67693   0.22718   0.00000  Uiso   1.00
O1029  O     0.54275   0.82307   0.77282   0.00000  Uiso   1.00
O1030  O     0.67693   0.54275   0.22718   0.00000  Uiso   1.00
O1031  O     0.82307   0.95726   0.77282   0.00000  Uiso   1.00
O1032  O     0.54275   0.82307   0.22718   0.00000  Uiso   1.00
O1033  O     0.75000   0.96964   0.33683   0.00000  Uiso   1.00
O1034  O     0.95726   0.67693   0.77282   0.00000  Uiso   1.00
O1035  O     0.82307   0.95726   0.22718   0.00000  Uiso   1.00
O1036  O     0.67693   0.54275   0.77282   0.00000  Uiso   1.00
O1037  O     0.69630   0.54107   0.02440   0.00000  Uiso   1.00
O1038  O     0.80504   0.53919   0.97567   0.00000  Uiso   1.00
O1039  O     0.96081   0.69496   0.02433   0.00000  Uiso   1.00
O1040  O     0.95893   0.80369   0.97560   0.00000  Uiso   1.00
O1041  O     0.80369   0.95894   0.02440   0.00000  Uiso   1.00
O1042  O     0.69495   0.96082   0.97566   0.00000  Uiso   1.00
O1043  O     0.53919   0.80505   0.02434   0.00000  Uiso   1.00
O1044  O     0.75000   0.53036   0.66317   0.00000  Uiso   1.00
O1045  O     0.54107   0.69631   0.97560   0.00000  Uiso   1.00
O1046  O     0.94631   0.79107   0.52440   0.00000  Uiso   1.00
O1047  O     0.55505   0.78918   0.47567   0.00000  Uiso   1.00
O1048  O     0.71081   0.94496   0.52433   0.00000  Uiso   1.00
O1049  O     0.70893   0.55370   0.47560   0.00000  Uiso   1.00
O1050  O     0.55369   0.70893   0.52440   0.00000  Uiso   1.00
O1051  O     0.94495   0.71082   0.47566   0.00000  Uiso   1.00
O1052  O     0.78919   0.55505   0.52434   0.00000  Uiso   1.00
O1053  O     0.79107   0.94631   0.47560   0.00000  Uiso   1.00
O1054  O     0.53036   0.75000   0.33683   0.00000  Uiso   1.00
O1055  O     0.96964   0.75000   0.66317   0.00000  Uiso   1.00
O1056  O     0.75000   0.53036   0.33683   0.00000  Uiso   1.00
Zn1057 Zn    0.70660   0.50000   0.21760   0.00000  Uiso   1.00
Zn1058 Zn    0.54340   0.75000   0.28240   0.00000  Uiso   1.00
Zn1059 Zn    0.75000   0.95660   0.71760   0.00000  Uiso   1.00
Zn1060 Zn    0.75000   0.54340   0.28240   0.00000  Uiso   1.00
Zn1061 Zn    0.54340   0.75000   0.71760   0.00000  Uiso   1.00
Zn1062 Zn    0.95660   0.75000   0.28240   0.00000  Uiso   1.00
Zn1063 Zn    0.75000   0.54340   0.71760   0.00000  Uiso   1.00
Zn1064 Zn    0.75000   0.95660   0.28240   0.00000  Uiso   1.00
Zn1065 Zn    0.79340   0.50000   0.78240   0.00000  Uiso   1.00
Zn1066 Zn    0.50000   0.70660   0.21760   0.00000  Uiso   1.00
Zn1067 Zn    0.50000   0.79340   0.78240   0.00000  Uiso   1.00
Zn1068 Zn    0.79340   0.50000   0.21760   0.00000  Uiso   1.00
Zn1069 Zn    0.70660   0.50000   0.78240   0.00000  Uiso   1.00
Zn1070 Zn    0.50000   0.79340   0.21760   0.00000  Uiso   1.00
Zn1071 Zn    0.50000   0.70660   0.78240   0.00000  Uiso   1.00
Zn1072 Zn    0.95660   0.75000   0.71760   0.00000  Uiso   1.00
loop_
_geom_bond_atom_site_label_1
_geom_bond_atom_site_label_2
_geom_bond_distance
_geom_bond_site_symmetry_2
_ccdc_geom_bond_type
Br1    C115    1.933   .     S
Br2    C125    1.933   .     S
Br3    C126    1.933   .     S
Br4    C127    1.933   .     S
Br5    C128    1.933   .     S
Br6    C129    1.934   .     S
Br7    C130    1.933   .     S
Br8    C132    1.933   .     S
Br9    C133    1.933   .     S
Br10   C134    1.933   .     S
Br11   C135    1.933   .     S
Br12   C116    1.933   .     S
Br13   C136    1.934   .     S
Br14   C137    1.933   .     S
Br15   C138    1.933   .     S
Br16   C139    1.933   .     S
Br17   C140    1.933   .     S
Br18   C141    1.933   .     S
Br19   C143    1.933   .     S
Br20   C144    1.933   .     S
Br21   C145    1.933   .     S
Br22   C146    1.933   .     S
Br23   C117    1.933   .     S
Br24   C147    1.933   .     S
Br25   C148    1.933   .     S
Br26   C149    1.933   .     S
Br27   C118    1.933   .     S
Br28   C119    1.933   .     S
Br29   C121    1.933   .     S
Br30   C122    1.933   .     S
Br31   C123    1.933   .     S
Br32   C124    1.933   .     S
C33    O233    1.383   .     S
C33    C62     1.392   .     A
C33    C80     1.422   .     A
C34    C72     1.392   .     A
C34    O243    1.383   .     S
C34    C85     1.422   .     S
C35    C99     1.451   .     S
C35    C135    1.407   .     A
C35    C128    1.407   .     A
C36    C100    1.451   .     S
C36    C138    1.407   .     A
C36    C127    1.407   .     A
C37    C137    1.407   .     A
C37    C126    1.407   .     A
C37    C101    1.451   .     S
C38    C125    1.407   .     A
C38    C102    1.451   .     S
C38    C140    1.407   .     A
C39    C139    1.407   .     A
C39    C103    1.451   .     S
C39    C124    1.407   .     A
C40    C113    1.451   .     S
C40    C123    1.407   .     A
C40    C143    1.407   .     A
C41    C114    1.451   .     S
C41    C141    1.407   .     A
C41    C122    1.407   .     A
C42    C106    1.451   .     S
C42    C145    1.407   .     A
C42    C121    1.407   .     A
C43    C144    1.407   .     A
C43    C107    1.451   .     S
C43    C119    1.407   .     A
C44    C147    1.407   .     A
C44    C108    1.451   .     S
C44    C118    1.407   .     A
C45    C73     1.392   .     A
C45    O244    1.383   .     S
C45    C622    1.422   .     S
C46    C117    1.407   .     A
C46    C110    1.451   .     S
C46    C146    1.407   .     A
C47    C116    1.407   .     A
C47    C149    1.407   .     A
C47    C111    1.451   .     S
C48    C115    1.407   .     A
C48    C112    1.451   .     S
C48    C148    1.407   .     A
C49    C96     1.459   .     S
C49    C62     1.397   .     A
C49    C603    1.397   1_545 S
C50    C63     1.397   .     A
C50    C604    1.397   1_545 S
C50    C95     1.460   .     S
C51    C94     1.460   .     S
C51    C69     1.397   .     A
C51    C332    1.397   1_455 S
C52    C70     1.397   .     A
C52    C93     1.459   .     S
C52    C334    1.397   1_455 S
C53    C92     1.459   .     S
C53    C339    1.397   1_455 A
C53    C75     1.397   .     S
C54    C91     1.460   .     S
C54    C72     1.397   .     A
C54    C345    1.397   1_455 S
C55    C609    1.397   1_545 A
C55    C90     1.460   .     S
C55    C78     1.397   .     S
C56    C88     1.422   .     A
C56    C74     1.392   .     A
C56    O245    1.383   .     S
C57    C89     1.459   .     S
C57    C74     1.397   .     A
C57    C615    1.397   1_545 S
C58    C75     1.392   .     A
C58    O246    1.383   .     S
C58    C84     1.422   .     S
C59    C77     1.392   .     A
C59    C353    1.422   .     A
C59    O247    1.383   .     S
C60    C78     1.392   .     A
C60    O248    1.383   .     S
C60    C86     1.422   .     A
C61    O249    1.383   .     S
C61    C79     1.392   .     A
C61    C624    1.422   .     S
C62    H153    1.084   .     S
C63    C65     1.392   .     A
C63    H164    1.084   .     S
C64    C76     1.392   .     A
C64    H175    1.084   .     S
C64    C319    1.397   .     S
C65    O234    1.383   .     S
C65    C81     1.422   .     A
C66    C87     1.392   .     A
C66    H179    1.084   .     S
C66    C320    1.397   .     S
C67    H180    1.084   .     S
C67    C98     1.392   .     A
C67    C585    1.397   .     S
C68    H181    1.084   .     S
C68    C109    1.392   .     A
C68    C586    1.397   .     S
C69    H182    1.084   .     S
C69    C120    1.392   .     A
C70    C131    1.392   .     A
C70    H183    1.084   .     S
C71    C142    1.392   .     A
C71    C321    1.397   .     A
C71    H184    1.084   .     S
C72    H154    1.084   .     S
C73    C591    1.397   .     A
C73    H155    1.084   .     S
C74    H156    1.084   .     S
C75    H157    1.084   .     S
C76    O235    1.383   .     S
C76    C350    1.422   .     S
C77    H158    1.084   .     S
C77    C322    1.397   .     S
C78    H159    1.084   .     S
C79    H160    1.084   .     S
C79    C593    1.397   .     S
C80    C81     1.475   1_554 S
C80    C634    1.422   1_545 S
C81    C80     1.475   1_556 S
C81    C645    1.422   1_545 S
C82    C120    1.422   .     A
C82    C344    1.422   1_455 S
C82    C83     1.475   1_554 S
C83    C131    1.422   .     A
C83    C82     1.475   1_556 S
C83    C355    1.422   1_455 S
C84    C85     1.475   .     S
C84    C410    1.422   1_455 A
C85    C327    1.422   1_455 A
C86    C88     1.475   .     S
C86    C581    1.422   1_545 S
C87    O236    1.383   .     S
C87    C351    1.422   .     S
C88    C597    1.422   1_545 S
C89    O252    1.278   .     A
C89    O765    1.278   1_545 S
C90    O722    1.279   1_545 A
C90    O240    1.279   .     S
C91    O250    1.279   .     A
C91    O455    1.279   1_455 S
C92    O519    1.278   1_455 A
C92    O188    1.278   .     S
C93    O189    1.278   .     A
C93    O193    1.278   .     S
C94    O190    1.279   .     S
C94    O194    1.279   .     S
C95    O191    1.279   .     S
C95    O195    1.279   .     S
C96    O197    1.278   .     A
C96    O192    1.278   .     A
C97    O226    1.276   .     A
C97    O198    1.276   .     A
C97    C152    1.451   .     S
C98    O237    1.383   .     S
C98    C616    1.422   .     S
C99    O199    1.276   .     A
C99    O227    1.276   .     A
C100   O224    1.276   .     A
C100   O200    1.276   .     A
C101   O225    1.276   .     A
C101   O201    1.276   .     A
C102   O231    1.276   .     A
C102   O202    1.276   .     A
C103   O232    1.276   .     A
C103   O203    1.276   .     A
C104   C150    1.451   .     S
C104   O204    1.276   .     A
C104   O228    1.276   .     A
C105   C151    1.451   .     S
C105   O205    1.276   .     A
C105   O230    1.276   .     A
C106   O217    1.276   .     A
C106   O206    1.276   .     A
C107   O208    1.276   .     A
C107   O219    1.276   .     A
C108   O209    1.276   .     A
C108   O215    1.276   .     A
C109   O238    1.383   .     S
C109   C617    1.422   .     S
C110   O210    1.276   .     A
C110   O216    1.276   .     A
C111   O211    1.276   .     A
C111   O222    1.276   .     A
C112   O223    1.276   .     A
C112   O212    1.276   .     A
C113   O213    1.276   .     A
C113   O220    1.276   .     A
C114   O214    1.276   .     A
C114   O221    1.276   .     A
C115   C132    1.398   .     A
C116   C130    1.398   .     A
C117   C129    1.398   .     A
C118   C128    1.398   .     A
C119   C127    1.398   .     A
C120   O239    1.383   .     S
C121   C126    1.398   .     A
C122   C125    1.398   .     A
C123   C124    1.398   .     A
C129   C152    1.407   .     A
C130   C151    1.407   .     A
C131   O241    1.383   .     S
C132   C150    1.407   .     A
C133   C151    1.407   .     A
C133   C149    1.398   .     A
C134   C150    1.407   .     A
C134   C148    1.398   .     A
C135   C147    1.398   .     A
C136   C146    1.398   .     A
C136   C152    1.407   .     A
C137   C145    1.398   .     A
C138   C144    1.398   .     A
C139   C143    1.398   .     A
C140   C141    1.398   .     A
C142   O242    1.383   .     S
C142   C352    1.422   .     A
H161   O233    0.988   1_556 S
H162   O234    0.988   1_554 S
H163   O235    0.988   1_556 S
H165   O236    0.988   1_554 S
H166   O237    0.988   1_556 S
H167   O238    0.988   1_554 S
H168   O239    0.988   1_556 S
H169   O241    0.988   1_554 S
H170   O242    0.988   .     S
H171   O243    0.988   .     S
H172   O244    0.988   .     S
H173   O245    0.988   .     S
H174   O246    0.988   .     S
H176   O247    0.988   .     S
H177   O248    0.988   .     S
H178   O249    0.988   .     S
O185   Zn256   1.942   .     S
O185   Zn253   1.942   .     S
O185   Zn264   1.942   .     S
O185   Zn796   1.942   1_545 S
O186   C626    1.279   .     A
O186   Zn255   1.939   .     S
O187   Zn258   1.939   .     S
O187   C359    1.279   .     S
O188   Zn257   1.939   .     S
O189   Zn267   1.939   .     S
O190   Zn266   1.939   .     S
O191   Zn261   1.939   .     S
O192   Zn253   1.939   .     S
O193   Zn263   1.939   .     S
O194   Zn262   1.939   .     S
O195   Zn265   1.939   .     S
O196   Zn261   1.942   .     S
O196   Zn265   1.942   .     S
O196   Zn259   1.942   .     S
O196   Zn791   1.942   1_545 S
O197   Zn264   1.939   .     S
O198   Zn256   1.931   .     S
O199   Zn255   1.931   .     S
O200   Zn258   1.931   .     S
O201   Zn257   1.931   .     S
O202   Zn260   1.931   .     S
O203   Zn259   1.931   .     S
O204   Zn254   1.931   .     S
O205   Zn268   1.931   .     S
O206   Zn255   1.931   .     S
O207   Zn254   1.942   .     S
O207   Zn266   1.942   .     S
O207   Zn526   1.942   1_455 S
O207   Zn262   1.942   .     S
O208   Zn256   1.931   .     S
O209   Zn268   1.931   .     S
O210   Zn254   1.931   .     S
O211   Zn259   1.931   .     S
O212   Zn260   1.931   .     S
O213   Zn257   1.931   .     S
O214   Zn258   1.931   .     S
O215   Zn531   1.931   .     S
O216   Zn262   1.931   .     S
O217   Zn801   1.931   .     S
O218   Zn263   1.942   .     S
O218   Zn257   1.942   .     S
O218   Zn267   1.942   .     S
O218   Zn536   1.942   1_455 S
O219   Zn264   1.931   .     S
O220   Zn267   1.931   .     S
O221   Zn534   1.931   .     S
O222   Zn261   1.931   .     S
O223   Zn789   1.931   .     S
O224   Zn530   1.931   .     S
O225   Zn263   1.931   .     S
O226   Zn253   1.931   .     S
O227   Zn797   1.931   .     S
O228   Zn266   1.931   .     S
O229   Zn260   1.939   .     S
O229   C625    1.278   .     S
O230   Zn535   1.931   .     S
O231   Zn800   1.931   .     S
O232   Zn265   1.931   .     S
O233   H161    0.988   1_554 S
O234   H162    0.988   1_556 S
O235   H163    0.988   1_554 S
O236   H165    0.988   1_556 S
O237   H166    0.988   1_554 S
O238   H167    0.988   1_556 S
O239   H168    0.988   1_554 S
O240   Zn259   1.939   .     S
O241   H169    0.988   1_556 S
O250   Zn254   1.939   .     S
O251   C360    1.278   .     A
O251   Zn268   1.939   .     S
O252   Zn256   1.939   .     S
Zn253  O759    1.931   1_545 S
Zn255  O732    1.942   .     S
Zn258  O475    1.942   .     S
Zn260  O721    1.942   .     S
Zn261  O763    1.931   1_545 S
Zn262  O492    1.931   1_455 S
Zn263  O483    1.931   1_455 S
Zn264  O767    1.931   1_545 S
Zn265  O753    1.931   1_545 S
Zn266  O489    1.931   1_455 S
Zn267  O498    1.931   1_455 S
Zn268  O486    1.942   .     S
Br269  C383    1.933   .     S
Br270  C393    1.933   .     S
Br271  C394    1.933   .     S
Br272  C395    1.933   .     S
Br273  C396    1.933   .     S
Br274  C397    1.934   .     S
Br275  C398    1.933   .     S
Br276  C400    1.933   .     S
Br277  C401    1.933   .     S
Br278  C402    1.933   .     S
Br279  C403    1.933   .     S
Br280  C384    1.933   .     S
Br281  C404    1.934   .     S
Br282  C405    1.933   .     S
Br283  C406    1.933   .     S
Br284  C407    1.933   .     S
Br285  C408    1.933   .     S
Br286  C409    1.933   .     S
Br287  C411    1.933   .     S
Br288  C412    1.933   .     S
Br289  C413    1.933   .     S
Br290  C414    1.933   .     S
Br291  C385    1.933   .     S
Br292  C415    1.933   .     S
Br293  C416    1.933   .     S
Br294  C417    1.933   .     S
Br295  C386    1.933   .     S
Br296  C387    1.933   .     S
Br297  C389    1.933   .     S
Br298  C390    1.933   .     S
Br299  C391    1.933   .     S
Br300  C392    1.933   .     S
C301   O501    1.383   .     S
C301   C330    1.392   .     A
C301   C348    1.422   .     A
C302   C340    1.392   .     A
C302   O511    1.383   .     S
C302   C353    1.422   .     S
C303   C367    1.451   .     S
C303   C403    1.407   .     A
C303   C396    1.407   .     A
C304   C368    1.451   .     S
C304   C406    1.407   .     A
C304   C395    1.407   .     A
C305   C405    1.407   .     A
C305   C394    1.407   .     A
C305   C369    1.451   .     S
C306   C393    1.407   .     A
C306   C370    1.451   .     S
C306   C408    1.407   .     A
C307   C407    1.407   .     A
C307   C371    1.451   .     S
C307   C392    1.407   .     A
C308   C381    1.451   .     S
C308   C391    1.407   .     A
C308   C411    1.407   .     A
C309   C382    1.451   .     S
C309   C409    1.407   .     A
C309   C390    1.407   .     A
C310   C374    1.451   .     S
C310   C413    1.407   .     A
C310   C389    1.407   .     A
C311   C412    1.407   .     A
C311   C375    1.451   .     S
C311   C387    1.407   .     A
C312   C415    1.407   .     A
C312   C376    1.451   .     S
C312   C386    1.407   .     A
C313   C341    1.392   .     A
C313   O512    1.383   .     S
C313   C890    1.422   .     S
C314   C385    1.407   .     A
C314   C378    1.451   .     S
C314   C414    1.407   .     A
C315   C384    1.407   .     A
C315   C417    1.407   .     A
C315   C379    1.451   .     S
C316   C383    1.407   .     A
C316   C380    1.451   .     S
C316   C416    1.407   .     A
C317   C364    1.459   .     S
C317   C330    1.397   .     A
C317   C871    1.397   1_545 S
C318   C331    1.397   .     A
C318   C872    1.397   1_545 S
C318   C363    1.460   .     S
C319   C362    1.460   .     S
C319   C337    1.397   .     A
C320   C338    1.397   .     A
C320   C361    1.459   .     S
C321   C360    1.459   .     S
C321   C343    1.397   .     S
C322   C359    1.460   .     S
C322   C340    1.397   .     A
C323   C877    1.397   1_545 A
C323   C358    1.460   .     S
C323   C346    1.397   .     S
C324   C356    1.422   .     A
C324   C342    1.392   .     A
C324   O513    1.383   .     S
C325   C357    1.459   .     S
C325   C342    1.397   .     A
C325   C883    1.397   1_545 S
C326   C343    1.392   .     A
C326   O514    1.383   .     S
C326   C352    1.422   .     S
C327   C345    1.392   .     A
C327   C85     1.422   1_655 A
C327   O515    1.383   .     S
C328   C346    1.392   .     A
C328   O516    1.383   .     S
C328   C354    1.422   .     A
C329   O517    1.383   .     S
C329   C347    1.392   .     A
C329   C892    1.422   .     S
C330   H421    1.084   .     S
C331   C333    1.392   .     A
C331   H432    1.084   .     S
C332   C344    1.392   .     A
C332   H443    1.084   .     S
C332   C51     1.397   1_655 S
C333   O502    1.383   .     S
C333   C349    1.422   .     A
C334   C355    1.392   .     A
C334   H447    1.084   .     S
C334   C52     1.397   1_655 S
C335   H448    1.084   .     S
C335   C366    1.392   .     A
C335   C853    1.397   .     S
C336   H449    1.084   .     S
C336   C377    1.392   .     A
C336   C854    1.397   .     S
C337   H450    1.084   .     S
C337   C388    1.392   .     A
C338   C399    1.392   .     A
C338   H451    1.084   .     S
C339   C410    1.392   .     A
C339   C53     1.397   1_655 A
C339   H452    1.084   .     S
C340   H422    1.084   .     S
C341   C859    1.397   .     A
C341   H423    1.084   .     S
C342   H424    1.084   .     S
C343   H425    1.084   .     S
C344   O503    1.383   .     S
C344   C82     1.422   1_655 S
C345   H426    1.084   .     S
C345   C54     1.397   1_655 S
C346   H427    1.084   .     S
C347   H428    1.084   .     S
C347   C861    1.397   .     S
C348   C349    1.475   1_554 S
C348   C902    1.422   1_545 S
C349   C348    1.475   1_556 S
C349   C913    1.422   1_545 S
C350   C388    1.422   .     A
C350   C351    1.475   1_554 S
C351   C399    1.422   .     A
C351   C350    1.475   1_556 S
C352   C353    1.475   .     S
C354   C356    1.475   .     S
C354   C849    1.422   1_545 S
C355   O504    1.383   .     S
C355   C83     1.422   1_655 S
C356   C865    1.422   1_545 S
C357   O520    1.278   .     A
C357   O1033   1.278   1_545 S
C358   O990    1.279   1_545 A
C358   O508    1.279   .     S
C359   O518    1.279   .     A
C360   O456    1.278   .     S
C361   O457    1.278   .     A
C361   O461    1.278   .     S
C362   O458    1.279   .     S
C362   O462    1.279   .     S
C363   O459    1.279   .     S
C363   O463    1.279   .     S
C364   O465    1.278   .     A
C364   O460    1.278   .     A
C365   O494    1.276   .     A
C365   O466    1.276   .     A
C365   C420    1.451   .     S
C366   O505    1.383   .     S
C366   C884    1.422   .     S
C367   O467    1.276   .     A
C367   O495    1.276   .     A
C368   O492    1.276   .     A
C368   O468    1.276   .     A
C369   O493    1.276   .     A
C369   O469    1.276   .     A
C370   O499    1.276   .     A
C370   O470    1.276   .     A
C371   O500    1.276   .     A
C371   O471    1.276   .     A
C372   C418    1.451   .     S
C372   O472    1.276   .     A
C372   O496    1.276   .     A
C373   C419    1.451   .     S
C373   O473    1.276   .     A
C373   O498    1.276   .     A
C374   O485    1.276   .     A
C374   O474    1.276   .     A
C375   O476    1.276   .     A
C375   O487    1.276   .     A
C376   O477    1.276   .     A
C376   O483    1.276   .     A
C377   O506    1.383   .     S
C377   C885    1.422   .     S
C378   O478    1.276   .     A
C378   O484    1.276   .     A
C379   O479    1.276   .     A
C379   O490    1.276   .     A
C380   O491    1.276   .     A
C380   O480    1.276   .     A
C381   O481    1.276   .     A
C381   O488    1.276   .     A
C382   O482    1.276   .     A
C382   O489    1.276   .     A
C383   C400    1.398   .     A
C384   C398    1.398   .     A
C385   C397    1.398   .     A
C386   C396    1.398   .     A
C387   C395    1.398   .     A
C388   O507    1.383   .     S
C389   C394    1.398   .     A
C390   C393    1.398   .     A
C391   C392    1.398   .     A
C397   C420    1.407   .     A
C398   C419    1.407   .     A
C399   O509    1.383   .     S
C400   C418    1.407   .     A
C401   C419    1.407   .     A
C401   C417    1.398   .     A
C402   C418    1.407   .     A
C402   C416    1.398   .     A
C403   C415    1.398   .     A
C404   C414    1.398   .     A
C404   C420    1.407   .     A
C405   C413    1.398   .     A
C406   C412    1.398   .     A
C407   C411    1.398   .     A
C408   C409    1.398   .     A
C410   O510    1.383   .     S
C410   C84     1.422   1_655 A
H429   O501    0.988   1_556 S
H430   O502    0.988   1_554 S
H431   O503    0.988   1_556 S
H433   O504    0.988   1_554 S
H434   O505    0.988   1_556 S
H435   O506    0.988   1_554 S
H436   O507    0.988   1_556 S
H437   O509    0.988   1_554 S
H438   O510    0.988   .     S
H439   O511    0.988   .     S
H440   O512    0.988   .     S
H441   O513    0.988   .     S
H442   O514    0.988   .     S
H444   O515    0.988   .     S
H445   O516    0.988   .     S
H446   O517    0.988   .     S
O453   Zn524   1.942   .     S
O453   Zn521   1.942   .     S
O453   Zn532   1.942   .     S
O453   Zn1064  1.942   1_545 S
O454   C894    1.279   .     A
O454   Zn523   1.939   .     S
O455   Zn526   1.939   .     S
O455   C91     1.279   1_655 S
O456   Zn525   1.939   .     S
O457   Zn535   1.939   .     S
O458   Zn534   1.939   .     S
O459   Zn529   1.939   .     S
O460   Zn521   1.939   .     S
O461   Zn531   1.939   .     S
O462   Zn530   1.939   .     S
O463   Zn533   1.939   .     S
O464   Zn529   1.942   .     S
O464   Zn533   1.942   .     S
O464   Zn527   1.942   .     S
O464   Zn1059  1.942   1_545 S
O465   Zn532   1.939   .     S
O466   Zn524   1.931   .     S
O467   Zn523   1.931   .     S
O468   Zn526   1.931   .     S
O469   Zn525   1.931   .     S
O470   Zn528   1.931   .     S
O471   Zn527   1.931   .     S
O472   Zn522   1.931   .     S
O473   Zn536   1.931   .     S
O474   Zn523   1.931   .     S
O475   Zn522   1.942   .     S
O475   Zn534   1.942   .     S
O475   Zn530   1.942   .     S
O476   Zn524   1.931   .     S
O477   Zn536   1.931   .     S
O478   Zn522   1.931   .     S
O479   Zn527   1.931   .     S
O480   Zn528   1.931   .     S
O481   Zn525   1.931   .     S
O482   Zn526   1.931   .     S
O483   Zn263   1.931   1_655 S
O484   Zn530   1.931   .     S
O485   Zn1069  1.931   .     S
O486   Zn531   1.942   .     S
O486   Zn525   1.942   .     S
O486   Zn535   1.942   .     S
O487   Zn532   1.931   .     S
O488   Zn535   1.931   .     S
O489   Zn266   1.931   1_655 S
O490   Zn529   1.931   .     S
O491   Zn1057  1.931   .     S
O492   Zn262   1.931   1_655 S
O493   Zn531   1.931   .     S
O494   Zn521   1.931   .     S
O495   Zn1065  1.931   .     S
O496   Zn534   1.931   .     S
O497   Zn528   1.939   .     S
O497   C893    1.278   .     S
O498   Zn267   1.931   1_655 S
O499   Zn1068  1.931   .     S
O500   Zn533   1.931   .     S
O501   H429    0.988   1_554 S
O502   H430    0.988   1_556 S
O503   H431    0.988   1_554 S
O504   H433    0.988   1_556 S
O505   H434    0.988   1_554 S
O506   H435    0.988   1_556 S
O507   H436    0.988   1_554 S
O508   Zn527   1.939   .     S
O509   H437    0.988   1_556 S
O518   Zn522   1.939   .     S
O519   C92     1.278   1_655 A
O519   Zn536   1.939   .     S
O520   Zn524   1.939   .     S
Zn521  O1027   1.931   1_545 S
Zn523  O1000   1.942   .     S
Zn526  O207    1.942   1_655 S
Zn528  O989    1.942   .     S
Zn529  O1031   1.931   1_545 S
Zn532  O1035   1.931   1_545 S
Zn533  O1021   1.931   1_545 S
Zn536  O218    1.942   1_655 S
Br537  C651    1.933   .     S
Br538  C661    1.933   .     S
Br539  C662    1.933   .     S
Br540  C663    1.933   .     S
Br541  C664    1.933   .     S
Br542  C665    1.934   .     S
Br543  C666    1.933   .     S
Br544  C668    1.933   .     S
Br545  C669    1.933   .     S
Br546  C670    1.933   .     S
Br547  C671    1.933   .     S
Br548  C652    1.933   .     S
Br549  C672    1.934   .     S
Br550  C673    1.933   .     S
Br551  C674    1.933   .     S
Br552  C675    1.933   .     S
Br553  C676    1.933   .     S
Br554  C677    1.933   .     S
Br555  C679    1.933   .     S
Br556  C680    1.933   .     S
Br557  C681    1.933   .     S
Br558  C682    1.933   .     S
Br559  C653    1.933   .     S
Br560  C683    1.933   .     S
Br561  C684    1.933   .     S
Br562  C685    1.933   .     S
Br563  C654    1.933   .     S
Br564  C655    1.933   .     S
Br565  C657    1.933   .     S
Br566  C658    1.933   .     S
Br567  C659    1.933   .     S
Br568  C660    1.933   .     S
C569   O769    1.383   .     S
C569   C598    1.392   .     A
C569   C616    1.422   .     A
C570   C608    1.392   .     A
C570   O779    1.383   .     S
C570   C621    1.422   .     S
C571   C635    1.451   .     S
C571   C671    1.407   .     A
C571   C664    1.407   .     A
C572   C636    1.451   .     S
C572   C674    1.407   .     A
C572   C663    1.407   .     A
C573   C673    1.407   .     A
C573   C662    1.407   .     A
C573   C637    1.451   .     S
C574   C661    1.407   .     A
C574   C638    1.451   .     S
C574   C676    1.407   .     A
C575   C675    1.407   .     A
C575   C639    1.451   .     S
C575   C660    1.407   .     A
C576   C649    1.451   .     S
C576   C659    1.407   .     A
C576   C679    1.407   .     A
C577   C650    1.451   .     S
C577   C677    1.407   .     A
C577   C658    1.407   .     A
C578   C642    1.451   .     S
C578   C681    1.407   .     A
C578   C657    1.407   .     A
C579   C680    1.407   .     A
C579   C643    1.451   .     S
C579   C655    1.407   .     A
C580   C683    1.407   .     A
C580   C644    1.451   .     S
C580   C654    1.407   .     A
C581   C609    1.392   .     A
C581   O780    1.383   .     S
C581   C86     1.422   1_565 S
C582   C653    1.407   .     A
C582   C646    1.451   .     S
C582   C682    1.407   .     A
C583   C652    1.407   .     A
C583   C685    1.407   .     A
C583   C647    1.451   .     S
C584   C651    1.407   .     A
C584   C648    1.451   .     S
C584   C684    1.407   .     A
C585   C632    1.459   .     S
C585   C598    1.397   .     A
C586   C599    1.397   .     A
C586   C631    1.460   .     S
C587   C630    1.460   .     S
C587   C605    1.397   .     A
C587   C868    1.397   1_455 S
C588   C606    1.397   .     A
C588   C629    1.459   .     S
C588   C870    1.397   1_455 S
C589   C628    1.459   .     S
C589   C875    1.397   1_455 A
C589   C611    1.397   .     S
C590   C627    1.460   .     S
C590   C608    1.397   .     A
C590   C881    1.397   1_455 S
C591   C626    1.460   .     S
C591   C614    1.397   .     S
C592   C624    1.422   .     A
C592   C610    1.392   .     A
C592   O781    1.383   .     S
C593   C625    1.459   .     S
C593   C610    1.397   .     A
C594   C611    1.392   .     A
C594   O782    1.383   .     S
C594   C620    1.422   .     S
C595   C613    1.392   .     A
C595   C889    1.422   .     A
C595   O783    1.383   .     S
C596   C614    1.392   .     A
C596   O784    1.383   .     S
C596   C622    1.422   .     A
C597   O785    1.383   .     S
C597   C615    1.392   .     A
C597   C88     1.422   1_565 S
C598   H689    1.084   .     S
C599   C601    1.392   .     A
C599   H700    1.084   .     S
C600   C612    1.392   .     A
C600   H711    1.084   .     S
C600   C855    1.397   .     S
C601   O770    1.383   .     S
C601   C617    1.422   .     A
C602   C623    1.392   .     A
C602   H715    1.084   .     S
C602   C856    1.397   .     S
C603   H716    1.084   .     S
C603   C634    1.392   .     A
C603   C49     1.397   1_565 S
C604   H717    1.084   .     S
C604   C645    1.392   .     A
C604   C50     1.397   1_565 S
C605   H718    1.084   .     S
C605   C656    1.392   .     A
C606   C667    1.392   .     A
C606   H719    1.084   .     S
C607   C678    1.392   .     A
C607   C857    1.397   .     A
C607   H720    1.084   .     S
C608   H690    1.084   .     S
C609   C55     1.397   1_565 A
C609   H691    1.084   .     S
C610   H692    1.084   .     S
C611   H693    1.084   .     S
C612   O771    1.383   .     S
C612   C886    1.422   .     S
C613   H694    1.084   .     S
C613   C858    1.397   .     S
C614   H695    1.084   .     S
C615   H696    1.084   .     S
C615   C57     1.397   1_565 S
C616   C617    1.475   1_554 S
C617   C616    1.475   1_556 S
C618   C656    1.422   .     A
C618   C880    1.422   1_455 S
C618   C619    1.475   1_554 S
C619   C667    1.422   .     A
C619   C618    1.475   1_556 S
C619   C891    1.422   1_455 S
C620   C621    1.475   .     S
C620   C946    1.422   1_455 A
C621   C863    1.422   1_455 A
C622   C624    1.475   .     S
C623   O772    1.383   .     S
C623   C887    1.422   .     S
C625   O788    1.278   .     A
C626   O776    1.279   .     S
C627   O786    1.279   .     A
C627   O991    1.279   1_455 S
C628   O1055   1.278   1_455 A
C628   O724    1.278   .     S
C629   O725    1.278   .     A
C629   O729    1.278   .     S
C630   O726    1.279   .     S
C630   O730    1.279   .     S
C631   O727    1.279   .     S
C631   O731    1.279   .     S
C632   O733    1.278   .     A
C632   O728    1.278   .     A
C633   O762    1.276   .     A
C633   O734    1.276   .     A
C633   C688    1.451   .     S
C634   O773    1.383   .     S
C634   C80     1.422   1_565 S
C635   O735    1.276   .     A
C635   O763    1.276   .     A
C636   O760    1.276   .     A
C636   O736    1.276   .     A
C637   O761    1.276   .     A
C637   O737    1.276   .     A
C638   O767    1.276   .     A
C638   O738    1.276   .     A
C639   O768    1.276   .     A
C639   O739    1.276   .     A
C640   C686    1.451   .     S
C640   O740    1.276   .     A
C640   O764    1.276   .     A
C641   C687    1.451   .     S
C641   O741    1.276   .     A
C641   O766    1.276   .     A
C642   O753    1.276   .     A
C642   O742    1.276   .     A
C643   O744    1.276   .     A
C643   O755    1.276   .     A
C644   O745    1.276   .     A
C644   O751    1.276   .     A
C645   O774    1.383   .     S
C645   C81     1.422   1_565 S
C646   O746    1.276   .     A
C646   O752    1.276   .     A
C647   O747    1.276   .     A
C647   O758    1.276   .     A
C648   O759    1.276   .     A
C648   O748    1.276   .     A
C649   O749    1.276   .     A
C649   O756    1.276   .     A
C650   O750    1.276   .     A
C650   O757    1.276   .     A
C651   C668    1.398   .     A
C652   C666    1.398   .     A
C653   C665    1.398   .     A
C654   C664    1.398   .     A
C655   C663    1.398   .     A
C656   O775    1.383   .     S
C657   C662    1.398   .     A
C658   C661    1.398   .     A
C659   C660    1.398   .     A
C665   C688    1.407   .     A
C666   C687    1.407   .     A
C667   O777    1.383   .     S
C668   C686    1.407   .     A
C669   C687    1.407   .     A
C669   C685    1.398   .     A
C670   C686    1.407   .     A
C670   C684    1.398   .     A
C671   C683    1.398   .     A
C672   C682    1.398   .     A
C672   C688    1.407   .     A
C673   C681    1.398   .     A
C674   C680    1.398   .     A
C675   C679    1.398   .     A
C676   C677    1.398   .     A
C678   O778    1.383   .     S
C678   C888    1.422   .     A
H697   O769    0.988   1_556 S
H698   O770    0.988   1_554 S
H699   O771    0.988   1_556 S
H701   O772    0.988   1_554 S
H702   O773    0.988   1_556 S
H703   O774    0.988   1_554 S
H704   O775    0.988   1_556 S
H705   O777    0.988   1_554 S
H706   O778    0.988   .     S
H707   O779    0.988   .     S
H708   O780    0.988   .     S
H709   O781    0.988   .     S
H710   O782    0.988   .     S
H712   O783    0.988   .     S
H713   O784    0.988   .     S
H714   O785    0.988   .     S
O721   Zn792   1.942   .     S
O721   Zn789   1.942   .     S
O721   Zn800   1.942   .     S
O722   C90     1.279   1_565 A
O722   Zn791   1.939   .     S
O723   Zn794   1.939   .     S
O723   C895    1.279   .     S
O724   Zn793   1.939   .     S
O725   Zn803   1.939   .     S
O726   Zn802   1.939   .     S
O727   Zn797   1.939   .     S
O728   Zn789   1.939   .     S
O729   Zn799   1.939   .     S
O730   Zn798   1.939   .     S
O731   Zn801   1.939   .     S
O732   Zn797   1.942   .     S
O732   Zn801   1.942   .     S
O732   Zn795   1.942   .     S
O733   Zn800   1.939   .     S
O734   Zn792   1.931   .     S
O735   Zn791   1.931   .     S
O736   Zn794   1.931   .     S
O737   Zn793   1.931   .     S
O738   Zn796   1.931   .     S
O739   Zn795   1.931   .     S
O740   Zn790   1.931   .     S
O741   Zn804   1.931   .     S
O742   Zn791   1.931   .     S
O743   Zn790   1.942   .     S
O743   Zn802   1.942   .     S
O743   Zn1062  1.942   1_455 S
O743   Zn798   1.942   .     S
O744   Zn792   1.931   .     S
O745   Zn804   1.931   .     S
O746   Zn790   1.931   .     S
O747   Zn795   1.931   .     S
O748   Zn796   1.931   .     S
O749   Zn793   1.931   .     S
O750   Zn794   1.931   .     S
O751   Zn1067  1.931   .     S
O752   Zn798   1.931   .     S
O753   Zn265   1.931   1_565 S
O754   Zn799   1.942   .     S
O754   Zn793   1.942   .     S
O754   Zn803   1.942   .     S
O754   Zn1072  1.942   1_455 S
O755   Zn800   1.931   .     S
O756   Zn803   1.931   .     S
O757   Zn1070  1.931   .     S
O758   Zn797   1.931   .     S
O759   Zn253   1.931   1_565 S
O760   Zn1066  1.931   .     S
O761   Zn799   1.931   .     S
O762   Zn789   1.931   .     S
O763   Zn261   1.931   1_565 S
O764   Zn802   1.931   .     S
O765   Zn796   1.939   .     S
O765   C89     1.278   1_565 S
O766   Zn1071  1.931   .     S
O767   Zn264   1.931   1_565 S
O768   Zn801   1.931   .     S
O769   H697    0.988   1_554 S
O770   H698    0.988   1_556 S
O771   H699    0.988   1_554 S
O772   H701    0.988   1_556 S
O773   H702    0.988   1_554 S
O774   H703    0.988   1_556 S
O775   H704    0.988   1_554 S
O776   Zn795   1.939   .     S
O777   H705    0.988   1_556 S
O786   Zn790   1.939   .     S
O787   C896    1.278   .     A
O787   Zn804   1.939   .     S
O788   Zn792   1.939   .     S
Zn791  O196    1.942   1_565 S
Zn794  O1011   1.942   .     S
Zn796  O185    1.942   1_565 S
Zn798  O1028   1.931   1_455 S
Zn799  O1019   1.931   1_455 S
Zn802  O1025   1.931   1_455 S
Zn803  O1034   1.931   1_455 S
Zn804  O1022   1.942   .     S
Br805  C919    1.933   .     S
Br806  C929    1.933   .     S
Br807  C930    1.933   .     S
Br808  C931    1.933   .     S
Br809  C932    1.933   .     S
Br810  C933    1.934   .     S
Br811  C934    1.933   .     S
Br812  C936    1.933   .     S
Br813  C937    1.933   .     S
Br814  C938    1.933   .     S
Br815  C939    1.933   .     S
Br816  C920    1.933   .     S
Br817  C940    1.934   .     S
Br818  C941    1.933   .     S
Br819  C942    1.933   .     S
Br820  C943    1.933   .     S
Br821  C944    1.933   .     S
Br822  C945    1.933   .     S
Br823  C947    1.933   .     S
Br824  C948    1.933   .     S
Br825  C949    1.933   .     S
Br826  C950    1.933   .     S
Br827  C921    1.933   .     S
Br828  C951    1.933   .     S
Br829  C952    1.933   .     S
Br830  C953    1.933   .     S
Br831  C922    1.933   .     S
Br832  C923    1.933   .     S
Br833  C925    1.933   .     S
Br834  C926    1.933   .     S
Br835  C927    1.933   .     S
Br836  C928    1.933   .     S
C837   O1037   1.383   .     S
C837   C866    1.392   .     A
C837   C884    1.422   .     A
C838   C876    1.392   .     A
C838   O1047   1.383   .     S
C838   C889    1.422   .     S
C839   C903    1.451   .     S
C839   C939    1.407   .     A
C839   C932    1.407   .     A
C840   C904    1.451   .     S
C840   C942    1.407   .     A
C840   C931    1.407   .     A
C841   C941    1.407   .     A
C841   C930    1.407   .     A
C841   C905    1.451   .     S
C842   C929    1.407   .     A
C842   C906    1.451   .     S
C842   C944    1.407   .     A
C843   C943    1.407   .     A
C843   C907    1.451   .     S
C843   C928    1.407   .     A
C844   C917    1.451   .     S
C844   C927    1.407   .     A
C844   C947    1.407   .     A
C845   C918    1.451   .     S
C845   C945    1.407   .     A
C845   C926    1.407   .     A
C846   C910    1.451   .     S
C846   C949    1.407   .     A
C846   C925    1.407   .     A
C847   C948    1.407   .     A
C847   C911    1.451   .     S
C847   C923    1.407   .     A
C848   C951    1.407   .     A
C848   C912    1.451   .     S
C848   C922    1.407   .     A
C849   C877    1.392   .     A
C849   O1048   1.383   .     S
C849   C354    1.422   1_565 S
C850   C921    1.407   .     A
C850   C914    1.451   .     S
C850   C950    1.407   .     A
C851   C920    1.407   .     A
C851   C953    1.407   .     A
C851   C915    1.451   .     S
C852   C919    1.407   .     A
C852   C916    1.451   .     S
C852   C952    1.407   .     A
C853   C900    1.459   .     S
C853   C866    1.397   .     A
C854   C867    1.397   .     A
C854   C899    1.460   .     S
C855   C898    1.460   .     S
C855   C873    1.397   .     A
C856   C874    1.397   .     A
C856   C897    1.459   .     S
C857   C896    1.459   .     S
C857   C879    1.397   .     S
C858   C895    1.460   .     S
C858   C876    1.397   .     A
C859   C894    1.460   .     S
C859   C882    1.397   .     S
C860   C892    1.422   .     A
C860   C878    1.392   .     A
C860   O1049   1.383   .     S
C861   C893    1.459   .     S
C861   C878    1.397   .     A
C862   C879    1.392   .     A
C862   O1050   1.383   .     S
C862   C888    1.422   .     S
C863   C881    1.392   .     A
C863   C621    1.422   1_655 A
C863   O1051   1.383   .     S
C864   C882    1.392   .     A
C864   O1052   1.383   .     S
C864   C890    1.422   .     A
C865   O1053   1.383   .     S
C865   C883    1.392   .     A
C865   C356    1.422   1_565 S
C866   H957    1.084   .     S
C867   C869    1.392   .     A
C867   H968    1.084   .     S
C868   C880    1.392   .     A
C868   H979    1.084   .     S
C868   C587    1.397   1_655 S
C869   O1038   1.383   .     S
C869   C885    1.422   .     A
C870   C891    1.392   .     A
C870   H983    1.084   .     S
C870   C588    1.397   1_655 S
C871   H984    1.084   .     S
C871   C902    1.392   .     A
C871   C317    1.397   1_565 S
C872   H985    1.084   .     S
C872   C913    1.392   .     A
C872   C318    1.397   1_565 S
C873   H986    1.084   .     S
C873   C924    1.392   .     A
C874   C935    1.392   .     A
C874   H987    1.084   .     S
C875   C946    1.392   .     A
C875   C589    1.397   1_655 A
C875   H988    1.084   .     S
C876   H958    1.084   .     S
C877   C323    1.397   1_565 A
C877   H959    1.084   .     S
C878   H960    1.084   .     S
C879   H961    1.084   .     S
C880   O1039   1.383   .     S
C880   C618    1.422   1_655 S
C881   H962    1.084   .     S
C881   C590    1.397   1_655 S
C882   H963    1.084   .     S
C883   H964    1.084   .     S
C883   C325    1.397   1_565 S
C884   C885    1.475   1_554 S
C885   C884    1.475   1_556 S
C886   C924    1.422   .     A
C886   C887    1.475   1_554 S
C887   C935    1.422   .     A
C887   C886    1.475   1_556 S
C888   C889    1.475   .     S
C890   C892    1.475   .     S
C891   O1040   1.383   .     S
C891   C619    1.422   1_655 S
C893   O1056   1.278   .     A
C894   O1044   1.279   .     S
C895   O1054   1.279   .     A
C896   O992    1.278   .     S
C897   O993    1.278   .     A
C897   O997    1.278   .     S
C898   O994    1.279   .     S
C898   O998    1.279   .     S
C899   O995    1.279   .     S
C899   O999    1.279   .     S
C900   O1001   1.278   .     A
C900   O996    1.278   .     A
C901   O1030   1.276   .     A
C901   O1002   1.276   .     A
C901   C956    1.451   .     S
C902   O1041   1.383   .     S
C902   C348    1.422   1_565 S
C903   O1003   1.276   .     A
C903   O1031   1.276   .     A
C904   O1028   1.276   .     A
C904   O1004   1.276   .     A
C905   O1029   1.276   .     A
C905   O1005   1.276   .     A
C906   O1035   1.276   .     A
C906   O1006   1.276   .     A
C907   O1036   1.276   .     A
C907   O1007   1.276   .     A
C908   C954    1.451   .     S
C908   O1008   1.276   .     A
C908   O1032   1.276   .     A
C909   C955    1.451   .     S
C909   O1009   1.276   .     A
C909   O1034   1.276   .     A
C910   O1021   1.276   .     A
C910   O1010   1.276   .     A
C911   O1012   1.276   .     A
C911   O1023   1.276   .     A
C912   O1013   1.276   .     A
C912   O1019   1.276   .     A
C913   O1042   1.383   .     S
C913   C349    1.422   1_565 S
C914   O1014   1.276   .     A
C914   O1020   1.276   .     A
C915   O1015   1.276   .     A
C915   O1026   1.276   .     A
C916   O1027   1.276   .     A
C916   O1016   1.276   .     A
C917   O1017   1.276   .     A
C917   O1024   1.276   .     A
C918   O1018   1.276   .     A
C918   O1025   1.276   .     A
C919   C936    1.398   .     A
C920   C934    1.398   .     A
C921   C933    1.398   .     A
C922   C932    1.398   .     A
C923   C931    1.398   .     A
C924   O1043   1.383   .     S
C925   C930    1.398   .     A
C926   C929    1.398   .     A
C927   C928    1.398   .     A
C933   C956    1.407   .     A
C934   C955    1.407   .     A
C935   O1045   1.383   .     S
C936   C954    1.407   .     A
C937   C955    1.407   .     A
C937   C953    1.398   .     A
C938   C954    1.407   .     A
C938   C952    1.398   .     A
C939   C951    1.398   .     A
C940   C950    1.398   .     A
C940   C956    1.407   .     A
C941   C949    1.398   .     A
C942   C948    1.398   .     A
C943   C947    1.398   .     A
C944   C945    1.398   .     A
C946   O1046   1.383   .     S
C946   C620    1.422   1_655 A
H965   O1037   0.988   1_556 S
H966   O1038   0.988   1_554 S
H967   O1039   0.988   1_556 S
H969   O1040   0.988   1_554 S
H970   O1041   0.988   1_556 S
H971   O1042   0.988   1_554 S
H972   O1043   0.988   1_556 S
H973   O1045   0.988   1_554 S
H974   O1046   0.988   .     S
H975   O1047   0.988   .     S
H976   O1048   0.988   .     S
H977   O1049   0.988   .     S
H978   O1050   0.988   .     S
H980   O1051   0.988   .     S
H981   O1052   0.988   .     S
H982   O1053   0.988   .     S
O989   Zn1060  1.942   .     S
O989   Zn1057  1.942   .     S
O989   Zn1068  1.942   .     S
O990   C358    1.279   1_565 A
O990   Zn1059  1.939   .     S
O991   Zn1062  1.939   .     S
O991   C627    1.279   1_655 S
O992   Zn1061  1.939   .     S
O993   Zn1071  1.939   .     S
O994   Zn1070  1.939   .     S
O995   Zn1065  1.939   .     S
O996   Zn1057  1.939   .     S
O997   Zn1067  1.939   .     S
O998   Zn1066  1.939   .     S
O999   Zn1069  1.939   .     S
O1000  Zn1065  1.942   .     S
O1000  Zn1069  1.942   .     S
O1000  Zn1063  1.942   .     S
O1001  Zn1068  1.939   .     S
O1002  Zn1060  1.931   .     S
O1003  Zn1059  1.931   .     S
O1004  Zn1062  1.931   .     S
O1005  Zn1061  1.931   .     S
O1006  Zn1064  1.931   .     S
O1007  Zn1063  1.931   .     S
O1008  Zn1058  1.931   .     S
O1009  Zn1072  1.931   .     S
O1010  Zn1059  1.931   .     S
O1011  Zn1058  1.942   .     S
O1011  Zn1070  1.942   .     S
O1011  Zn1066  1.942   .     S
O1012  Zn1060  1.931   .     S
O1013  Zn1072  1.931   .     S
O1014  Zn1058  1.931   .     S
O1015  Zn1063  1.931   .     S
O1016  Zn1064  1.931   .     S
O1017  Zn1061  1.931   .     S
O1018  Zn1062  1.931   .     S
O1019  Zn799   1.931   1_655 S
O1020  Zn1066  1.931   .     S
O1021  Zn533   1.931   1_565 S
O1022  Zn1067  1.942   .     S
O1022  Zn1061  1.942   .     S
O1022  Zn1071  1.942   .     S
O1023  Zn1068  1.931   .     S
O1024  Zn1071  1.931   .     S
O1025  Zn802   1.931   1_655 S
O1026  Zn1065  1.931   .     S
O1027  Zn521   1.931   1_565 S
O1028  Zn798   1.931   1_655 S
O1029  Zn1067  1.931   .     S
O1030  Zn1057  1.931   .     S
O1031  Zn529   1.931   1_565 S
O1032  Zn1070  1.931   .     S
O1033  Zn1064  1.939   .     S
O1033  C357    1.278   1_565 S
O1034  Zn803   1.931   1_655 S
O1035  Zn532   1.931   1_565 S
O1036  Zn1069  1.931   .     S
O1037  H965    0.988   1_554 S
O1038  H966    0.988   1_556 S
O1039  H967    0.988   1_554 S
O1040  H969    0.988   1_556 S
O1041  H970    0.988   1_554 S
O1042  H971    0.988   1_556 S
O1043  H972    0.988   1_554 S
O1044  Zn1063  1.939   .     S
O1045  H973    0.988   1_556 S
O1054  Zn1058  1.939   .     S
O1055  C628    1.278   1_655 A
O1055  Zn1072  1.939   .     S
O1056  Zn1060  1.939   .     S
Zn1059 O464    1.942   1_565 S
Zn1062 O743    1.942   1_655 S
Zn1064 O453    1.942   1_565 S
Zn1072 O754    1.942   1_655 S
