data_str_m2_o1_o18_pcu_sym.179
_audit_creation_date              2020-01-03
_audit_creation_method            'Materials Studio'
_symmetry_space_group_name_H-M    'P1'
_symmetry_Int_Tables_number       1
_symmetry_cell_setting            triclinic
loop_
_symmetry_equiv_pos_as_xyz
  x,y,z
_cell_length_a                    28.4873
_cell_length_b                    32.4140
_cell_length_c                    30.7674
_cell_angle_alpha                 90.4695
_cell_angle_beta                  74.4078
_cell_angle_gamma                 89.3910
loop_
_atom_site_label
_atom_site_type_symbol
_atom_site_fract_x
_atom_site_fract_y
_atom_site_fract_z
_atom_site_U_iso_or_equiv
_atom_site_adp_type
_atom_site_occupancy
O1     O     0.03958   0.10655   0.25000   0.00000  Uiso   1.00
O2     O     0.29375   0.22678   0.25000   0.00000  Uiso   1.00
O3     O     0.29372   0.10654   0.25000   0.00000  Uiso   1.00
O4     O     0.03961   0.22679   0.24999   0.00000  Uiso   1.00
C5     C     0.00043   0.08736   0.24942   0.00000  Uiso   1.00
C6     C     0.33284   0.24593   0.25070   0.00000  Uiso   1.00
O7     O     0.01852   0.16668   0.31491   0.00000  Uiso   1.00
O8     O     0.31481   0.16666   0.18508   0.00000  Uiso   1.00
O9     O     0.27267   0.16667   0.31492   0.00000  Uiso   1.00
O10    O     0.06067   0.16667   0.18508   0.00000  Uiso   1.00
C11    C     0.30622   0.16897   0.33632   0.00000  Uiso   1.00
C12    C     0.02737   0.16542   0.16326   0.00000  Uiso   1.00
Cu13   Cu    0.04689   0.16667   0.25000   0.00000  Uiso   1.00
Cu14   Cu    0.28645   0.16666   0.25000   0.00000  Uiso   1.00
C15    C     0.29119   0.17586   0.38589   0.00000  Uiso   1.00
C16    C     0.04194   0.16236   0.11273   0.00000  Uiso   1.00
C17    C     0.29335   0.21782   0.45180   0.00000  Uiso   1.00
C18    C     0.02149   0.15499   0.04076   0.00000  Uiso   1.00
C19    C     0.31649   0.20355   0.40772   0.00000  Uiso   1.00
C20    C     0.00693   0.16627   0.08702   0.00000  Uiso   1.00
C21    C     0.24631   0.15908   0.41030   0.00000  Uiso   1.00
C22    C     0.09177   0.15576   0.08862   0.00000  Uiso   1.00
C23    C     0.22005   0.17874   0.45114   0.00000  Uiso   1.00
C24    C     0.10520   0.16429   0.04193   0.00000  Uiso   1.00
C25    C     0.24550   0.20554   0.47335   0.00000  Uiso   1.00
C26    C     0.07103   0.15716   0.01726   0.00000  Uiso   1.00
C27    C     0.16989   0.17142   0.47214   0.00000  Uiso   1.00
C28    C     0.15176   0.17854   0.01901   0.00000  Uiso   1.00
C29    C     0.17832   0.20324   0.04111   0.00000  Uiso   1.00
C30    C     0.13621   0.16126   0.44770   0.00000  Uiso   1.00
C31    C     0.22308   0.21849   0.01778   0.00000  Uiso   1.00
C32    C     0.08714   0.15520   0.46988   0.00000  Uiso   1.00
H33    H     0.24062   0.23926   0.03569   0.00000  Uiso   1.00
H34    H     0.06198   0.15027   0.44958   0.00000  Uiso   1.00
H35    H     0.16294   0.21362   0.07556   0.00000  Uiso   1.00
H36    H     0.14615   0.16244   0.41133   0.00000  Uiso   1.00
C37    C     0.29178   0.02268   0.27309   0.00000  Uiso   1.00
C38    C     0.04140   0.31054   0.22834   0.00000  Uiso   1.00
H39    H     0.25981   0.04029   0.29119   0.00000  Uiso   1.00
H40    H     0.07348   0.29297   0.21045   0.00000  Uiso   1.00
C41    C     0.29052   0.31331   0.27438   0.00000  Uiso   1.00
C42    C     0.04275   0.01981   0.22729   0.00000  Uiso   1.00
C43    C     0.33224   0.29049   0.25133   0.00000  Uiso   1.00
C44    C     0.00087   0.04274   0.24965   0.00000  Uiso   1.00
C45    C     0.18505   0.13756   0.27330   0.00000  Uiso   1.00
C46    C     0.14826   0.19588   0.22689   0.00000  Uiso   1.00
H47    H     0.19857   0.11433   0.29208   0.00000  Uiso   1.00
H48    H     0.13472   0.21927   0.20832   0.00000  Uiso   1.00
C49    C     0.13536   0.13764   0.27339   0.00000  Uiso   1.00
C50    C     0.19776   0.19607   0.22734   0.00000  Uiso   1.00
H51    H     0.11141   0.11448   0.29221   0.00000  Uiso   1.00
H52    H     0.22145   0.21986   0.20990   0.00000  Uiso   1.00
N53    N     0.11736   0.16668   0.24999   0.00000  Uiso   1.00
N54    N     0.21597   0.16666   0.25001   0.00000  Uiso   1.00
C55    C     0.12889   0.13517   0.11016   0.00000  Uiso   1.00
C56    C     0.16155   0.10173   0.08033   0.00000  Uiso   1.00
C57    C     0.20017   0.08553   0.10223   0.00000  Uiso   1.00
H58    H     0.22511   0.11072   0.10559   0.00000  Uiso   1.00
H59    H     0.18306   0.07295   0.13610   0.00000  Uiso   1.00
H60    H     0.22195   0.06060   0.08080   0.00000  Uiso   1.00
H61    H     0.13856   0.07572   0.07488   0.00000  Uiso   1.00
H62    H     0.18135   0.11349   0.04691   0.00000  Uiso   1.00
H63    H     0.15148   0.15883   0.12084   0.00000  Uiso   1.00
H64    H     0.10956   0.11807   0.14056   0.00000  Uiso   1.00
C65    C     0.23293   0.11601   0.39654   0.00000  Uiso   1.00
C66    C     0.22908   0.08443   0.43431   0.00000  Uiso   1.00
C67    C     0.22186   0.04088   0.41811   0.00000  Uiso   1.00
H68    H     0.18786   0.03958   0.40700   0.00000  Uiso   1.00
H69    H     0.25331   0.03132   0.38959   0.00000  Uiso   1.00
H70    H     0.21893   0.01886   0.44616   0.00000  Uiso   1.00
H71    H     0.26299   0.08478   0.44568   0.00000  Uiso   1.00
H72    H     0.19785   0.09220   0.46368   0.00000  Uiso   1.00
H73    H     0.19942   0.11634   0.38504   0.00000  Uiso   1.00
H74    H     0.26169   0.10387   0.36713   0.00000  Uiso   1.00
C75    C     0.29042   0.18702   0.10556   0.00000  Uiso   1.00
C76    C     0.29601   0.23257   0.11813   0.00000  Uiso   1.00
C77    C     0.24815   0.25731   0.12705   0.00000  Uiso   1.00
H78    H     0.21587   0.23706   0.13661   0.00000  Uiso   1.00
H79    H     0.24592   0.28009   0.15474   0.00000  Uiso   1.00
H80    H     0.24674   0.27490   0.09669   0.00000  Uiso   1.00
H81    H     0.30955   0.23445   0.14866   0.00000  Uiso   1.00
H82    H     0.32357   0.24753   0.09032   0.00000  Uiso   1.00
H83    H     0.26958   0.18692   0.08000   0.00000  Uiso   1.00
H84    H     0.26734   0.16987   0.13429   0.00000  Uiso   1.00
C85    C     0.03439   0.21857   0.38506   0.00000  Uiso   1.00
C86    C     0.03247   0.25845   0.35917   0.00000  Uiso   1.00
C87    C     0.08326   0.27134   0.33224   0.00000  Uiso   1.00
H88    H     0.10669   0.27703   0.35522   0.00000  Uiso   1.00
H89    H     0.10038   0.24689   0.30737   0.00000  Uiso   1.00
H90    H     0.08053   0.30015   0.31375   0.00000  Uiso   1.00
H91    H     0.00921   0.25410   0.33593   0.00000  Uiso   1.00
H92    H     0.01589   0.28366   0.38328   0.00000  Uiso   1.00
H93    H     0.05520   0.22420   0.41020   0.00000  Uiso   1.00
H94    H     0.05709   0.19444   0.36351   0.00000  Uiso   1.00
Cl95   Cl    0.32392   0.25254   0.47974   0.00000  Uiso   1.00
Cl96   Cl    0.31139   0.13837   0.01296   0.00000  Uiso   1.00
Cl97   Cl    0.23705   0.29020   0.30728   0.00000  Uiso   1.00
Cl98   Cl    0.09692   0.04252   0.19571   0.00000  Uiso   1.00
O99    O     0.37291   0.10655   0.25000   0.00000  Uiso   1.00
O100   O     0.62709   0.22678   0.25000   0.00000  Uiso   1.00
O101   O     0.62706   0.10654   0.25000   0.00000  Uiso   1.00
O102   O     0.37294   0.22679   0.24999   0.00000  Uiso   1.00
C103   C     0.33377   0.08736   0.24942   0.00000  Uiso   1.00
C104   C     0.66617   0.24593   0.25070   0.00000  Uiso   1.00
O105   O     0.35186   0.16668   0.31491   0.00000  Uiso   1.00
O106   O     0.64814   0.16666   0.18508   0.00000  Uiso   1.00
O107   O     0.60600   0.16667   0.31492   0.00000  Uiso   1.00
O108   O     0.39400   0.16667   0.18508   0.00000  Uiso   1.00
C109   C     0.63955   0.16897   0.33632   0.00000  Uiso   1.00
C110   C     0.36071   0.16542   0.16326   0.00000  Uiso   1.00
Cu111  Cu    0.38022   0.16667   0.25000   0.00000  Uiso   1.00
Cu112  Cu    0.61978   0.16666   0.25000   0.00000  Uiso   1.00
C113   C     0.62452   0.17586   0.38589   0.00000  Uiso   1.00
C114   C     0.37528   0.16236   0.11273   0.00000  Uiso   1.00
C115   C     0.62669   0.21782   0.45180   0.00000  Uiso   1.00
C116   C     0.35482   0.15499   0.04076   0.00000  Uiso   1.00
C117   C     0.64983   0.20355   0.40772   0.00000  Uiso   1.00
C118   C     0.34027   0.16627   0.08702   0.00000  Uiso   1.00
C119   C     0.57964   0.15908   0.41030   0.00000  Uiso   1.00
C120   C     0.42510   0.15576   0.08862   0.00000  Uiso   1.00
C121   C     0.55338   0.17874   0.45114   0.00000  Uiso   1.00
C122   C     0.43854   0.16429   0.04193   0.00000  Uiso   1.00
C123   C     0.57883   0.20554   0.47335   0.00000  Uiso   1.00
C124   C     0.40437   0.15716   0.01726   0.00000  Uiso   1.00
C125   C     0.50323   0.17142   0.47214   0.00000  Uiso   1.00
C126   C     0.48509   0.17854   0.01901   0.00000  Uiso   1.00
C127   C     0.51165   0.20324   0.04111   0.00000  Uiso   1.00
C128   C     0.46954   0.16126   0.44770   0.00000  Uiso   1.00
C129   C     0.55642   0.21849   0.01778   0.00000  Uiso   1.00
C130   C     0.42047   0.15520   0.46988   0.00000  Uiso   1.00
H131   H     0.57395   0.23926   0.03569   0.00000  Uiso   1.00
H132   H     0.39531   0.15027   0.44958   0.00000  Uiso   1.00
H133   H     0.49627   0.21362   0.07556   0.00000  Uiso   1.00
H134   H     0.47949   0.16244   0.41133   0.00000  Uiso   1.00
C135   C     0.62511   0.02268   0.27309   0.00000  Uiso   1.00
C136   C     0.37473   0.31054   0.22834   0.00000  Uiso   1.00
H137   H     0.59315   0.04029   0.29119   0.00000  Uiso   1.00
H138   H     0.40682   0.29297   0.21045   0.00000  Uiso   1.00
C139   C     0.62385   0.31331   0.27438   0.00000  Uiso   1.00
C140   C     0.37608   0.01981   0.22729   0.00000  Uiso   1.00
C141   C     0.66557   0.29049   0.25133   0.00000  Uiso   1.00
C142   C     0.33421   0.04274   0.24965   0.00000  Uiso   1.00
C143   C     0.51838   0.13756   0.27330   0.00000  Uiso   1.00
C144   C     0.48159   0.19588   0.22689   0.00000  Uiso   1.00
H145   H     0.53190   0.11433   0.29208   0.00000  Uiso   1.00
H146   H     0.46806   0.21927   0.20832   0.00000  Uiso   1.00
C147   C     0.46870   0.13764   0.27339   0.00000  Uiso   1.00
C148   C     0.53110   0.19607   0.22734   0.00000  Uiso   1.00
H149   H     0.44475   0.11448   0.29221   0.00000  Uiso   1.00
H150   H     0.55478   0.21986   0.20990   0.00000  Uiso   1.00
N151   N     0.45069   0.16668   0.24999   0.00000  Uiso   1.00
N152   N     0.54931   0.16666   0.25001   0.00000  Uiso   1.00
C153   C     0.46222   0.13517   0.11016   0.00000  Uiso   1.00
C154   C     0.49488   0.10173   0.08033   0.00000  Uiso   1.00
C155   C     0.53350   0.08553   0.10223   0.00000  Uiso   1.00
H156   H     0.55844   0.11072   0.10559   0.00000  Uiso   1.00
H157   H     0.51640   0.07295   0.13610   0.00000  Uiso   1.00
H158   H     0.55528   0.06060   0.08080   0.00000  Uiso   1.00
H159   H     0.47190   0.07572   0.07488   0.00000  Uiso   1.00
H160   H     0.51468   0.11349   0.04691   0.00000  Uiso   1.00
H161   H     0.48481   0.15883   0.12084   0.00000  Uiso   1.00
H162   H     0.44290   0.11807   0.14056   0.00000  Uiso   1.00
C163   C     0.56626   0.11601   0.39654   0.00000  Uiso   1.00
C164   C     0.56242   0.08443   0.43431   0.00000  Uiso   1.00
C165   C     0.55519   0.04088   0.41811   0.00000  Uiso   1.00
H166   H     0.52119   0.03958   0.40700   0.00000  Uiso   1.00
H167   H     0.58664   0.03132   0.38959   0.00000  Uiso   1.00
H168   H     0.55226   0.01886   0.44616   0.00000  Uiso   1.00
H169   H     0.59632   0.08478   0.44568   0.00000  Uiso   1.00
H170   H     0.53119   0.09220   0.46368   0.00000  Uiso   1.00
H171   H     0.53275   0.11634   0.38504   0.00000  Uiso   1.00
H172   H     0.59502   0.10387   0.36713   0.00000  Uiso   1.00
C173   C     0.62376   0.18702   0.10556   0.00000  Uiso   1.00
C174   C     0.62934   0.23257   0.11813   0.00000  Uiso   1.00
C175   C     0.58148   0.25731   0.12705   0.00000  Uiso   1.00
H176   H     0.54921   0.23706   0.13661   0.00000  Uiso   1.00
H177   H     0.57925   0.28009   0.15474   0.00000  Uiso   1.00
H178   H     0.58007   0.27490   0.09669   0.00000  Uiso   1.00
H179   H     0.64289   0.23445   0.14866   0.00000  Uiso   1.00
H180   H     0.65691   0.24753   0.09032   0.00000  Uiso   1.00
H181   H     0.60291   0.18692   0.08000   0.00000  Uiso   1.00
H182   H     0.60067   0.16987   0.13429   0.00000  Uiso   1.00
C183   C     0.36772   0.21857   0.38506   0.00000  Uiso   1.00
C184   C     0.36581   0.25845   0.35917   0.00000  Uiso   1.00
C185   C     0.41660   0.27134   0.33224   0.00000  Uiso   1.00
H186   H     0.44002   0.27703   0.35522   0.00000  Uiso   1.00
H187   H     0.43371   0.24689   0.30737   0.00000  Uiso   1.00
H188   H     0.41387   0.30015   0.31375   0.00000  Uiso   1.00
H189   H     0.34254   0.25410   0.33593   0.00000  Uiso   1.00
H190   H     0.34922   0.28366   0.38328   0.00000  Uiso   1.00
H191   H     0.38853   0.22420   0.41020   0.00000  Uiso   1.00
H192   H     0.39043   0.19444   0.36351   0.00000  Uiso   1.00
Cl193  Cl    0.65725   0.25254   0.47974   0.00000  Uiso   1.00
Cl194  Cl    0.64472   0.13837   0.01296   0.00000  Uiso   1.00
Cl195  Cl    0.57038   0.29020   0.30728   0.00000  Uiso   1.00
Cl196  Cl    0.43025   0.04252   0.19571   0.00000  Uiso   1.00
O197   O     0.70625   0.10655   0.25000   0.00000  Uiso   1.00
O198   O     0.96042   0.22678   0.25000   0.00000  Uiso   1.00
O199   O     0.96039   0.10654   0.25000   0.00000  Uiso   1.00
O200   O     0.70628   0.22679   0.24999   0.00000  Uiso   1.00
C201   C     0.66710   0.08736   0.24942   0.00000  Uiso   1.00
C202   C     0.99951   0.24593   0.25070   0.00000  Uiso   1.00
O203   O     0.68519   0.16668   0.31491   0.00000  Uiso   1.00
O204   O     0.98148   0.16666   0.18508   0.00000  Uiso   1.00
O205   O     0.93933   0.16667   0.31492   0.00000  Uiso   1.00
O206   O     0.72733   0.16667   0.18508   0.00000  Uiso   1.00
C207   C     0.97289   0.16897   0.33632   0.00000  Uiso   1.00
C208   C     0.69404   0.16542   0.16326   0.00000  Uiso   1.00
Cu209  Cu    0.71355   0.16667   0.25000   0.00000  Uiso   1.00
Cu210  Cu    0.95311   0.16666   0.25000   0.00000  Uiso   1.00
C211   C     0.95785   0.17586   0.38589   0.00000  Uiso   1.00
C212   C     0.70861   0.16236   0.11273   0.00000  Uiso   1.00
C213   C     0.96002   0.21782   0.45180   0.00000  Uiso   1.00
C214   C     0.68815   0.15499   0.04076   0.00000  Uiso   1.00
C215   C     0.98316   0.20355   0.40772   0.00000  Uiso   1.00
C216   C     0.67360   0.16627   0.08702   0.00000  Uiso   1.00
C217   C     0.91298   0.15908   0.41030   0.00000  Uiso   1.00
C218   C     0.75844   0.15576   0.08862   0.00000  Uiso   1.00
C219   C     0.88671   0.17874   0.45114   0.00000  Uiso   1.00
C220   C     0.77187   0.16429   0.04193   0.00000  Uiso   1.00
C221   C     0.91217   0.20554   0.47335   0.00000  Uiso   1.00
C222   C     0.73770   0.15716   0.01726   0.00000  Uiso   1.00
C223   C     0.83656   0.17142   0.47214   0.00000  Uiso   1.00
C224   C     0.81843   0.17854   0.01901   0.00000  Uiso   1.00
C225   C     0.84499   0.20324   0.04111   0.00000  Uiso   1.00
C226   C     0.80287   0.16126   0.44770   0.00000  Uiso   1.00
C227   C     0.88975   0.21849   0.01778   0.00000  Uiso   1.00
C228   C     0.75381   0.15520   0.46988   0.00000  Uiso   1.00
H229   H     0.90728   0.23926   0.03569   0.00000  Uiso   1.00
H230   H     0.72865   0.15027   0.44958   0.00000  Uiso   1.00
H231   H     0.82961   0.21362   0.07556   0.00000  Uiso   1.00
H232   H     0.81282   0.16244   0.41133   0.00000  Uiso   1.00
C233   C     0.95844   0.02268   0.27309   0.00000  Uiso   1.00
C234   C     0.70806   0.31054   0.22834   0.00000  Uiso   1.00
H235   H     0.92648   0.04029   0.29119   0.00000  Uiso   1.00
H236   H     0.74015   0.29297   0.21045   0.00000  Uiso   1.00
C237   C     0.95719   0.31331   0.27438   0.00000  Uiso   1.00
C238   C     0.70941   0.01981   0.22729   0.00000  Uiso   1.00
C239   C     0.99890   0.29049   0.25133   0.00000  Uiso   1.00
C240   C     0.66754   0.04274   0.24965   0.00000  Uiso   1.00
C241   C     0.85171   0.13756   0.27330   0.00000  Uiso   1.00
C242   C     0.81493   0.19588   0.22689   0.00000  Uiso   1.00
H243   H     0.86523   0.11433   0.29208   0.00000  Uiso   1.00
H244   H     0.80139   0.21927   0.20832   0.00000  Uiso   1.00
C245   C     0.80203   0.13764   0.27339   0.00000  Uiso   1.00
C246   C     0.86443   0.19607   0.22734   0.00000  Uiso   1.00
H247   H     0.77808   0.11448   0.29221   0.00000  Uiso   1.00
H248   H     0.88812   0.21986   0.20990   0.00000  Uiso   1.00
N249   N     0.78403   0.16668   0.24999   0.00000  Uiso   1.00
N250   N     0.88264   0.16666   0.25001   0.00000  Uiso   1.00
C251   C     0.79555   0.13517   0.11016   0.00000  Uiso   1.00
C252   C     0.82821   0.10173   0.08033   0.00000  Uiso   1.00
C253   C     0.86683   0.08553   0.10223   0.00000  Uiso   1.00
H254   H     0.89177   0.11072   0.10559   0.00000  Uiso   1.00
H255   H     0.84973   0.07295   0.13610   0.00000  Uiso   1.00
H256   H     0.88862   0.06060   0.08080   0.00000  Uiso   1.00
H257   H     0.80523   0.07572   0.07488   0.00000  Uiso   1.00
H258   H     0.84801   0.11349   0.04691   0.00000  Uiso   1.00
H259   H     0.81814   0.15883   0.12084   0.00000  Uiso   1.00
H260   H     0.77623   0.11807   0.14056   0.00000  Uiso   1.00
C261   C     0.89960   0.11601   0.39654   0.00000  Uiso   1.00
C262   C     0.89575   0.08443   0.43431   0.00000  Uiso   1.00
C263   C     0.88852   0.04088   0.41811   0.00000  Uiso   1.00
H264   H     0.85453   0.03958   0.40700   0.00000  Uiso   1.00
H265   H     0.91998   0.03132   0.38959   0.00000  Uiso   1.00
H266   H     0.88559   0.01886   0.44616   0.00000  Uiso   1.00
H267   H     0.92966   0.08478   0.44568   0.00000  Uiso   1.00
H268   H     0.86452   0.09220   0.46368   0.00000  Uiso   1.00
H269   H     0.86609   0.11634   0.38504   0.00000  Uiso   1.00
H270   H     0.92835   0.10387   0.36713   0.00000  Uiso   1.00
C271   C     0.95709   0.18702   0.10556   0.00000  Uiso   1.00
C272   C     0.96267   0.23257   0.11813   0.00000  Uiso   1.00
C273   C     0.91482   0.25731   0.12705   0.00000  Uiso   1.00
H274   H     0.88254   0.23706   0.13661   0.00000  Uiso   1.00
H275   H     0.91259   0.28009   0.15474   0.00000  Uiso   1.00
H276   H     0.91341   0.27490   0.09669   0.00000  Uiso   1.00
H277   H     0.97622   0.23445   0.14866   0.00000  Uiso   1.00
H278   H     0.99024   0.24753   0.09032   0.00000  Uiso   1.00
H279   H     0.93624   0.18692   0.08000   0.00000  Uiso   1.00
H280   H     0.93401   0.16987   0.13429   0.00000  Uiso   1.00
C281   C     0.70105   0.21857   0.38506   0.00000  Uiso   1.00
C282   C     0.69914   0.25845   0.35917   0.00000  Uiso   1.00
C283   C     0.74993   0.27134   0.33224   0.00000  Uiso   1.00
H284   H     0.77336   0.27703   0.35522   0.00000  Uiso   1.00
H285   H     0.76704   0.24689   0.30737   0.00000  Uiso   1.00
H286   H     0.74720   0.30015   0.31375   0.00000  Uiso   1.00
H287   H     0.67588   0.25410   0.33593   0.00000  Uiso   1.00
H288   H     0.68255   0.28366   0.38328   0.00000  Uiso   1.00
H289   H     0.72187   0.22420   0.41020   0.00000  Uiso   1.00
H290   H     0.72376   0.19444   0.36351   0.00000  Uiso   1.00
Cl291  Cl    0.99059   0.25254   0.47974   0.00000  Uiso   1.00
Cl292  Cl    0.97805   0.13837   0.01296   0.00000  Uiso   1.00
Cl293  Cl    0.90372   0.29020   0.30728   0.00000  Uiso   1.00
Cl294  Cl    0.76358   0.04252   0.19571   0.00000  Uiso   1.00
O295   O     0.03958   0.43989   0.25000   0.00000  Uiso   1.00
O296   O     0.29375   0.56011   0.25000   0.00000  Uiso   1.00
O297   O     0.29372   0.43988   0.25000   0.00000  Uiso   1.00
O298   O     0.03961   0.56012   0.24999   0.00000  Uiso   1.00
C299   C     0.00043   0.42069   0.24942   0.00000  Uiso   1.00
C300   C     0.33284   0.57926   0.25070   0.00000  Uiso   1.00
O301   O     0.01852   0.50001   0.31491   0.00000  Uiso   1.00
O302   O     0.31481   0.49999   0.18508   0.00000  Uiso   1.00
O303   O     0.27267   0.50000   0.31492   0.00000  Uiso   1.00
O304   O     0.06067   0.50000   0.18508   0.00000  Uiso   1.00
C305   C     0.30622   0.50231   0.33632   0.00000  Uiso   1.00
C306   C     0.02737   0.49875   0.16326   0.00000  Uiso   1.00
Cu307  Cu    0.04689   0.50001   0.25000   0.00000  Uiso   1.00
Cu308  Cu    0.28645   0.49999   0.25000   0.00000  Uiso   1.00
C309   C     0.29119   0.50919   0.38589   0.00000  Uiso   1.00
C310   C     0.04194   0.49569   0.11273   0.00000  Uiso   1.00
C311   C     0.29335   0.55115   0.45180   0.00000  Uiso   1.00
C312   C     0.02149   0.48833   0.04076   0.00000  Uiso   1.00
C313   C     0.31649   0.53689   0.40772   0.00000  Uiso   1.00
C314   C     0.00693   0.49961   0.08702   0.00000  Uiso   1.00
C315   C     0.24631   0.49241   0.41030   0.00000  Uiso   1.00
C316   C     0.09177   0.48909   0.08862   0.00000  Uiso   1.00
C317   C     0.22005   0.51207   0.45114   0.00000  Uiso   1.00
C318   C     0.10520   0.49762   0.04193   0.00000  Uiso   1.00
C319   C     0.24550   0.53888   0.47335   0.00000  Uiso   1.00
C320   C     0.07103   0.49049   0.01726   0.00000  Uiso   1.00
C321   C     0.16989   0.50475   0.47214   0.00000  Uiso   1.00
C322   C     0.15176   0.51187   0.01901   0.00000  Uiso   1.00
C323   C     0.17832   0.53658   0.04111   0.00000  Uiso   1.00
C324   C     0.13621   0.49459   0.44770   0.00000  Uiso   1.00
C325   C     0.22308   0.55182   0.01778   0.00000  Uiso   1.00
C326   C     0.08714   0.48853   0.46988   0.00000  Uiso   1.00
H327   H     0.24062   0.57259   0.03569   0.00000  Uiso   1.00
H328   H     0.06198   0.48360   0.44958   0.00000  Uiso   1.00
H329   H     0.16294   0.54696   0.07556   0.00000  Uiso   1.00
H330   H     0.14615   0.49577   0.41133   0.00000  Uiso   1.00
C331   C     0.29178   0.35601   0.27309   0.00000  Uiso   1.00
C332   C     0.04140   0.64387   0.22834   0.00000  Uiso   1.00
H333   H     0.25981   0.37362   0.29119   0.00000  Uiso   1.00
H334   H     0.07348   0.62631   0.21045   0.00000  Uiso   1.00
C335   C     0.29052   0.64664   0.27438   0.00000  Uiso   1.00
C336   C     0.04275   0.35314   0.22729   0.00000  Uiso   1.00
C337   C     0.33224   0.62382   0.25133   0.00000  Uiso   1.00
C338   C     0.00087   0.37607   0.24965   0.00000  Uiso   1.00
C339   C     0.18505   0.47089   0.27330   0.00000  Uiso   1.00
C340   C     0.14826   0.52921   0.22689   0.00000  Uiso   1.00
H341   H     0.19857   0.44766   0.29208   0.00000  Uiso   1.00
H342   H     0.13472   0.55260   0.20832   0.00000  Uiso   1.00
C343   C     0.13536   0.47097   0.27339   0.00000  Uiso   1.00
C344   C     0.19776   0.52940   0.22734   0.00000  Uiso   1.00
H345   H     0.11141   0.44782   0.29221   0.00000  Uiso   1.00
H346   H     0.22145   0.55319   0.20990   0.00000  Uiso   1.00
N347   N     0.11736   0.50001   0.24999   0.00000  Uiso   1.00
N348   N     0.21597   0.49999   0.25001   0.00000  Uiso   1.00
C349   C     0.12889   0.46851   0.11016   0.00000  Uiso   1.00
C350   C     0.16155   0.43506   0.08033   0.00000  Uiso   1.00
C351   C     0.20017   0.41886   0.10223   0.00000  Uiso   1.00
H352   H     0.22511   0.44406   0.10559   0.00000  Uiso   1.00
H353   H     0.18306   0.40628   0.13610   0.00000  Uiso   1.00
H354   H     0.22195   0.39394   0.08080   0.00000  Uiso   1.00
H355   H     0.13856   0.40905   0.07488   0.00000  Uiso   1.00
H356   H     0.18135   0.44682   0.04691   0.00000  Uiso   1.00
H357   H     0.15148   0.49217   0.12084   0.00000  Uiso   1.00
H358   H     0.10956   0.45141   0.14056   0.00000  Uiso   1.00
C359   C     0.23293   0.44935   0.39654   0.00000  Uiso   1.00
C360   C     0.22908   0.41777   0.43431   0.00000  Uiso   1.00
C361   C     0.22186   0.37421   0.41811   0.00000  Uiso   1.00
H362   H     0.18786   0.37292   0.40700   0.00000  Uiso   1.00
H363   H     0.25331   0.36465   0.38959   0.00000  Uiso   1.00
H364   H     0.21893   0.35219   0.44616   0.00000  Uiso   1.00
H365   H     0.26299   0.41812   0.44568   0.00000  Uiso   1.00
H366   H     0.19785   0.42553   0.46368   0.00000  Uiso   1.00
H367   H     0.19942   0.44967   0.38504   0.00000  Uiso   1.00
H368   H     0.26169   0.43720   0.36713   0.00000  Uiso   1.00
C369   C     0.29042   0.52035   0.10556   0.00000  Uiso   1.00
C370   C     0.29601   0.56590   0.11813   0.00000  Uiso   1.00
C371   C     0.24815   0.59065   0.12705   0.00000  Uiso   1.00
H372   H     0.21587   0.57040   0.13661   0.00000  Uiso   1.00
H373   H     0.24592   0.61342   0.15474   0.00000  Uiso   1.00
H374   H     0.24674   0.60823   0.09669   0.00000  Uiso   1.00
H375   H     0.30955   0.56779   0.14866   0.00000  Uiso   1.00
H376   H     0.32357   0.58086   0.09032   0.00000  Uiso   1.00
H377   H     0.26958   0.52025   0.08000   0.00000  Uiso   1.00
H378   H     0.26734   0.50320   0.13429   0.00000  Uiso   1.00
C379   C     0.03439   0.55190   0.38506   0.00000  Uiso   1.00
C380   C     0.03247   0.59178   0.35917   0.00000  Uiso   1.00
C381   C     0.08326   0.60467   0.33224   0.00000  Uiso   1.00
H382   H     0.10669   0.61037   0.35522   0.00000  Uiso   1.00
H383   H     0.10038   0.58023   0.30737   0.00000  Uiso   1.00
H384   H     0.08053   0.63348   0.31375   0.00000  Uiso   1.00
H385   H     0.00921   0.58744   0.33593   0.00000  Uiso   1.00
H386   H     0.01589   0.61700   0.38328   0.00000  Uiso   1.00
H387   H     0.05520   0.55753   0.41020   0.00000  Uiso   1.00
H388   H     0.05709   0.52778   0.36351   0.00000  Uiso   1.00
Cl389  Cl    0.32392   0.58588   0.47974   0.00000  Uiso   1.00
Cl390  Cl    0.31139   0.47170   0.01296   0.00000  Uiso   1.00
Cl391  Cl    0.23705   0.62353   0.30728   0.00000  Uiso   1.00
Cl392  Cl    0.09692   0.37586   0.19571   0.00000  Uiso   1.00
O393   O     0.37291   0.43989   0.25000   0.00000  Uiso   1.00
O394   O     0.62709   0.56011   0.25000   0.00000  Uiso   1.00
O395   O     0.62706   0.43988   0.25000   0.00000  Uiso   1.00
O396   O     0.37294   0.56012   0.24999   0.00000  Uiso   1.00
C397   C     0.33377   0.42069   0.24942   0.00000  Uiso   1.00
C398   C     0.66617   0.57926   0.25070   0.00000  Uiso   1.00
O399   O     0.35186   0.50001   0.31491   0.00000  Uiso   1.00
O400   O     0.64814   0.49999   0.18508   0.00000  Uiso   1.00
O401   O     0.60600   0.50000   0.31492   0.00000  Uiso   1.00
O402   O     0.39400   0.50000   0.18508   0.00000  Uiso   1.00
C403   C     0.63955   0.50231   0.33632   0.00000  Uiso   1.00
C404   C     0.36071   0.49875   0.16326   0.00000  Uiso   1.00
Cu405  Cu    0.38022   0.50001   0.25000   0.00000  Uiso   1.00
Cu406  Cu    0.61978   0.49999   0.25000   0.00000  Uiso   1.00
C407   C     0.62452   0.50919   0.38589   0.00000  Uiso   1.00
C408   C     0.37528   0.49569   0.11273   0.00000  Uiso   1.00
C409   C     0.62669   0.55115   0.45180   0.00000  Uiso   1.00
C410   C     0.35482   0.48833   0.04076   0.00000  Uiso   1.00
C411   C     0.64983   0.53689   0.40772   0.00000  Uiso   1.00
C412   C     0.34027   0.49961   0.08702   0.00000  Uiso   1.00
C413   C     0.57964   0.49241   0.41030   0.00000  Uiso   1.00
C414   C     0.42510   0.48909   0.08862   0.00000  Uiso   1.00
C415   C     0.55338   0.51207   0.45114   0.00000  Uiso   1.00
C416   C     0.43854   0.49762   0.04193   0.00000  Uiso   1.00
C417   C     0.57883   0.53888   0.47335   0.00000  Uiso   1.00
C418   C     0.40437   0.49049   0.01726   0.00000  Uiso   1.00
C419   C     0.50323   0.50475   0.47214   0.00000  Uiso   1.00
C420   C     0.48509   0.51187   0.01901   0.00000  Uiso   1.00
C421   C     0.51165   0.53658   0.04111   0.00000  Uiso   1.00
C422   C     0.46954   0.49459   0.44770   0.00000  Uiso   1.00
C423   C     0.55642   0.55182   0.01778   0.00000  Uiso   1.00
C424   C     0.42047   0.48853   0.46988   0.00000  Uiso   1.00
H425   H     0.57395   0.57259   0.03569   0.00000  Uiso   1.00
H426   H     0.39531   0.48360   0.44958   0.00000  Uiso   1.00
H427   H     0.49627   0.54696   0.07556   0.00000  Uiso   1.00
H428   H     0.47949   0.49577   0.41133   0.00000  Uiso   1.00
C429   C     0.62511   0.35601   0.27309   0.00000  Uiso   1.00
C430   C     0.37473   0.64387   0.22834   0.00000  Uiso   1.00
H431   H     0.59315   0.37362   0.29119   0.00000  Uiso   1.00
H432   H     0.40682   0.62631   0.21045   0.00000  Uiso   1.00
C433   C     0.62385   0.64664   0.27438   0.00000  Uiso   1.00
C434   C     0.37608   0.35314   0.22729   0.00000  Uiso   1.00
C435   C     0.66557   0.62382   0.25133   0.00000  Uiso   1.00
C436   C     0.33421   0.37607   0.24965   0.00000  Uiso   1.00
C437   C     0.51838   0.47089   0.27330   0.00000  Uiso   1.00
C438   C     0.48159   0.52921   0.22689   0.00000  Uiso   1.00
H439   H     0.53190   0.44766   0.29208   0.00000  Uiso   1.00
H440   H     0.46806   0.55260   0.20832   0.00000  Uiso   1.00
C441   C     0.46870   0.47097   0.27339   0.00000  Uiso   1.00
C442   C     0.53110   0.52940   0.22734   0.00000  Uiso   1.00
H443   H     0.44475   0.44782   0.29221   0.00000  Uiso   1.00
H444   H     0.55478   0.55319   0.20990   0.00000  Uiso   1.00
N445   N     0.45069   0.50001   0.24999   0.00000  Uiso   1.00
N446   N     0.54931   0.49999   0.25001   0.00000  Uiso   1.00
C447   C     0.46222   0.46851   0.11016   0.00000  Uiso   1.00
C448   C     0.49488   0.43506   0.08033   0.00000  Uiso   1.00
C449   C     0.53350   0.41886   0.10223   0.00000  Uiso   1.00
H450   H     0.55844   0.44406   0.10559   0.00000  Uiso   1.00
H451   H     0.51640   0.40628   0.13610   0.00000  Uiso   1.00
H452   H     0.55528   0.39394   0.08080   0.00000  Uiso   1.00
H453   H     0.47190   0.40905   0.07488   0.00000  Uiso   1.00
H454   H     0.51468   0.44682   0.04691   0.00000  Uiso   1.00
H455   H     0.48481   0.49217   0.12084   0.00000  Uiso   1.00
H456   H     0.44290   0.45141   0.14056   0.00000  Uiso   1.00
C457   C     0.56626   0.44935   0.39654   0.00000  Uiso   1.00
C458   C     0.56242   0.41777   0.43431   0.00000  Uiso   1.00
C459   C     0.55519   0.37421   0.41811   0.00000  Uiso   1.00
H460   H     0.52119   0.37292   0.40700   0.00000  Uiso   1.00
H461   H     0.58664   0.36465   0.38959   0.00000  Uiso   1.00
H462   H     0.55226   0.35219   0.44616   0.00000  Uiso   1.00
H463   H     0.59632   0.41812   0.44568   0.00000  Uiso   1.00
H464   H     0.53119   0.42553   0.46368   0.00000  Uiso   1.00
H465   H     0.53275   0.44967   0.38504   0.00000  Uiso   1.00
H466   H     0.59502   0.43720   0.36713   0.00000  Uiso   1.00
C467   C     0.62376   0.52035   0.10556   0.00000  Uiso   1.00
C468   C     0.62934   0.56590   0.11813   0.00000  Uiso   1.00
C469   C     0.58148   0.59065   0.12705   0.00000  Uiso   1.00
H470   H     0.54921   0.57040   0.13661   0.00000  Uiso   1.00
H471   H     0.57925   0.61342   0.15474   0.00000  Uiso   1.00
H472   H     0.58007   0.60823   0.09669   0.00000  Uiso   1.00
H473   H     0.64289   0.56779   0.14866   0.00000  Uiso   1.00
H474   H     0.65691   0.58086   0.09032   0.00000  Uiso   1.00
H475   H     0.60291   0.52025   0.08000   0.00000  Uiso   1.00
H476   H     0.60067   0.50320   0.13429   0.00000  Uiso   1.00
C477   C     0.36772   0.55190   0.38506   0.00000  Uiso   1.00
C478   C     0.36581   0.59178   0.35917   0.00000  Uiso   1.00
C479   C     0.41660   0.60467   0.33224   0.00000  Uiso   1.00
H480   H     0.44002   0.61037   0.35522   0.00000  Uiso   1.00
H481   H     0.43371   0.58023   0.30737   0.00000  Uiso   1.00
H482   H     0.41387   0.63348   0.31375   0.00000  Uiso   1.00
H483   H     0.34254   0.58744   0.33593   0.00000  Uiso   1.00
H484   H     0.34922   0.61700   0.38328   0.00000  Uiso   1.00
H485   H     0.38853   0.55753   0.41020   0.00000  Uiso   1.00
H486   H     0.39043   0.52778   0.36351   0.00000  Uiso   1.00
Cl487  Cl    0.65725   0.58588   0.47974   0.00000  Uiso   1.00
Cl488  Cl    0.64472   0.47170   0.01296   0.00000  Uiso   1.00
Cl489  Cl    0.57038   0.62353   0.30728   0.00000  Uiso   1.00
Cl490  Cl    0.43025   0.37586   0.19571   0.00000  Uiso   1.00
O491   O     0.70625   0.43989   0.25000   0.00000  Uiso   1.00
O492   O     0.96042   0.56011   0.25000   0.00000  Uiso   1.00
O493   O     0.96039   0.43988   0.25000   0.00000  Uiso   1.00
O494   O     0.70628   0.56012   0.24999   0.00000  Uiso   1.00
C495   C     0.66710   0.42069   0.24942   0.00000  Uiso   1.00
C496   C     0.99951   0.57926   0.25070   0.00000  Uiso   1.00
O497   O     0.68519   0.50001   0.31491   0.00000  Uiso   1.00
O498   O     0.98148   0.49999   0.18508   0.00000  Uiso   1.00
O499   O     0.93933   0.50000   0.31492   0.00000  Uiso   1.00
O500   O     0.72733   0.50000   0.18508   0.00000  Uiso   1.00
C501   C     0.97289   0.50231   0.33632   0.00000  Uiso   1.00
C502   C     0.69404   0.49875   0.16326   0.00000  Uiso   1.00
Cu503  Cu    0.71355   0.50001   0.25000   0.00000  Uiso   1.00
Cu504  Cu    0.95311   0.49999   0.25000   0.00000  Uiso   1.00
C505   C     0.95785   0.50919   0.38589   0.00000  Uiso   1.00
C506   C     0.70861   0.49569   0.11273   0.00000  Uiso   1.00
C507   C     0.96002   0.55115   0.45180   0.00000  Uiso   1.00
C508   C     0.68815   0.48833   0.04076   0.00000  Uiso   1.00
C509   C     0.98316   0.53689   0.40772   0.00000  Uiso   1.00
C510   C     0.67360   0.49961   0.08702   0.00000  Uiso   1.00
C511   C     0.91298   0.49241   0.41030   0.00000  Uiso   1.00
C512   C     0.75844   0.48909   0.08862   0.00000  Uiso   1.00
C513   C     0.88671   0.51207   0.45114   0.00000  Uiso   1.00
C514   C     0.77187   0.49762   0.04193   0.00000  Uiso   1.00
C515   C     0.91217   0.53888   0.47335   0.00000  Uiso   1.00
C516   C     0.73770   0.49049   0.01726   0.00000  Uiso   1.00
C517   C     0.83656   0.50475   0.47214   0.00000  Uiso   1.00
C518   C     0.81843   0.51187   0.01901   0.00000  Uiso   1.00
C519   C     0.84499   0.53658   0.04111   0.00000  Uiso   1.00
C520   C     0.80287   0.49459   0.44770   0.00000  Uiso   1.00
C521   C     0.88975   0.55182   0.01778   0.00000  Uiso   1.00
C522   C     0.75381   0.48853   0.46988   0.00000  Uiso   1.00
H523   H     0.90728   0.57259   0.03569   0.00000  Uiso   1.00
H524   H     0.72865   0.48360   0.44958   0.00000  Uiso   1.00
H525   H     0.82961   0.54696   0.07556   0.00000  Uiso   1.00
H526   H     0.81282   0.49577   0.41133   0.00000  Uiso   1.00
C527   C     0.95844   0.35601   0.27309   0.00000  Uiso   1.00
C528   C     0.70806   0.64387   0.22834   0.00000  Uiso   1.00
H529   H     0.92648   0.37362   0.29119   0.00000  Uiso   1.00
H530   H     0.74015   0.62631   0.21045   0.00000  Uiso   1.00
C531   C     0.95719   0.64664   0.27438   0.00000  Uiso   1.00
C532   C     0.70941   0.35314   0.22729   0.00000  Uiso   1.00
C533   C     0.99890   0.62382   0.25133   0.00000  Uiso   1.00
C534   C     0.66754   0.37607   0.24965   0.00000  Uiso   1.00
C535   C     0.85171   0.47089   0.27330   0.00000  Uiso   1.00
C536   C     0.81493   0.52921   0.22689   0.00000  Uiso   1.00
H537   H     0.86523   0.44766   0.29208   0.00000  Uiso   1.00
H538   H     0.80139   0.55260   0.20832   0.00000  Uiso   1.00
C539   C     0.80203   0.47097   0.27339   0.00000  Uiso   1.00
C540   C     0.86443   0.52940   0.22734   0.00000  Uiso   1.00
H541   H     0.77808   0.44782   0.29221   0.00000  Uiso   1.00
H542   H     0.88812   0.55319   0.20990   0.00000  Uiso   1.00
N543   N     0.78403   0.50001   0.24999   0.00000  Uiso   1.00
N544   N     0.88264   0.49999   0.25001   0.00000  Uiso   1.00
C545   C     0.79555   0.46851   0.11016   0.00000  Uiso   1.00
C546   C     0.82821   0.43506   0.08033   0.00000  Uiso   1.00
C547   C     0.86683   0.41886   0.10223   0.00000  Uiso   1.00
H548   H     0.89177   0.44406   0.10559   0.00000  Uiso   1.00
H549   H     0.84973   0.40628   0.13610   0.00000  Uiso   1.00
H550   H     0.88862   0.39394   0.08080   0.00000  Uiso   1.00
H551   H     0.80523   0.40905   0.07488   0.00000  Uiso   1.00
H552   H     0.84801   0.44682   0.04691   0.00000  Uiso   1.00
H553   H     0.81814   0.49217   0.12084   0.00000  Uiso   1.00
H554   H     0.77623   0.45141   0.14056   0.00000  Uiso   1.00
C555   C     0.89960   0.44935   0.39654   0.00000  Uiso   1.00
C556   C     0.89575   0.41777   0.43431   0.00000  Uiso   1.00
C557   C     0.88852   0.37421   0.41811   0.00000  Uiso   1.00
H558   H     0.85453   0.37292   0.40700   0.00000  Uiso   1.00
H559   H     0.91998   0.36465   0.38959   0.00000  Uiso   1.00
H560   H     0.88559   0.35219   0.44616   0.00000  Uiso   1.00
H561   H     0.92966   0.41812   0.44568   0.00000  Uiso   1.00
H562   H     0.86452   0.42553   0.46368   0.00000  Uiso   1.00
H563   H     0.86609   0.44967   0.38504   0.00000  Uiso   1.00
H564   H     0.92835   0.43720   0.36713   0.00000  Uiso   1.00
C565   C     0.95709   0.52035   0.10556   0.00000  Uiso   1.00
C566   C     0.96267   0.56590   0.11813   0.00000  Uiso   1.00
C567   C     0.91482   0.59065   0.12705   0.00000  Uiso   1.00
H568   H     0.88254   0.57040   0.13661   0.00000  Uiso   1.00
H569   H     0.91259   0.61342   0.15474   0.00000  Uiso   1.00
H570   H     0.91341   0.60823   0.09669   0.00000  Uiso   1.00
H571   H     0.97622   0.56779   0.14866   0.00000  Uiso   1.00
H572   H     0.99024   0.58086   0.09032   0.00000  Uiso   1.00
H573   H     0.93624   0.52025   0.08000   0.00000  Uiso   1.00
H574   H     0.93401   0.50320   0.13429   0.00000  Uiso   1.00
C575   C     0.70105   0.55190   0.38506   0.00000  Uiso   1.00
C576   C     0.69914   0.59178   0.35917   0.00000  Uiso   1.00
C577   C     0.74993   0.60467   0.33224   0.00000  Uiso   1.00
H578   H     0.77336   0.61037   0.35522   0.00000  Uiso   1.00
H579   H     0.76704   0.58023   0.30737   0.00000  Uiso   1.00
H580   H     0.74720   0.63348   0.31375   0.00000  Uiso   1.00
H581   H     0.67588   0.58744   0.33593   0.00000  Uiso   1.00
H582   H     0.68255   0.61700   0.38328   0.00000  Uiso   1.00
H583   H     0.72187   0.55753   0.41020   0.00000  Uiso   1.00
H584   H     0.72376   0.52778   0.36351   0.00000  Uiso   1.00
Cl585  Cl    0.99059   0.58588   0.47974   0.00000  Uiso   1.00
Cl586  Cl    0.97805   0.47170   0.01296   0.00000  Uiso   1.00
Cl587  Cl    0.90372   0.62353   0.30728   0.00000  Uiso   1.00
Cl588  Cl    0.76358   0.37586   0.19571   0.00000  Uiso   1.00
O589   O     0.03958   0.77322   0.25000   0.00000  Uiso   1.00
O590   O     0.29375   0.89345   0.25000   0.00000  Uiso   1.00
O591   O     0.29372   0.77321   0.25000   0.00000  Uiso   1.00
O592   O     0.03961   0.89346   0.24999   0.00000  Uiso   1.00
C593   C     0.00043   0.75402   0.24942   0.00000  Uiso   1.00
C594   C     0.33284   0.91260   0.25070   0.00000  Uiso   1.00
O595   O     0.01852   0.83334   0.31491   0.00000  Uiso   1.00
O596   O     0.31481   0.83332   0.18508   0.00000  Uiso   1.00
O597   O     0.27267   0.83333   0.31492   0.00000  Uiso   1.00
O598   O     0.06067   0.83333   0.18508   0.00000  Uiso   1.00
C599   C     0.30622   0.83564   0.33632   0.00000  Uiso   1.00
C600   C     0.02737   0.83208   0.16326   0.00000  Uiso   1.00
Cu601  Cu    0.04689   0.83334   0.25000   0.00000  Uiso   1.00
Cu602  Cu    0.28645   0.83333   0.25000   0.00000  Uiso   1.00
C603   C     0.29119   0.84253   0.38589   0.00000  Uiso   1.00
C604   C     0.04194   0.82902   0.11273   0.00000  Uiso   1.00
C605   C     0.29335   0.88449   0.45180   0.00000  Uiso   1.00
C606   C     0.02149   0.82166   0.04076   0.00000  Uiso   1.00
C607   C     0.31649   0.87022   0.40772   0.00000  Uiso   1.00
C608   C     0.00693   0.83294   0.08702   0.00000  Uiso   1.00
C609   C     0.24631   0.82574   0.41030   0.00000  Uiso   1.00
C610   C     0.09177   0.82242   0.08862   0.00000  Uiso   1.00
C611   C     0.22005   0.84540   0.45114   0.00000  Uiso   1.00
C612   C     0.10520   0.83095   0.04193   0.00000  Uiso   1.00
C613   C     0.24550   0.87221   0.47335   0.00000  Uiso   1.00
C614   C     0.07103   0.82382   0.01726   0.00000  Uiso   1.00
C615   C     0.16989   0.83809   0.47214   0.00000  Uiso   1.00
C616   C     0.15176   0.84520   0.01901   0.00000  Uiso   1.00
C617   C     0.17832   0.86991   0.04111   0.00000  Uiso   1.00
C618   C     0.13621   0.82792   0.44770   0.00000  Uiso   1.00
C619   C     0.22308   0.88516   0.01778   0.00000  Uiso   1.00
C620   C     0.08714   0.82187   0.46988   0.00000  Uiso   1.00
H621   H     0.24062   0.90592   0.03569   0.00000  Uiso   1.00
H622   H     0.06198   0.81694   0.44958   0.00000  Uiso   1.00
H623   H     0.16294   0.88029   0.07556   0.00000  Uiso   1.00
H624   H     0.14615   0.82910   0.41133   0.00000  Uiso   1.00
C625   C     0.29178   0.68935   0.27309   0.00000  Uiso   1.00
C626   C     0.04140   0.97720   0.22834   0.00000  Uiso   1.00
H627   H     0.25981   0.70695   0.29119   0.00000  Uiso   1.00
H628   H     0.07348   0.95964   0.21045   0.00000  Uiso   1.00
C629   C     0.29052   0.97998   0.27438   0.00000  Uiso   1.00
C630   C     0.04275   0.68647   0.22729   0.00000  Uiso   1.00
C631   C     0.33224   0.95716   0.25133   0.00000  Uiso   1.00
C632   C     0.00087   0.70940   0.24965   0.00000  Uiso   1.00
C633   C     0.18505   0.80422   0.27330   0.00000  Uiso   1.00
C634   C     0.14826   0.86254   0.22689   0.00000  Uiso   1.00
H635   H     0.19857   0.78099   0.29208   0.00000  Uiso   1.00
H636   H     0.13472   0.88594   0.20832   0.00000  Uiso   1.00
C637   C     0.13536   0.80431   0.27339   0.00000  Uiso   1.00
C638   C     0.19776   0.86274   0.22734   0.00000  Uiso   1.00
H639   H     0.11141   0.78115   0.29221   0.00000  Uiso   1.00
H640   H     0.22145   0.88652   0.20990   0.00000  Uiso   1.00
N641   N     0.11736   0.83334   0.24999   0.00000  Uiso   1.00
N642   N     0.21597   0.83332   0.25001   0.00000  Uiso   1.00
C643   C     0.12889   0.80184   0.11016   0.00000  Uiso   1.00
C644   C     0.16155   0.76840   0.08033   0.00000  Uiso   1.00
C645   C     0.20017   0.75220   0.10223   0.00000  Uiso   1.00
H646   H     0.22511   0.77739   0.10559   0.00000  Uiso   1.00
H647   H     0.18306   0.73962   0.13610   0.00000  Uiso   1.00
H648   H     0.22195   0.72727   0.08080   0.00000  Uiso   1.00
H649   H     0.13856   0.74239   0.07488   0.00000  Uiso   1.00
H650   H     0.18135   0.78016   0.04691   0.00000  Uiso   1.00
H651   H     0.15148   0.82550   0.12084   0.00000  Uiso   1.00
H652   H     0.10956   0.78474   0.14056   0.00000  Uiso   1.00
C653   C     0.23293   0.78268   0.39654   0.00000  Uiso   1.00
C654   C     0.22908   0.75110   0.43431   0.00000  Uiso   1.00
C655   C     0.22186   0.70754   0.41811   0.00000  Uiso   1.00
H656   H     0.18786   0.70625   0.40700   0.00000  Uiso   1.00
H657   H     0.25331   0.69798   0.38959   0.00000  Uiso   1.00
H658   H     0.21893   0.68553   0.44616   0.00000  Uiso   1.00
H659   H     0.26299   0.75145   0.44568   0.00000  Uiso   1.00
H660   H     0.19785   0.75886   0.46368   0.00000  Uiso   1.00
H661   H     0.19942   0.78301   0.38504   0.00000  Uiso   1.00
H662   H     0.26169   0.77053   0.36713   0.00000  Uiso   1.00
C663   C     0.29042   0.85369   0.10556   0.00000  Uiso   1.00
C664   C     0.29601   0.89923   0.11813   0.00000  Uiso   1.00
C665   C     0.24815   0.92398   0.12705   0.00000  Uiso   1.00
H666   H     0.21587   0.90373   0.13661   0.00000  Uiso   1.00
H667   H     0.24592   0.94675   0.15474   0.00000  Uiso   1.00
H668   H     0.24674   0.94157   0.09669   0.00000  Uiso   1.00
H669   H     0.30955   0.90112   0.14866   0.00000  Uiso   1.00
H670   H     0.32357   0.91419   0.09032   0.00000  Uiso   1.00
H671   H     0.26958   0.85359   0.08000   0.00000  Uiso   1.00
H672   H     0.26734   0.83654   0.13429   0.00000  Uiso   1.00
C673   C     0.03439   0.88524   0.38506   0.00000  Uiso   1.00
C674   C     0.03247   0.92511   0.35917   0.00000  Uiso   1.00
C675   C     0.08326   0.93800   0.33224   0.00000  Uiso   1.00
H676   H     0.10669   0.94370   0.35522   0.00000  Uiso   1.00
H677   H     0.10038   0.91356   0.30737   0.00000  Uiso   1.00
H678   H     0.08053   0.96682   0.31375   0.00000  Uiso   1.00
H679   H     0.00921   0.92077   0.33593   0.00000  Uiso   1.00
H680   H     0.01589   0.95033   0.38328   0.00000  Uiso   1.00
H681   H     0.05520   0.89087   0.41020   0.00000  Uiso   1.00
H682   H     0.05709   0.86111   0.36351   0.00000  Uiso   1.00
Cl683  Cl    0.32392   0.91921   0.47974   0.00000  Uiso   1.00
Cl684  Cl    0.31139   0.80503   0.01296   0.00000  Uiso   1.00
Cl685  Cl    0.23705   0.95687   0.30728   0.00000  Uiso   1.00
Cl686  Cl    0.09692   0.70919   0.19571   0.00000  Uiso   1.00
O687   O     0.37291   0.77322   0.25000   0.00000  Uiso   1.00
O688   O     0.62709   0.89345   0.25000   0.00000  Uiso   1.00
O689   O     0.62706   0.77321   0.25000   0.00000  Uiso   1.00
O690   O     0.37294   0.89346   0.24999   0.00000  Uiso   1.00
C691   C     0.33377   0.75402   0.24942   0.00000  Uiso   1.00
C692   C     0.66617   0.91260   0.25070   0.00000  Uiso   1.00
O693   O     0.35186   0.83334   0.31491   0.00000  Uiso   1.00
O694   O     0.64814   0.83332   0.18508   0.00000  Uiso   1.00
O695   O     0.60600   0.83333   0.31492   0.00000  Uiso   1.00
O696   O     0.39400   0.83333   0.18508   0.00000  Uiso   1.00
C697   C     0.63955   0.83564   0.33632   0.00000  Uiso   1.00
C698   C     0.36071   0.83208   0.16326   0.00000  Uiso   1.00
Cu699  Cu    0.38022   0.83334   0.25000   0.00000  Uiso   1.00
Cu700  Cu    0.61978   0.83333   0.25000   0.00000  Uiso   1.00
C701   C     0.62452   0.84253   0.38589   0.00000  Uiso   1.00
C702   C     0.37528   0.82902   0.11273   0.00000  Uiso   1.00
C703   C     0.62669   0.88449   0.45180   0.00000  Uiso   1.00
C704   C     0.35482   0.82166   0.04076   0.00000  Uiso   1.00
C705   C     0.64983   0.87022   0.40772   0.00000  Uiso   1.00
C706   C     0.34027   0.83294   0.08702   0.00000  Uiso   1.00
C707   C     0.57964   0.82574   0.41030   0.00000  Uiso   1.00
C708   C     0.42510   0.82242   0.08862   0.00000  Uiso   1.00
C709   C     0.55338   0.84540   0.45114   0.00000  Uiso   1.00
C710   C     0.43854   0.83095   0.04193   0.00000  Uiso   1.00
C711   C     0.57883   0.87221   0.47335   0.00000  Uiso   1.00
C712   C     0.40437   0.82382   0.01726   0.00000  Uiso   1.00
C713   C     0.50323   0.83809   0.47214   0.00000  Uiso   1.00
C714   C     0.48509   0.84520   0.01901   0.00000  Uiso   1.00
C715   C     0.51165   0.86991   0.04111   0.00000  Uiso   1.00
C716   C     0.46954   0.82792   0.44770   0.00000  Uiso   1.00
C717   C     0.55642   0.88516   0.01778   0.00000  Uiso   1.00
C718   C     0.42047   0.82187   0.46988   0.00000  Uiso   1.00
H719   H     0.57395   0.90592   0.03569   0.00000  Uiso   1.00
H720   H     0.39531   0.81694   0.44958   0.00000  Uiso   1.00
H721   H     0.49627   0.88029   0.07556   0.00000  Uiso   1.00
H722   H     0.47949   0.82910   0.41133   0.00000  Uiso   1.00
C723   C     0.62511   0.68935   0.27309   0.00000  Uiso   1.00
C724   C     0.37473   0.97720   0.22834   0.00000  Uiso   1.00
H725   H     0.59315   0.70695   0.29119   0.00000  Uiso   1.00
H726   H     0.40682   0.95964   0.21045   0.00000  Uiso   1.00
C727   C     0.62385   0.97998   0.27438   0.00000  Uiso   1.00
C728   C     0.37608   0.68647   0.22729   0.00000  Uiso   1.00
C729   C     0.66557   0.95716   0.25133   0.00000  Uiso   1.00
C730   C     0.33421   0.70940   0.24965   0.00000  Uiso   1.00
C731   C     0.51838   0.80422   0.27330   0.00000  Uiso   1.00
C732   C     0.48159   0.86254   0.22689   0.00000  Uiso   1.00
H733   H     0.53190   0.78099   0.29208   0.00000  Uiso   1.00
H734   H     0.46806   0.88594   0.20832   0.00000  Uiso   1.00
C735   C     0.46870   0.80431   0.27339   0.00000  Uiso   1.00
C736   C     0.53110   0.86274   0.22734   0.00000  Uiso   1.00
H737   H     0.44475   0.78115   0.29221   0.00000  Uiso   1.00
H738   H     0.55478   0.88652   0.20990   0.00000  Uiso   1.00
N739   N     0.45069   0.83334   0.24999   0.00000  Uiso   1.00
N740   N     0.54931   0.83332   0.25001   0.00000  Uiso   1.00
C741   C     0.46222   0.80184   0.11016   0.00000  Uiso   1.00
C742   C     0.49488   0.76840   0.08033   0.00000  Uiso   1.00
C743   C     0.53350   0.75220   0.10223   0.00000  Uiso   1.00
H744   H     0.55844   0.77739   0.10559   0.00000  Uiso   1.00
H745   H     0.51640   0.73962   0.13610   0.00000  Uiso   1.00
H746   H     0.55528   0.72727   0.08080   0.00000  Uiso   1.00
H747   H     0.47190   0.74239   0.07488   0.00000  Uiso   1.00
H748   H     0.51468   0.78016   0.04691   0.00000  Uiso   1.00
H749   H     0.48481   0.82550   0.12084   0.00000  Uiso   1.00
H750   H     0.44290   0.78474   0.14056   0.00000  Uiso   1.00
C751   C     0.56626   0.78268   0.39654   0.00000  Uiso   1.00
C752   C     0.56242   0.75110   0.43431   0.00000  Uiso   1.00
C753   C     0.55519   0.70754   0.41811   0.00000  Uiso   1.00
H754   H     0.52119   0.70625   0.40700   0.00000  Uiso   1.00
H755   H     0.58664   0.69798   0.38959   0.00000  Uiso   1.00
H756   H     0.55226   0.68553   0.44616   0.00000  Uiso   1.00
H757   H     0.59632   0.75145   0.44568   0.00000  Uiso   1.00
H758   H     0.53119   0.75886   0.46368   0.00000  Uiso   1.00
H759   H     0.53275   0.78301   0.38504   0.00000  Uiso   1.00
H760   H     0.59502   0.77053   0.36713   0.00000  Uiso   1.00
C761   C     0.62376   0.85369   0.10556   0.00000  Uiso   1.00
C762   C     0.62934   0.89923   0.11813   0.00000  Uiso   1.00
C763   C     0.58148   0.92398   0.12705   0.00000  Uiso   1.00
H764   H     0.54921   0.90373   0.13661   0.00000  Uiso   1.00
H765   H     0.57925   0.94675   0.15474   0.00000  Uiso   1.00
H766   H     0.58007   0.94157   0.09669   0.00000  Uiso   1.00
H767   H     0.64289   0.90112   0.14866   0.00000  Uiso   1.00
H768   H     0.65691   0.91419   0.09032   0.00000  Uiso   1.00
H769   H     0.60291   0.85359   0.08000   0.00000  Uiso   1.00
H770   H     0.60067   0.83654   0.13429   0.00000  Uiso   1.00
C771   C     0.36772   0.88524   0.38506   0.00000  Uiso   1.00
C772   C     0.36581   0.92511   0.35917   0.00000  Uiso   1.00
C773   C     0.41660   0.93800   0.33224   0.00000  Uiso   1.00
H774   H     0.44002   0.94370   0.35522   0.00000  Uiso   1.00
H775   H     0.43371   0.91356   0.30737   0.00000  Uiso   1.00
H776   H     0.41387   0.96682   0.31375   0.00000  Uiso   1.00
H777   H     0.34254   0.92077   0.33593   0.00000  Uiso   1.00
H778   H     0.34922   0.95033   0.38328   0.00000  Uiso   1.00
H779   H     0.38853   0.89087   0.41020   0.00000  Uiso   1.00
H780   H     0.39043   0.86111   0.36351   0.00000  Uiso   1.00
Cl781  Cl    0.65725   0.91921   0.47974   0.00000  Uiso   1.00
Cl782  Cl    0.64472   0.80503   0.01296   0.00000  Uiso   1.00
Cl783  Cl    0.57038   0.95687   0.30728   0.00000  Uiso   1.00
Cl784  Cl    0.43025   0.70919   0.19571   0.00000  Uiso   1.00
O785   O     0.70625   0.77322   0.25000   0.00000  Uiso   1.00
O786   O     0.96042   0.89345   0.25000   0.00000  Uiso   1.00
O787   O     0.96039   0.77321   0.25000   0.00000  Uiso   1.00
O788   O     0.70628   0.89346   0.24999   0.00000  Uiso   1.00
C789   C     0.66710   0.75402   0.24942   0.00000  Uiso   1.00
C790   C     0.99951   0.91260   0.25070   0.00000  Uiso   1.00
O791   O     0.68519   0.83334   0.31491   0.00000  Uiso   1.00
O792   O     0.98148   0.83332   0.18508   0.00000  Uiso   1.00
O793   O     0.93933   0.83333   0.31492   0.00000  Uiso   1.00
O794   O     0.72733   0.83333   0.18508   0.00000  Uiso   1.00
C795   C     0.97289   0.83564   0.33632   0.00000  Uiso   1.00
C796   C     0.69404   0.83208   0.16326   0.00000  Uiso   1.00
Cu797  Cu    0.71355   0.83334   0.25000   0.00000  Uiso   1.00
Cu798  Cu    0.95311   0.83333   0.25000   0.00000  Uiso   1.00
C799   C     0.95785   0.84253   0.38589   0.00000  Uiso   1.00
C800   C     0.70861   0.82902   0.11273   0.00000  Uiso   1.00
C801   C     0.96002   0.88449   0.45180   0.00000  Uiso   1.00
C802   C     0.68815   0.82166   0.04076   0.00000  Uiso   1.00
C803   C     0.98316   0.87022   0.40772   0.00000  Uiso   1.00
C804   C     0.67360   0.83294   0.08702   0.00000  Uiso   1.00
C805   C     0.91298   0.82574   0.41030   0.00000  Uiso   1.00
C806   C     0.75844   0.82242   0.08862   0.00000  Uiso   1.00
C807   C     0.88671   0.84540   0.45114   0.00000  Uiso   1.00
C808   C     0.77187   0.83095   0.04193   0.00000  Uiso   1.00
C809   C     0.91217   0.87221   0.47335   0.00000  Uiso   1.00
C810   C     0.73770   0.82382   0.01726   0.00000  Uiso   1.00
C811   C     0.83656   0.83809   0.47214   0.00000  Uiso   1.00
C812   C     0.81843   0.84520   0.01901   0.00000  Uiso   1.00
C813   C     0.84499   0.86991   0.04111   0.00000  Uiso   1.00
C814   C     0.80287   0.82792   0.44770   0.00000  Uiso   1.00
C815   C     0.88975   0.88516   0.01778   0.00000  Uiso   1.00
C816   C     0.75381   0.82187   0.46988   0.00000  Uiso   1.00
H817   H     0.90728   0.90592   0.03569   0.00000  Uiso   1.00
H818   H     0.72865   0.81694   0.44958   0.00000  Uiso   1.00
H819   H     0.82961   0.88029   0.07556   0.00000  Uiso   1.00
H820   H     0.81282   0.82910   0.41133   0.00000  Uiso   1.00
C821   C     0.95844   0.68935   0.27309   0.00000  Uiso   1.00
C822   C     0.70806   0.97720   0.22834   0.00000  Uiso   1.00
H823   H     0.92648   0.70695   0.29119   0.00000  Uiso   1.00
H824   H     0.74015   0.95964   0.21045   0.00000  Uiso   1.00
C825   C     0.95719   0.97998   0.27438   0.00000  Uiso   1.00
C826   C     0.70941   0.68647   0.22729   0.00000  Uiso   1.00
C827   C     0.99890   0.95716   0.25133   0.00000  Uiso   1.00
C828   C     0.66754   0.70940   0.24965   0.00000  Uiso   1.00
C829   C     0.85171   0.80422   0.27330   0.00000  Uiso   1.00
C830   C     0.81493   0.86254   0.22689   0.00000  Uiso   1.00
H831   H     0.86523   0.78099   0.29208   0.00000  Uiso   1.00
H832   H     0.80139   0.88594   0.20832   0.00000  Uiso   1.00
C833   C     0.80203   0.80431   0.27339   0.00000  Uiso   1.00
C834   C     0.86443   0.86274   0.22734   0.00000  Uiso   1.00
H835   H     0.77808   0.78115   0.29221   0.00000  Uiso   1.00
H836   H     0.88812   0.88652   0.20990   0.00000  Uiso   1.00
N837   N     0.78403   0.83334   0.24999   0.00000  Uiso   1.00
N838   N     0.88264   0.83332   0.25001   0.00000  Uiso   1.00
C839   C     0.79555   0.80184   0.11016   0.00000  Uiso   1.00
C840   C     0.82821   0.76840   0.08033   0.00000  Uiso   1.00
C841   C     0.86683   0.75220   0.10223   0.00000  Uiso   1.00
H842   H     0.89177   0.77739   0.10559   0.00000  Uiso   1.00
H843   H     0.84973   0.73962   0.13610   0.00000  Uiso   1.00
H844   H     0.88862   0.72727   0.08080   0.00000  Uiso   1.00
H845   H     0.80523   0.74239   0.07488   0.00000  Uiso   1.00
H846   H     0.84801   0.78016   0.04691   0.00000  Uiso   1.00
H847   H     0.81814   0.82550   0.12084   0.00000  Uiso   1.00
H848   H     0.77623   0.78474   0.14056   0.00000  Uiso   1.00
C849   C     0.89960   0.78268   0.39654   0.00000  Uiso   1.00
C850   C     0.89575   0.75110   0.43431   0.00000  Uiso   1.00
C851   C     0.88852   0.70754   0.41811   0.00000  Uiso   1.00
H852   H     0.85453   0.70625   0.40700   0.00000  Uiso   1.00
H853   H     0.91998   0.69798   0.38959   0.00000  Uiso   1.00
H854   H     0.88559   0.68553   0.44616   0.00000  Uiso   1.00
H855   H     0.92966   0.75145   0.44568   0.00000  Uiso   1.00
H856   H     0.86452   0.75886   0.46368   0.00000  Uiso   1.00
H857   H     0.86609   0.78301   0.38504   0.00000  Uiso   1.00
H858   H     0.92835   0.77053   0.36713   0.00000  Uiso   1.00
C859   C     0.95709   0.85369   0.10556   0.00000  Uiso   1.00
C860   C     0.96267   0.89923   0.11813   0.00000  Uiso   1.00
C861   C     0.91482   0.92398   0.12705   0.00000  Uiso   1.00
H862   H     0.88254   0.90373   0.13661   0.00000  Uiso   1.00
H863   H     0.91259   0.94675   0.15474   0.00000  Uiso   1.00
H864   H     0.91341   0.94157   0.09669   0.00000  Uiso   1.00
H865   H     0.97622   0.90112   0.14866   0.00000  Uiso   1.00
H866   H     0.99024   0.91419   0.09032   0.00000  Uiso   1.00
H867   H     0.93624   0.85359   0.08000   0.00000  Uiso   1.00
H868   H     0.93401   0.83654   0.13429   0.00000  Uiso   1.00
C869   C     0.70105   0.88524   0.38506   0.00000  Uiso   1.00
C870   C     0.69914   0.92511   0.35917   0.00000  Uiso   1.00
C871   C     0.74993   0.93800   0.33224   0.00000  Uiso   1.00
H872   H     0.77336   0.94370   0.35522   0.00000  Uiso   1.00
H873   H     0.76704   0.91356   0.30737   0.00000  Uiso   1.00
H874   H     0.74720   0.96682   0.31375   0.00000  Uiso   1.00
H875   H     0.67588   0.92077   0.33593   0.00000  Uiso   1.00
H876   H     0.68255   0.95033   0.38328   0.00000  Uiso   1.00
H877   H     0.72187   0.89087   0.41020   0.00000  Uiso   1.00
H878   H     0.72376   0.86111   0.36351   0.00000  Uiso   1.00
Cl879  Cl    0.99059   0.91921   0.47974   0.00000  Uiso   1.00
Cl880  Cl    0.97805   0.80503   0.01296   0.00000  Uiso   1.00
Cl881  Cl    0.90372   0.95687   0.30728   0.00000  Uiso   1.00
Cl882  Cl    0.76358   0.70919   0.19571   0.00000  Uiso   1.00
O883   O     0.03958   0.10655   0.75000   0.00000  Uiso   1.00
O884   O     0.29375   0.22678   0.75000   0.00000  Uiso   1.00
O885   O     0.29372   0.10654   0.75000   0.00000  Uiso   1.00
O886   O     0.03961   0.22679   0.74999   0.00000  Uiso   1.00
C887   C     0.00043   0.08736   0.74942   0.00000  Uiso   1.00
C888   C     0.33284   0.24593   0.75070   0.00000  Uiso   1.00
O889   O     0.01852   0.16668   0.81491   0.00000  Uiso   1.00
O890   O     0.31481   0.16666   0.68508   0.00000  Uiso   1.00
O891   O     0.27267   0.16667   0.81492   0.00000  Uiso   1.00
O892   O     0.06067   0.16667   0.68508   0.00000  Uiso   1.00
C893   C     0.30622   0.16897   0.83632   0.00000  Uiso   1.00
C894   C     0.02737   0.16542   0.66326   0.00000  Uiso   1.00
Cu895  Cu    0.04689   0.16667   0.75000   0.00000  Uiso   1.00
Cu896  Cu    0.28645   0.16666   0.75000   0.00000  Uiso   1.00
C897   C     0.29119   0.17586   0.88589   0.00000  Uiso   1.00
C898   C     0.04194   0.16236   0.61273   0.00000  Uiso   1.00
C899   C     0.29335   0.21782   0.95180   0.00000  Uiso   1.00
C900   C     0.02149   0.15499   0.54076   0.00000  Uiso   1.00
C901   C     0.31649   0.20355   0.90772   0.00000  Uiso   1.00
C902   C     0.00693   0.16627   0.58702   0.00000  Uiso   1.00
C903   C     0.24631   0.15908   0.91030   0.00000  Uiso   1.00
C904   C     0.09177   0.15576   0.58862   0.00000  Uiso   1.00
C905   C     0.22005   0.17874   0.95114   0.00000  Uiso   1.00
C906   C     0.10520   0.16429   0.54193   0.00000  Uiso   1.00
C907   C     0.24550   0.20554   0.97335   0.00000  Uiso   1.00
C908   C     0.07103   0.15716   0.51726   0.00000  Uiso   1.00
C909   C     0.16989   0.17142   0.97214   0.00000  Uiso   1.00
C910   C     0.15176   0.17854   0.51901   0.00000  Uiso   1.00
C911   C     0.17832   0.20324   0.54111   0.00000  Uiso   1.00
C912   C     0.13621   0.16126   0.94770   0.00000  Uiso   1.00
C913   C     0.22308   0.21849   0.51778   0.00000  Uiso   1.00
C914   C     0.08714   0.15520   0.96988   0.00000  Uiso   1.00
H915   H     0.24062   0.23926   0.53569   0.00000  Uiso   1.00
H916   H     0.06198   0.15027   0.94958   0.00000  Uiso   1.00
H917   H     0.16294   0.21362   0.57556   0.00000  Uiso   1.00
H918   H     0.14615   0.16244   0.91133   0.00000  Uiso   1.00
C919   C     0.29178   0.02268   0.77309   0.00000  Uiso   1.00
C920   C     0.04140   0.31054   0.72834   0.00000  Uiso   1.00
H921   H     0.25981   0.04029   0.79119   0.00000  Uiso   1.00
H922   H     0.07348   0.29297   0.71045   0.00000  Uiso   1.00
C923   C     0.29052   0.31331   0.77438   0.00000  Uiso   1.00
C924   C     0.04275   0.01981   0.72729   0.00000  Uiso   1.00
C925   C     0.33224   0.29049   0.75133   0.00000  Uiso   1.00
C926   C     0.00087   0.04274   0.74965   0.00000  Uiso   1.00
C927   C     0.18505   0.13756   0.77330   0.00000  Uiso   1.00
C928   C     0.14826   0.19588   0.72689   0.00000  Uiso   1.00
H929   H     0.19857   0.11433   0.79208   0.00000  Uiso   1.00
H930   H     0.13472   0.21927   0.70832   0.00000  Uiso   1.00
C931   C     0.13536   0.13764   0.77339   0.00000  Uiso   1.00
C932   C     0.19776   0.19607   0.72734   0.00000  Uiso   1.00
H933   H     0.11141   0.11448   0.79221   0.00000  Uiso   1.00
H934   H     0.22145   0.21986   0.70990   0.00000  Uiso   1.00
N935   N     0.11736   0.16668   0.74999   0.00000  Uiso   1.00
N936   N     0.21597   0.16666   0.75001   0.00000  Uiso   1.00
C937   C     0.12889   0.13517   0.61016   0.00000  Uiso   1.00
C938   C     0.16155   0.10173   0.58033   0.00000  Uiso   1.00
C939   C     0.20017   0.08553   0.60223   0.00000  Uiso   1.00
H940   H     0.22511   0.11072   0.60559   0.00000  Uiso   1.00
H941   H     0.18306   0.07295   0.63610   0.00000  Uiso   1.00
H942   H     0.22195   0.06060   0.58080   0.00000  Uiso   1.00
H943   H     0.13856   0.07572   0.57488   0.00000  Uiso   1.00
H944   H     0.18135   0.11349   0.54691   0.00000  Uiso   1.00
H945   H     0.15148   0.15883   0.62084   0.00000  Uiso   1.00
H946   H     0.10956   0.11807   0.64056   0.00000  Uiso   1.00
C947   C     0.23293   0.11601   0.89654   0.00000  Uiso   1.00
C948   C     0.22908   0.08443   0.93431   0.00000  Uiso   1.00
C949   C     0.22186   0.04088   0.91811   0.00000  Uiso   1.00
H950   H     0.18786   0.03958   0.90700   0.00000  Uiso   1.00
H951   H     0.25331   0.03132   0.88959   0.00000  Uiso   1.00
H952   H     0.21893   0.01886   0.94616   0.00000  Uiso   1.00
H953   H     0.26299   0.08478   0.94568   0.00000  Uiso   1.00
H954   H     0.19785   0.09220   0.96368   0.00000  Uiso   1.00
H955   H     0.19942   0.11634   0.88504   0.00000  Uiso   1.00
H956   H     0.26169   0.10387   0.86713   0.00000  Uiso   1.00
C957   C     0.29042   0.18702   0.60556   0.00000  Uiso   1.00
C958   C     0.29601   0.23257   0.61813   0.00000  Uiso   1.00
C959   C     0.24815   0.25731   0.62705   0.00000  Uiso   1.00
H960   H     0.21587   0.23706   0.63661   0.00000  Uiso   1.00
H961   H     0.24592   0.28009   0.65474   0.00000  Uiso   1.00
H962   H     0.24674   0.27490   0.59669   0.00000  Uiso   1.00
H963   H     0.30955   0.23445   0.64866   0.00000  Uiso   1.00
H964   H     0.32357   0.24753   0.59032   0.00000  Uiso   1.00
H965   H     0.26958   0.18692   0.58000   0.00000  Uiso   1.00
H966   H     0.26734   0.16987   0.63429   0.00000  Uiso   1.00
C967   C     0.03439   0.21857   0.88506   0.00000  Uiso   1.00
C968   C     0.03247   0.25845   0.85917   0.00000  Uiso   1.00
C969   C     0.08326   0.27134   0.83224   0.00000  Uiso   1.00
H970   H     0.10669   0.27703   0.85522   0.00000  Uiso   1.00
H971   H     0.10038   0.24689   0.80737   0.00000  Uiso   1.00
H972   H     0.08053   0.30015   0.81375   0.00000  Uiso   1.00
H973   H     0.00921   0.25410   0.83593   0.00000  Uiso   1.00
H974   H     0.01589   0.28366   0.88328   0.00000  Uiso   1.00
H975   H     0.05520   0.22420   0.91020   0.00000  Uiso   1.00
H976   H     0.05709   0.19444   0.86351   0.00000  Uiso   1.00
Cl977  Cl    0.32392   0.25254   0.97974   0.00000  Uiso   1.00
Cl978  Cl    0.31139   0.13837   0.51296   0.00000  Uiso   1.00
Cl979  Cl    0.23705   0.29020   0.80728   0.00000  Uiso   1.00
Cl980  Cl    0.09692   0.04252   0.69571   0.00000  Uiso   1.00
O981   O     0.37291   0.10655   0.75000   0.00000  Uiso   1.00
O982   O     0.62709   0.22678   0.75000   0.00000  Uiso   1.00
O983   O     0.62706   0.10654   0.75000   0.00000  Uiso   1.00
O984   O     0.37294   0.22679   0.74999   0.00000  Uiso   1.00
C985   C     0.33377   0.08736   0.74942   0.00000  Uiso   1.00
C986   C     0.66617   0.24593   0.75070   0.00000  Uiso   1.00
O987   O     0.35186   0.16668   0.81491   0.00000  Uiso   1.00
O988   O     0.64814   0.16666   0.68508   0.00000  Uiso   1.00
O989   O     0.60600   0.16667   0.81492   0.00000  Uiso   1.00
O990   O     0.39400   0.16667   0.68508   0.00000  Uiso   1.00
C991   C     0.63955   0.16897   0.83632   0.00000  Uiso   1.00
C992   C     0.36071   0.16542   0.66326   0.00000  Uiso   1.00
Cu993  Cu    0.38022   0.16667   0.75000   0.00000  Uiso   1.00
Cu994  Cu    0.61978   0.16666   0.75000   0.00000  Uiso   1.00
C995   C     0.62452   0.17586   0.88589   0.00000  Uiso   1.00
C996   C     0.37528   0.16236   0.61273   0.00000  Uiso   1.00
C997   C     0.62669   0.21782   0.95180   0.00000  Uiso   1.00
C998   C     0.35482   0.15499   0.54076   0.00000  Uiso   1.00
C999   C     0.64983   0.20355   0.90772   0.00000  Uiso   1.00
C1000  C     0.34027   0.16627   0.58702   0.00000  Uiso   1.00
C1001  C     0.57964   0.15908   0.91030   0.00000  Uiso   1.00
C1002  C     0.42510   0.15576   0.58862   0.00000  Uiso   1.00
C1003  C     0.55338   0.17874   0.95114   0.00000  Uiso   1.00
C1004  C     0.43854   0.16429   0.54193   0.00000  Uiso   1.00
C1005  C     0.57883   0.20554   0.97335   0.00000  Uiso   1.00
C1006  C     0.40437   0.15716   0.51726   0.00000  Uiso   1.00
C1007  C     0.50323   0.17142   0.97214   0.00000  Uiso   1.00
C1008  C     0.48509   0.17854   0.51901   0.00000  Uiso   1.00
C1009  C     0.51165   0.20324   0.54111   0.00000  Uiso   1.00
C1010  C     0.46954   0.16126   0.94770   0.00000  Uiso   1.00
C1011  C     0.55642   0.21849   0.51778   0.00000  Uiso   1.00
C1012  C     0.42047   0.15520   0.96988   0.00000  Uiso   1.00
H1013  H     0.57395   0.23926   0.53569   0.00000  Uiso   1.00
H1014  H     0.39531   0.15027   0.94958   0.00000  Uiso   1.00
H1015  H     0.49627   0.21362   0.57556   0.00000  Uiso   1.00
H1016  H     0.47949   0.16244   0.91133   0.00000  Uiso   1.00
C1017  C     0.62511   0.02268   0.77309   0.00000  Uiso   1.00
C1018  C     0.37473   0.31054   0.72834   0.00000  Uiso   1.00
H1019  H     0.59315   0.04029   0.79119   0.00000  Uiso   1.00
H1020  H     0.40682   0.29297   0.71045   0.00000  Uiso   1.00
C1021  C     0.62385   0.31331   0.77438   0.00000  Uiso   1.00
C1022  C     0.37608   0.01981   0.72729   0.00000  Uiso   1.00
C1023  C     0.66557   0.29049   0.75133   0.00000  Uiso   1.00
C1024  C     0.33421   0.04274   0.74965   0.00000  Uiso   1.00
C1025  C     0.51838   0.13756   0.77330   0.00000  Uiso   1.00
C1026  C     0.48159   0.19588   0.72689   0.00000  Uiso   1.00
H1027  H     0.53190   0.11433   0.79208   0.00000  Uiso   1.00
H1028  H     0.46806   0.21927   0.70832   0.00000  Uiso   1.00
C1029  C     0.46870   0.13764   0.77339   0.00000  Uiso   1.00
C1030  C     0.53110   0.19607   0.72734   0.00000  Uiso   1.00
H1031  H     0.44475   0.11448   0.79221   0.00000  Uiso   1.00
H1032  H     0.55478   0.21986   0.70990   0.00000  Uiso   1.00
N1033  N     0.45069   0.16668   0.74999   0.00000  Uiso   1.00
N1034  N     0.54931   0.16666   0.75001   0.00000  Uiso   1.00
C1035  C     0.46222   0.13517   0.61016   0.00000  Uiso   1.00
C1036  C     0.49488   0.10173   0.58033   0.00000  Uiso   1.00
C1037  C     0.53350   0.08553   0.60223   0.00000  Uiso   1.00
H1038  H     0.55844   0.11072   0.60559   0.00000  Uiso   1.00
H1039  H     0.51640   0.07295   0.63610   0.00000  Uiso   1.00
H1040  H     0.55528   0.06060   0.58080   0.00000  Uiso   1.00
H1041  H     0.47190   0.07572   0.57488   0.00000  Uiso   1.00
H1042  H     0.51468   0.11349   0.54691   0.00000  Uiso   1.00
H1043  H     0.48481   0.15883   0.62084   0.00000  Uiso   1.00
H1044  H     0.44290   0.11807   0.64056   0.00000  Uiso   1.00
C1045  C     0.56626   0.11601   0.89654   0.00000  Uiso   1.00
C1046  C     0.56242   0.08443   0.93431   0.00000  Uiso   1.00
C1047  C     0.55519   0.04088   0.91811   0.00000  Uiso   1.00
H1048  H     0.52119   0.03958   0.90700   0.00000  Uiso   1.00
H1049  H     0.58664   0.03132   0.88959   0.00000  Uiso   1.00
H1050  H     0.55226   0.01886   0.94616   0.00000  Uiso   1.00
H1051  H     0.59632   0.08478   0.94568   0.00000  Uiso   1.00
H1052  H     0.53119   0.09220   0.96368   0.00000  Uiso   1.00
H1053  H     0.53275   0.11634   0.88504   0.00000  Uiso   1.00
H1054  H     0.59502   0.10387   0.86713   0.00000  Uiso   1.00
C1055  C     0.62376   0.18702   0.60556   0.00000  Uiso   1.00
C1056  C     0.62934   0.23257   0.61813   0.00000  Uiso   1.00
C1057  C     0.58148   0.25731   0.62705   0.00000  Uiso   1.00
H1058  H     0.54921   0.23706   0.63661   0.00000  Uiso   1.00
H1059  H     0.57925   0.28009   0.65474   0.00000  Uiso   1.00
H1060  H     0.58007   0.27490   0.59669   0.00000  Uiso   1.00
H1061  H     0.64289   0.23445   0.64866   0.00000  Uiso   1.00
H1062  H     0.65691   0.24753   0.59032   0.00000  Uiso   1.00
H1063  H     0.60291   0.18692   0.58000   0.00000  Uiso   1.00
H1064  H     0.60067   0.16987   0.63429   0.00000  Uiso   1.00
C1065  C     0.36772   0.21857   0.88506   0.00000  Uiso   1.00
C1066  C     0.36581   0.25845   0.85917   0.00000  Uiso   1.00
C1067  C     0.41660   0.27134   0.83224   0.00000  Uiso   1.00
H1068  H     0.44002   0.27703   0.85522   0.00000  Uiso   1.00
H1069  H     0.43371   0.24689   0.80737   0.00000  Uiso   1.00
H1070  H     0.41387   0.30015   0.81375   0.00000  Uiso   1.00
H1071  H     0.34254   0.25410   0.83593   0.00000  Uiso   1.00
H1072  H     0.34922   0.28366   0.88328   0.00000  Uiso   1.00
H1073  H     0.38853   0.22420   0.91020   0.00000  Uiso   1.00
H1074  H     0.39043   0.19444   0.86351   0.00000  Uiso   1.00
Cl1075 Cl    0.65725   0.25254   0.97974   0.00000  Uiso   1.00
Cl1076 Cl    0.64472   0.13837   0.51296   0.00000  Uiso   1.00
Cl1077 Cl    0.57038   0.29020   0.80728   0.00000  Uiso   1.00
Cl1078 Cl    0.43025   0.04252   0.69571   0.00000  Uiso   1.00
O1079  O     0.70625   0.10655   0.75000   0.00000  Uiso   1.00
O1080  O     0.96042   0.22678   0.75000   0.00000  Uiso   1.00
O1081  O     0.96039   0.10654   0.75000   0.00000  Uiso   1.00
O1082  O     0.70628   0.22679   0.74999   0.00000  Uiso   1.00
C1083  C     0.66710   0.08736   0.74942   0.00000  Uiso   1.00
C1084  C     0.99951   0.24593   0.75070   0.00000  Uiso   1.00
O1085  O     0.68519   0.16668   0.81491   0.00000  Uiso   1.00
O1086  O     0.98148   0.16666   0.68508   0.00000  Uiso   1.00
O1087  O     0.93933   0.16667   0.81492   0.00000  Uiso   1.00
O1088  O     0.72733   0.16667   0.68508   0.00000  Uiso   1.00
C1089  C     0.97289   0.16897   0.83632   0.00000  Uiso   1.00
C1090  C     0.69404   0.16542   0.66326   0.00000  Uiso   1.00
Cu1091 Cu    0.71355   0.16667   0.75000   0.00000  Uiso   1.00
Cu1092 Cu    0.95311   0.16666   0.75000   0.00000  Uiso   1.00
C1093  C     0.95785   0.17586   0.88589   0.00000  Uiso   1.00
C1094  C     0.70861   0.16236   0.61273   0.00000  Uiso   1.00
C1095  C     0.96002   0.21782   0.95180   0.00000  Uiso   1.00
C1096  C     0.68815   0.15499   0.54076   0.00000  Uiso   1.00
C1097  C     0.98316   0.20355   0.90772   0.00000  Uiso   1.00
C1098  C     0.67360   0.16627   0.58702   0.00000  Uiso   1.00
C1099  C     0.91298   0.15908   0.91030   0.00000  Uiso   1.00
C1100  C     0.75844   0.15576   0.58862   0.00000  Uiso   1.00
C1101  C     0.88671   0.17874   0.95114   0.00000  Uiso   1.00
C1102  C     0.77187   0.16429   0.54193   0.00000  Uiso   1.00
C1103  C     0.91217   0.20554   0.97335   0.00000  Uiso   1.00
C1104  C     0.73770   0.15716   0.51726   0.00000  Uiso   1.00
C1105  C     0.83656   0.17142   0.97214   0.00000  Uiso   1.00
C1106  C     0.81843   0.17854   0.51901   0.00000  Uiso   1.00
C1107  C     0.84499   0.20324   0.54111   0.00000  Uiso   1.00
C1108  C     0.80287   0.16126   0.94770   0.00000  Uiso   1.00
C1109  C     0.88975   0.21849   0.51778   0.00000  Uiso   1.00
C1110  C     0.75381   0.15520   0.96988   0.00000  Uiso   1.00
H1111  H     0.90728   0.23926   0.53569   0.00000  Uiso   1.00
H1112  H     0.72865   0.15027   0.94958   0.00000  Uiso   1.00
H1113  H     0.82961   0.21362   0.57556   0.00000  Uiso   1.00
H1114  H     0.81282   0.16244   0.91133   0.00000  Uiso   1.00
C1115  C     0.95844   0.02268   0.77309   0.00000  Uiso   1.00
C1116  C     0.70806   0.31054   0.72834   0.00000  Uiso   1.00
H1117  H     0.92648   0.04029   0.79119   0.00000  Uiso   1.00
H1118  H     0.74015   0.29297   0.71045   0.00000  Uiso   1.00
C1119  C     0.95719   0.31331   0.77438   0.00000  Uiso   1.00
C1120  C     0.70941   0.01981   0.72729   0.00000  Uiso   1.00
C1121  C     0.99890   0.29049   0.75133   0.00000  Uiso   1.00
C1122  C     0.66754   0.04274   0.74965   0.00000  Uiso   1.00
C1123  C     0.85171   0.13756   0.77330   0.00000  Uiso   1.00
C1124  C     0.81493   0.19588   0.72689   0.00000  Uiso   1.00
H1125  H     0.86523   0.11433   0.79208   0.00000  Uiso   1.00
H1126  H     0.80139   0.21927   0.70832   0.00000  Uiso   1.00
C1127  C     0.80203   0.13764   0.77339   0.00000  Uiso   1.00
C1128  C     0.86443   0.19607   0.72734   0.00000  Uiso   1.00
H1129  H     0.77808   0.11448   0.79221   0.00000  Uiso   1.00
H1130  H     0.88812   0.21986   0.70990   0.00000  Uiso   1.00
N1131  N     0.78403   0.16668   0.74999   0.00000  Uiso   1.00
N1132  N     0.88264   0.16666   0.75001   0.00000  Uiso   1.00
C1133  C     0.79555   0.13517   0.61016   0.00000  Uiso   1.00
C1134  C     0.82821   0.10173   0.58033   0.00000  Uiso   1.00
C1135  C     0.86683   0.08553   0.60223   0.00000  Uiso   1.00
H1136  H     0.89177   0.11072   0.60559   0.00000  Uiso   1.00
H1137  H     0.84973   0.07295   0.63610   0.00000  Uiso   1.00
H1138  H     0.88862   0.06060   0.58080   0.00000  Uiso   1.00
H1139  H     0.80523   0.07572   0.57488   0.00000  Uiso   1.00
H1140  H     0.84801   0.11349   0.54691   0.00000  Uiso   1.00
H1141  H     0.81814   0.15883   0.62084   0.00000  Uiso   1.00
H1142  H     0.77623   0.11807   0.64056   0.00000  Uiso   1.00
C1143  C     0.89960   0.11601   0.89654   0.00000  Uiso   1.00
C1144  C     0.89575   0.08443   0.93431   0.00000  Uiso   1.00
C1145  C     0.88852   0.04088   0.91811   0.00000  Uiso   1.00
H1146  H     0.85453   0.03958   0.90700   0.00000  Uiso   1.00
H1147  H     0.91998   0.03132   0.88959   0.00000  Uiso   1.00
H1148  H     0.88559   0.01886   0.94616   0.00000  Uiso   1.00
H1149  H     0.92966   0.08478   0.94568   0.00000  Uiso   1.00
H1150  H     0.86452   0.09220   0.96368   0.00000  Uiso   1.00
H1151  H     0.86609   0.11634   0.88504   0.00000  Uiso   1.00
H1152  H     0.92835   0.10387   0.86713   0.00000  Uiso   1.00
C1153  C     0.95709   0.18702   0.60556   0.00000  Uiso   1.00
C1154  C     0.96267   0.23257   0.61813   0.00000  Uiso   1.00
C1155  C     0.91482   0.25731   0.62705   0.00000  Uiso   1.00
H1156  H     0.88254   0.23706   0.63661   0.00000  Uiso   1.00
H1157  H     0.91259   0.28009   0.65474   0.00000  Uiso   1.00
H1158  H     0.91341   0.27490   0.59669   0.00000  Uiso   1.00
H1159  H     0.97622   0.23445   0.64866   0.00000  Uiso   1.00
H1160  H     0.99024   0.24753   0.59032   0.00000  Uiso   1.00
H1161  H     0.93624   0.18692   0.58000   0.00000  Uiso   1.00
H1162  H     0.93401   0.16987   0.63429   0.00000  Uiso   1.00
C1163  C     0.70105   0.21857   0.88506   0.00000  Uiso   1.00
C1164  C     0.69914   0.25845   0.85917   0.00000  Uiso   1.00
C1165  C     0.74993   0.27134   0.83224   0.00000  Uiso   1.00
H1166  H     0.77336   0.27703   0.85522   0.00000  Uiso   1.00
H1167  H     0.76704   0.24689   0.80737   0.00000  Uiso   1.00
H1168  H     0.74720   0.30015   0.81375   0.00000  Uiso   1.00
H1169  H     0.67588   0.25410   0.83593   0.00000  Uiso   1.00
H1170  H     0.68255   0.28366   0.88328   0.00000  Uiso   1.00
H1171  H     0.72187   0.22420   0.91020   0.00000  Uiso   1.00
H1172  H     0.72376   0.19444   0.86351   0.00000  Uiso   1.00
Cl1173 Cl    0.99059   0.25254   0.97974   0.00000  Uiso   1.00
Cl1174 Cl    0.97805   0.13837   0.51296   0.00000  Uiso   1.00
Cl1175 Cl    0.90372   0.29020   0.80728   0.00000  Uiso   1.00
Cl1176 Cl    0.76358   0.04252   0.69571   0.00000  Uiso   1.00
O1177  O     0.03958   0.43989   0.75000   0.00000  Uiso   1.00
O1178  O     0.29375   0.56011   0.75000   0.00000  Uiso   1.00
O1179  O     0.29372   0.43988   0.75000   0.00000  Uiso   1.00
O1180  O     0.03961   0.56012   0.74999   0.00000  Uiso   1.00
C1181  C     0.00043   0.42069   0.74942   0.00000  Uiso   1.00
C1182  C     0.33284   0.57926   0.75070   0.00000  Uiso   1.00
O1183  O     0.01852   0.50001   0.81491   0.00000  Uiso   1.00
O1184  O     0.31481   0.49999   0.68508   0.00000  Uiso   1.00
O1185  O     0.27267   0.50000   0.81492   0.00000  Uiso   1.00
O1186  O     0.06067   0.50000   0.68508   0.00000  Uiso   1.00
C1187  C     0.30622   0.50231   0.83632   0.00000  Uiso   1.00
C1188  C     0.02737   0.49875   0.66326   0.00000  Uiso   1.00
Cu1189 Cu    0.04689   0.50001   0.75000   0.00000  Uiso   1.00
Cu1190 Cu    0.28645   0.49999   0.75000   0.00000  Uiso   1.00
C1191  C     0.29119   0.50919   0.88589   0.00000  Uiso   1.00
C1192  C     0.04194   0.49569   0.61273   0.00000  Uiso   1.00
C1193  C     0.29335   0.55115   0.95180   0.00000  Uiso   1.00
C1194  C     0.02149   0.48833   0.54076   0.00000  Uiso   1.00
C1195  C     0.31649   0.53689   0.90772   0.00000  Uiso   1.00
C1196  C     0.00693   0.49961   0.58702   0.00000  Uiso   1.00
C1197  C     0.24631   0.49241   0.91030   0.00000  Uiso   1.00
C1198  C     0.09177   0.48909   0.58862   0.00000  Uiso   1.00
C1199  C     0.22005   0.51207   0.95114   0.00000  Uiso   1.00
C1200  C     0.10520   0.49762   0.54193   0.00000  Uiso   1.00
C1201  C     0.24550   0.53888   0.97335   0.00000  Uiso   1.00
C1202  C     0.07103   0.49049   0.51726   0.00000  Uiso   1.00
C1203  C     0.16989   0.50475   0.97214   0.00000  Uiso   1.00
C1204  C     0.15176   0.51187   0.51901   0.00000  Uiso   1.00
C1205  C     0.17832   0.53658   0.54111   0.00000  Uiso   1.00
C1206  C     0.13621   0.49459   0.94770   0.00000  Uiso   1.00
C1207  C     0.22308   0.55182   0.51778   0.00000  Uiso   1.00
C1208  C     0.08714   0.48853   0.96988   0.00000  Uiso   1.00
H1209  H     0.24062   0.57259   0.53569   0.00000  Uiso   1.00
H1210  H     0.06198   0.48360   0.94958   0.00000  Uiso   1.00
H1211  H     0.16294   0.54696   0.57556   0.00000  Uiso   1.00
H1212  H     0.14615   0.49577   0.91133   0.00000  Uiso   1.00
C1213  C     0.29178   0.35601   0.77309   0.00000  Uiso   1.00
C1214  C     0.04140   0.64387   0.72834   0.00000  Uiso   1.00
H1215  H     0.25981   0.37362   0.79119   0.00000  Uiso   1.00
H1216  H     0.07348   0.62631   0.71045   0.00000  Uiso   1.00
C1217  C     0.29052   0.64664   0.77438   0.00000  Uiso   1.00
C1218  C     0.04275   0.35314   0.72729   0.00000  Uiso   1.00
C1219  C     0.33224   0.62382   0.75133   0.00000  Uiso   1.00
C1220  C     0.00087   0.37607   0.74965   0.00000  Uiso   1.00
C1221  C     0.18505   0.47089   0.77330   0.00000  Uiso   1.00
C1222  C     0.14826   0.52921   0.72689   0.00000  Uiso   1.00
H1223  H     0.19857   0.44766   0.79208   0.00000  Uiso   1.00
H1224  H     0.13472   0.55260   0.70832   0.00000  Uiso   1.00
C1225  C     0.13536   0.47097   0.77339   0.00000  Uiso   1.00
C1226  C     0.19776   0.52940   0.72734   0.00000  Uiso   1.00
H1227  H     0.11141   0.44782   0.79221   0.00000  Uiso   1.00
H1228  H     0.22145   0.55319   0.70990   0.00000  Uiso   1.00
N1229  N     0.11736   0.50001   0.74999   0.00000  Uiso   1.00
N1230  N     0.21597   0.49999   0.75001   0.00000  Uiso   1.00
C1231  C     0.12889   0.46851   0.61016   0.00000  Uiso   1.00
C1232  C     0.16155   0.43506   0.58033   0.00000  Uiso   1.00
C1233  C     0.20017   0.41886   0.60223   0.00000  Uiso   1.00
H1234  H     0.22511   0.44406   0.60559   0.00000  Uiso   1.00
H1235  H     0.18306   0.40628   0.63610   0.00000  Uiso   1.00
H1236  H     0.22195   0.39394   0.58080   0.00000  Uiso   1.00
H1237  H     0.13856   0.40905   0.57488   0.00000  Uiso   1.00
H1238  H     0.18135   0.44682   0.54691   0.00000  Uiso   1.00
H1239  H     0.15148   0.49217   0.62084   0.00000  Uiso   1.00
H1240  H     0.10956   0.45141   0.64056   0.00000  Uiso   1.00
C1241  C     0.23293   0.44935   0.89654   0.00000  Uiso   1.00
C1242  C     0.22908   0.41777   0.93431   0.00000  Uiso   1.00
C1243  C     0.22186   0.37421   0.91811   0.00000  Uiso   1.00
H1244  H     0.18786   0.37292   0.90700   0.00000  Uiso   1.00
H1245  H     0.25331   0.36465   0.88959   0.00000  Uiso   1.00
H1246  H     0.21893   0.35219   0.94616   0.00000  Uiso   1.00
H1247  H     0.26299   0.41812   0.94568   0.00000  Uiso   1.00
H1248  H     0.19785   0.42553   0.96368   0.00000  Uiso   1.00
H1249  H     0.19942   0.44967   0.88504   0.00000  Uiso   1.00
H1250  H     0.26169   0.43720   0.86713   0.00000  Uiso   1.00
C1251  C     0.29042   0.52035   0.60556   0.00000  Uiso   1.00
C1252  C     0.29601   0.56590   0.61813   0.00000  Uiso   1.00
C1253  C     0.24815   0.59065   0.62705   0.00000  Uiso   1.00
H1254  H     0.21587   0.57040   0.63661   0.00000  Uiso   1.00
H1255  H     0.24592   0.61342   0.65474   0.00000  Uiso   1.00
H1256  H     0.24674   0.60823   0.59669   0.00000  Uiso   1.00
H1257  H     0.30955   0.56779   0.64866   0.00000  Uiso   1.00
H1258  H     0.32357   0.58086   0.59032   0.00000  Uiso   1.00
H1259  H     0.26958   0.52025   0.58000   0.00000  Uiso   1.00
H1260  H     0.26734   0.50320   0.63429   0.00000  Uiso   1.00
C1261  C     0.03439   0.55190   0.88506   0.00000  Uiso   1.00
C1262  C     0.03247   0.59178   0.85917   0.00000  Uiso   1.00
C1263  C     0.08326   0.60467   0.83224   0.00000  Uiso   1.00
H1264  H     0.10669   0.61037   0.85522   0.00000  Uiso   1.00
H1265  H     0.10038   0.58023   0.80737   0.00000  Uiso   1.00
H1266  H     0.08053   0.63348   0.81375   0.00000  Uiso   1.00
H1267  H     0.00921   0.58744   0.83593   0.00000  Uiso   1.00
H1268  H     0.01589   0.61700   0.88328   0.00000  Uiso   1.00
H1269  H     0.05520   0.55753   0.91020   0.00000  Uiso   1.00
H1270  H     0.05709   0.52778   0.86351   0.00000  Uiso   1.00
Cl1271 Cl    0.32392   0.58588   0.97974   0.00000  Uiso   1.00
Cl1272 Cl    0.31139   0.47170   0.51296   0.00000  Uiso   1.00
Cl1273 Cl    0.23705   0.62353   0.80728   0.00000  Uiso   1.00
Cl1274 Cl    0.09692   0.37586   0.69571   0.00000  Uiso   1.00
O1275  O     0.37291   0.43989   0.75000   0.00000  Uiso   1.00
O1276  O     0.62709   0.56011   0.75000   0.00000  Uiso   1.00
O1277  O     0.62706   0.43988   0.75000   0.00000  Uiso   1.00
O1278  O     0.37294   0.56012   0.74999   0.00000  Uiso   1.00
C1279  C     0.33377   0.42069   0.74942   0.00000  Uiso   1.00
C1280  C     0.66617   0.57926   0.75070   0.00000  Uiso   1.00
O1281  O     0.35186   0.50001   0.81491   0.00000  Uiso   1.00
O1282  O     0.64814   0.49999   0.68508   0.00000  Uiso   1.00
O1283  O     0.60600   0.50000   0.81492   0.00000  Uiso   1.00
O1284  O     0.39400   0.50000   0.68508   0.00000  Uiso   1.00
C1285  C     0.63955   0.50231   0.83632   0.00000  Uiso   1.00
C1286  C     0.36071   0.49875   0.66326   0.00000  Uiso   1.00
Cu1287 Cu    0.38022   0.50001   0.75000   0.00000  Uiso   1.00
Cu1288 Cu    0.61978   0.49999   0.75000   0.00000  Uiso   1.00
C1289  C     0.62452   0.50919   0.88589   0.00000  Uiso   1.00
C1290  C     0.37528   0.49569   0.61273   0.00000  Uiso   1.00
C1291  C     0.62669   0.55115   0.95180   0.00000  Uiso   1.00
C1292  C     0.35482   0.48833   0.54076   0.00000  Uiso   1.00
C1293  C     0.64983   0.53689   0.90772   0.00000  Uiso   1.00
C1294  C     0.34027   0.49961   0.58702   0.00000  Uiso   1.00
C1295  C     0.57964   0.49241   0.91030   0.00000  Uiso   1.00
C1296  C     0.42510   0.48909   0.58862   0.00000  Uiso   1.00
C1297  C     0.55338   0.51207   0.95114   0.00000  Uiso   1.00
C1298  C     0.43854   0.49762   0.54193   0.00000  Uiso   1.00
C1299  C     0.57883   0.53888   0.97335   0.00000  Uiso   1.00
C1300  C     0.40437   0.49049   0.51726   0.00000  Uiso   1.00
C1301  C     0.50323   0.50475   0.97214   0.00000  Uiso   1.00
C1302  C     0.48509   0.51187   0.51901   0.00000  Uiso   1.00
C1303  C     0.51165   0.53658   0.54111   0.00000  Uiso   1.00
C1304  C     0.46954   0.49459   0.94770   0.00000  Uiso   1.00
C1305  C     0.55642   0.55182   0.51778   0.00000  Uiso   1.00
C1306  C     0.42047   0.48853   0.96988   0.00000  Uiso   1.00
H1307  H     0.57395   0.57259   0.53569   0.00000  Uiso   1.00
H1308  H     0.39531   0.48360   0.94958   0.00000  Uiso   1.00
H1309  H     0.49627   0.54696   0.57556   0.00000  Uiso   1.00
H1310  H     0.47949   0.49577   0.91133   0.00000  Uiso   1.00
C1311  C     0.62511   0.35601   0.77309   0.00000  Uiso   1.00
C1312  C     0.37473   0.64387   0.72834   0.00000  Uiso   1.00
H1313  H     0.59315   0.37362   0.79119   0.00000  Uiso   1.00
H1314  H     0.40682   0.62631   0.71045   0.00000  Uiso   1.00
C1315  C     0.62385   0.64664   0.77438   0.00000  Uiso   1.00
C1316  C     0.37608   0.35314   0.72729   0.00000  Uiso   1.00
C1317  C     0.66557   0.62382   0.75133   0.00000  Uiso   1.00
C1318  C     0.33421   0.37607   0.74965   0.00000  Uiso   1.00
C1319  C     0.51838   0.47089   0.77330   0.00000  Uiso   1.00
C1320  C     0.48159   0.52921   0.72689   0.00000  Uiso   1.00
H1321  H     0.53190   0.44766   0.79208   0.00000  Uiso   1.00
H1322  H     0.46806   0.55260   0.70832   0.00000  Uiso   1.00
C1323  C     0.46870   0.47097   0.77339   0.00000  Uiso   1.00
C1324  C     0.53110   0.52940   0.72734   0.00000  Uiso   1.00
H1325  H     0.44475   0.44782   0.79221   0.00000  Uiso   1.00
H1326  H     0.55478   0.55319   0.70990   0.00000  Uiso   1.00
N1327  N     0.45069   0.50001   0.74999   0.00000  Uiso   1.00
N1328  N     0.54931   0.49999   0.75001   0.00000  Uiso   1.00
C1329  C     0.46222   0.46851   0.61016   0.00000  Uiso   1.00
C1330  C     0.49488   0.43506   0.58033   0.00000  Uiso   1.00
C1331  C     0.53350   0.41886   0.60223   0.00000  Uiso   1.00
H1332  H     0.55844   0.44406   0.60559   0.00000  Uiso   1.00
H1333  H     0.51640   0.40628   0.63610   0.00000  Uiso   1.00
H1334  H     0.55528   0.39394   0.58080   0.00000  Uiso   1.00
H1335  H     0.47190   0.40905   0.57488   0.00000  Uiso   1.00
H1336  H     0.51468   0.44682   0.54691   0.00000  Uiso   1.00
H1337  H     0.48481   0.49217   0.62084   0.00000  Uiso   1.00
H1338  H     0.44290   0.45141   0.64056   0.00000  Uiso   1.00
C1339  C     0.56626   0.44935   0.89654   0.00000  Uiso   1.00
C1340  C     0.56242   0.41777   0.93431   0.00000  Uiso   1.00
C1341  C     0.55519   0.37421   0.91811   0.00000  Uiso   1.00
H1342  H     0.52119   0.37292   0.90700   0.00000  Uiso   1.00
H1343  H     0.58664   0.36465   0.88959   0.00000  Uiso   1.00
H1344  H     0.55226   0.35219   0.94616   0.00000  Uiso   1.00
H1345  H     0.59632   0.41812   0.94568   0.00000  Uiso   1.00
H1346  H     0.53119   0.42553   0.96368   0.00000  Uiso   1.00
H1347  H     0.53275   0.44967   0.88504   0.00000  Uiso   1.00
H1348  H     0.59502   0.43720   0.86713   0.00000  Uiso   1.00
C1349  C     0.62376   0.52035   0.60556   0.00000  Uiso   1.00
C1350  C     0.62934   0.56590   0.61813   0.00000  Uiso   1.00
C1351  C     0.58148   0.59065   0.62705   0.00000  Uiso   1.00
H1352  H     0.54921   0.57040   0.63661   0.00000  Uiso   1.00
H1353  H     0.57925   0.61342   0.65474   0.00000  Uiso   1.00
H1354  H     0.58007   0.60823   0.59669   0.00000  Uiso   1.00
H1355  H     0.64289   0.56779   0.64866   0.00000  Uiso   1.00
H1356  H     0.65691   0.58086   0.59032   0.00000  Uiso   1.00
H1357  H     0.60291   0.52025   0.58000   0.00000  Uiso   1.00
H1358  H     0.60067   0.50320   0.63429   0.00000  Uiso   1.00
C1359  C     0.36772   0.55190   0.88506   0.00000  Uiso   1.00
C1360  C     0.36581   0.59178   0.85917   0.00000  Uiso   1.00
C1361  C     0.41660   0.60467   0.83224   0.00000  Uiso   1.00
H1362  H     0.44002   0.61037   0.85522   0.00000  Uiso   1.00
H1363  H     0.43371   0.58023   0.80737   0.00000  Uiso   1.00
H1364  H     0.41387   0.63348   0.81375   0.00000  Uiso   1.00
H1365  H     0.34254   0.58744   0.83593   0.00000  Uiso   1.00
H1366  H     0.34922   0.61700   0.88328   0.00000  Uiso   1.00
H1367  H     0.38853   0.55753   0.91020   0.00000  Uiso   1.00
H1368  H     0.39043   0.52778   0.86351   0.00000  Uiso   1.00
Cl1369 Cl    0.65725   0.58588   0.97974   0.00000  Uiso   1.00
Cl1370 Cl    0.64472   0.47170   0.51296   0.00000  Uiso   1.00
Cl1371 Cl    0.57038   0.62353   0.80728   0.00000  Uiso   1.00
Cl1372 Cl    0.43025   0.37586   0.69571   0.00000  Uiso   1.00
O1373  O     0.70625   0.43989   0.75000   0.00000  Uiso   1.00
O1374  O     0.96042   0.56011   0.75000   0.00000  Uiso   1.00
O1375  O     0.96039   0.43988   0.75000   0.00000  Uiso   1.00
O1376  O     0.70628   0.56012   0.74999   0.00000  Uiso   1.00
C1377  C     0.66710   0.42069   0.74942   0.00000  Uiso   1.00
C1378  C     0.99951   0.57926   0.75070   0.00000  Uiso   1.00
O1379  O     0.68519   0.50001   0.81491   0.00000  Uiso   1.00
O1380  O     0.98148   0.49999   0.68508   0.00000  Uiso   1.00
O1381  O     0.93933   0.50000   0.81492   0.00000  Uiso   1.00
O1382  O     0.72733   0.50000   0.68508   0.00000  Uiso   1.00
C1383  C     0.97289   0.50231   0.83632   0.00000  Uiso   1.00
C1384  C     0.69404   0.49875   0.66326   0.00000  Uiso   1.00
Cu1385 Cu    0.71355   0.50001   0.75000   0.00000  Uiso   1.00
Cu1386 Cu    0.95311   0.49999   0.75000   0.00000  Uiso   1.00
C1387  C     0.95785   0.50919   0.88589   0.00000  Uiso   1.00
C1388  C     0.70861   0.49569   0.61273   0.00000  Uiso   1.00
C1389  C     0.96002   0.55115   0.95180   0.00000  Uiso   1.00
C1390  C     0.68815   0.48833   0.54076   0.00000  Uiso   1.00
C1391  C     0.98316   0.53689   0.90772   0.00000  Uiso   1.00
C1392  C     0.67360   0.49961   0.58702   0.00000  Uiso   1.00
C1393  C     0.91298   0.49241   0.91030   0.00000  Uiso   1.00
C1394  C     0.75844   0.48909   0.58862   0.00000  Uiso   1.00
C1395  C     0.88671   0.51207   0.95114   0.00000  Uiso   1.00
C1396  C     0.77187   0.49762   0.54193   0.00000  Uiso   1.00
C1397  C     0.91217   0.53888   0.97335   0.00000  Uiso   1.00
C1398  C     0.73770   0.49049   0.51726   0.00000  Uiso   1.00
C1399  C     0.83656   0.50475   0.97214   0.00000  Uiso   1.00
C1400  C     0.81843   0.51187   0.51901   0.00000  Uiso   1.00
C1401  C     0.84499   0.53658   0.54111   0.00000  Uiso   1.00
C1402  C     0.80287   0.49459   0.94770   0.00000  Uiso   1.00
C1403  C     0.88975   0.55182   0.51778   0.00000  Uiso   1.00
C1404  C     0.75381   0.48853   0.96988   0.00000  Uiso   1.00
H1405  H     0.90728   0.57259   0.53569   0.00000  Uiso   1.00
H1406  H     0.72865   0.48360   0.94958   0.00000  Uiso   1.00
H1407  H     0.82961   0.54696   0.57556   0.00000  Uiso   1.00
H1408  H     0.81282   0.49577   0.91133   0.00000  Uiso   1.00
C1409  C     0.95844   0.35601   0.77309   0.00000  Uiso   1.00
C1410  C     0.70806   0.64387   0.72834   0.00000  Uiso   1.00
H1411  H     0.92648   0.37362   0.79119   0.00000  Uiso   1.00
H1412  H     0.74015   0.62631   0.71045   0.00000  Uiso   1.00
C1413  C     0.95719   0.64664   0.77438   0.00000  Uiso   1.00
C1414  C     0.70941   0.35314   0.72729   0.00000  Uiso   1.00
C1415  C     0.99890   0.62382   0.75133   0.00000  Uiso   1.00
C1416  C     0.66754   0.37607   0.74965   0.00000  Uiso   1.00
C1417  C     0.85171   0.47089   0.77330   0.00000  Uiso   1.00
C1418  C     0.81493   0.52921   0.72689   0.00000  Uiso   1.00
H1419  H     0.86523   0.44766   0.79208   0.00000  Uiso   1.00
H1420  H     0.80139   0.55260   0.70832   0.00000  Uiso   1.00
C1421  C     0.80203   0.47097   0.77339   0.00000  Uiso   1.00
C1422  C     0.86443   0.52940   0.72734   0.00000  Uiso   1.00
H1423  H     0.77808   0.44782   0.79221   0.00000  Uiso   1.00
H1424  H     0.88812   0.55319   0.70990   0.00000  Uiso   1.00
N1425  N     0.78403   0.50001   0.74999   0.00000  Uiso   1.00
N1426  N     0.88264   0.49999   0.75001   0.00000  Uiso   1.00
C1427  C     0.79555   0.46851   0.61016   0.00000  Uiso   1.00
C1428  C     0.82821   0.43506   0.58033   0.00000  Uiso   1.00
C1429  C     0.86683   0.41886   0.60223   0.00000  Uiso   1.00
H1430  H     0.89177   0.44406   0.60559   0.00000  Uiso   1.00
H1431  H     0.84973   0.40628   0.63610   0.00000  Uiso   1.00
H1432  H     0.88862   0.39394   0.58080   0.00000  Uiso   1.00
H1433  H     0.80523   0.40905   0.57488   0.00000  Uiso   1.00
H1434  H     0.84801   0.44682   0.54691   0.00000  Uiso   1.00
H1435  H     0.81814   0.49217   0.62084   0.00000  Uiso   1.00
H1436  H     0.77623   0.45141   0.64056   0.00000  Uiso   1.00
C1437  C     0.89960   0.44935   0.89654   0.00000  Uiso   1.00
C1438  C     0.89575   0.41777   0.93431   0.00000  Uiso   1.00
C1439  C     0.88852   0.37421   0.91811   0.00000  Uiso   1.00
H1440  H     0.85453   0.37292   0.90700   0.00000  Uiso   1.00
H1441  H     0.91998   0.36465   0.88959   0.00000  Uiso   1.00
H1442  H     0.88559   0.35219   0.94616   0.00000  Uiso   1.00
H1443  H     0.92966   0.41812   0.94568   0.00000  Uiso   1.00
H1444  H     0.86452   0.42553   0.96368   0.00000  Uiso   1.00
H1445  H     0.86609   0.44967   0.88504   0.00000  Uiso   1.00
H1446  H     0.92835   0.43720   0.86713   0.00000  Uiso   1.00
C1447  C     0.95709   0.52035   0.60556   0.00000  Uiso   1.00
C1448  C     0.96267   0.56590   0.61813   0.00000  Uiso   1.00
C1449  C     0.91482   0.59065   0.62705   0.00000  Uiso   1.00
H1450  H     0.88254   0.57040   0.63661   0.00000  Uiso   1.00
H1451  H     0.91259   0.61342   0.65474   0.00000  Uiso   1.00
H1452  H     0.91341   0.60823   0.59669   0.00000  Uiso   1.00
H1453  H     0.97622   0.56779   0.64866   0.00000  Uiso   1.00
H1454  H     0.99024   0.58086   0.59032   0.00000  Uiso   1.00
H1455  H     0.93624   0.52025   0.58000   0.00000  Uiso   1.00
H1456  H     0.93401   0.50320   0.63429   0.00000  Uiso   1.00
C1457  C     0.70105   0.55190   0.88506   0.00000  Uiso   1.00
C1458  C     0.69914   0.59178   0.85917   0.00000  Uiso   1.00
C1459  C     0.74993   0.60467   0.83224   0.00000  Uiso   1.00
H1460  H     0.77336   0.61037   0.85522   0.00000  Uiso   1.00
H1461  H     0.76704   0.58023   0.80737   0.00000  Uiso   1.00
H1462  H     0.74720   0.63348   0.81375   0.00000  Uiso   1.00
H1463  H     0.67588   0.58744   0.83593   0.00000  Uiso   1.00
H1464  H     0.68255   0.61700   0.88328   0.00000  Uiso   1.00
H1465  H     0.72187   0.55753   0.91020   0.00000  Uiso   1.00
H1466  H     0.72376   0.52778   0.86351   0.00000  Uiso   1.00
Cl1467 Cl    0.99059   0.58588   0.97974   0.00000  Uiso   1.00
Cl1468 Cl    0.97805   0.47170   0.51296   0.00000  Uiso   1.00
Cl1469 Cl    0.90372   0.62353   0.80728   0.00000  Uiso   1.00
Cl1470 Cl    0.76358   0.37586   0.69571   0.00000  Uiso   1.00
O1471  O     0.03958   0.77322   0.75000   0.00000  Uiso   1.00
O1472  O     0.29375   0.89345   0.75000   0.00000  Uiso   1.00
O1473  O     0.29372   0.77321   0.75000   0.00000  Uiso   1.00
O1474  O     0.03961   0.89346   0.74999   0.00000  Uiso   1.00
C1475  C     0.00043   0.75402   0.74942   0.00000  Uiso   1.00
C1476  C     0.33284   0.91260   0.75070   0.00000  Uiso   1.00
O1477  O     0.01852   0.83334   0.81491   0.00000  Uiso   1.00
O1478  O     0.31481   0.83332   0.68508   0.00000  Uiso   1.00
O1479  O     0.27267   0.83333   0.81492   0.00000  Uiso   1.00
O1480  O     0.06067   0.83333   0.68508   0.00000  Uiso   1.00
C1481  C     0.30622   0.83564   0.83632   0.00000  Uiso   1.00
C1482  C     0.02737   0.83208   0.66326   0.00000  Uiso   1.00
Cu1483 Cu    0.04689   0.83334   0.75000   0.00000  Uiso   1.00
Cu1484 Cu    0.28645   0.83333   0.75000   0.00000  Uiso   1.00
C1485  C     0.29119   0.84253   0.88589   0.00000  Uiso   1.00
C1486  C     0.04194   0.82902   0.61273   0.00000  Uiso   1.00
C1487  C     0.29335   0.88449   0.95180   0.00000  Uiso   1.00
C1488  C     0.02149   0.82166   0.54076   0.00000  Uiso   1.00
C1489  C     0.31649   0.87022   0.90772   0.00000  Uiso   1.00
C1490  C     0.00693   0.83294   0.58702   0.00000  Uiso   1.00
C1491  C     0.24631   0.82574   0.91030   0.00000  Uiso   1.00
C1492  C     0.09177   0.82242   0.58862   0.00000  Uiso   1.00
C1493  C     0.22005   0.84540   0.95114   0.00000  Uiso   1.00
C1494  C     0.10520   0.83095   0.54193   0.00000  Uiso   1.00
C1495  C     0.24550   0.87221   0.97335   0.00000  Uiso   1.00
C1496  C     0.07103   0.82382   0.51726   0.00000  Uiso   1.00
C1497  C     0.16989   0.83809   0.97214   0.00000  Uiso   1.00
C1498  C     0.15176   0.84520   0.51901   0.00000  Uiso   1.00
C1499  C     0.17832   0.86991   0.54111   0.00000  Uiso   1.00
C1500  C     0.13621   0.82792   0.94770   0.00000  Uiso   1.00
C1501  C     0.22308   0.88516   0.51778   0.00000  Uiso   1.00
C1502  C     0.08714   0.82187   0.96988   0.00000  Uiso   1.00
H1503  H     0.24062   0.90592   0.53569   0.00000  Uiso   1.00
H1504  H     0.06198   0.81694   0.94958   0.00000  Uiso   1.00
H1505  H     0.16294   0.88029   0.57556   0.00000  Uiso   1.00
H1506  H     0.14615   0.82910   0.91133   0.00000  Uiso   1.00
C1507  C     0.29178   0.68935   0.77309   0.00000  Uiso   1.00
C1508  C     0.04140   0.97720   0.72834   0.00000  Uiso   1.00
H1509  H     0.25981   0.70695   0.79119   0.00000  Uiso   1.00
H1510  H     0.07348   0.95964   0.71045   0.00000  Uiso   1.00
C1511  C     0.29052   0.97998   0.77438   0.00000  Uiso   1.00
C1512  C     0.04275   0.68647   0.72729   0.00000  Uiso   1.00
C1513  C     0.33224   0.95716   0.75133   0.00000  Uiso   1.00
C1514  C     0.00087   0.70940   0.74965   0.00000  Uiso   1.00
C1515  C     0.18505   0.80422   0.77330   0.00000  Uiso   1.00
C1516  C     0.14826   0.86254   0.72689   0.00000  Uiso   1.00
H1517  H     0.19857   0.78099   0.79208   0.00000  Uiso   1.00
H1518  H     0.13472   0.88594   0.70832   0.00000  Uiso   1.00
C1519  C     0.13536   0.80431   0.77339   0.00000  Uiso   1.00
C1520  C     0.19776   0.86274   0.72734   0.00000  Uiso   1.00
H1521  H     0.11141   0.78115   0.79221   0.00000  Uiso   1.00
H1522  H     0.22145   0.88652   0.70990   0.00000  Uiso   1.00
N1523  N     0.11736   0.83334   0.74999   0.00000  Uiso   1.00
N1524  N     0.21597   0.83332   0.75001   0.00000  Uiso   1.00
C1525  C     0.12889   0.80184   0.61016   0.00000  Uiso   1.00
C1526  C     0.16155   0.76840   0.58033   0.00000  Uiso   1.00
C1527  C     0.20017   0.75220   0.60223   0.00000  Uiso   1.00
H1528  H     0.22511   0.77739   0.60559   0.00000  Uiso   1.00
H1529  H     0.18306   0.73962   0.63610   0.00000  Uiso   1.00
H1530  H     0.22195   0.72727   0.58080   0.00000  Uiso   1.00
H1531  H     0.13856   0.74239   0.57488   0.00000  Uiso   1.00
H1532  H     0.18135   0.78016   0.54691   0.00000  Uiso   1.00
H1533  H     0.15148   0.82550   0.62084   0.00000  Uiso   1.00
H1534  H     0.10956   0.78474   0.64056   0.00000  Uiso   1.00
C1535  C     0.23293   0.78268   0.89654   0.00000  Uiso   1.00
C1536  C     0.22908   0.75110   0.93431   0.00000  Uiso   1.00
C1537  C     0.22186   0.70754   0.91811   0.00000  Uiso   1.00
H1538  H     0.18786   0.70625   0.90700   0.00000  Uiso   1.00
H1539  H     0.25331   0.69798   0.88959   0.00000  Uiso   1.00
H1540  H     0.21893   0.68553   0.94616   0.00000  Uiso   1.00
H1541  H     0.26299   0.75145   0.94568   0.00000  Uiso   1.00
H1542  H     0.19785   0.75886   0.96368   0.00000  Uiso   1.00
H1543  H     0.19942   0.78301   0.88504   0.00000  Uiso   1.00
H1544  H     0.26169   0.77053   0.86713   0.00000  Uiso   1.00
C1545  C     0.29042   0.85369   0.60556   0.00000  Uiso   1.00
C1546  C     0.29601   0.89923   0.61813   0.00000  Uiso   1.00
C1547  C     0.24815   0.92398   0.62705   0.00000  Uiso   1.00
H1548  H     0.21587   0.90373   0.63661   0.00000  Uiso   1.00
H1549  H     0.24592   0.94675   0.65474   0.00000  Uiso   1.00
H1550  H     0.24674   0.94157   0.59669   0.00000  Uiso   1.00
H1551  H     0.30955   0.90112   0.64866   0.00000  Uiso   1.00
H1552  H     0.32357   0.91419   0.59032   0.00000  Uiso   1.00
H1553  H     0.26958   0.85359   0.58000   0.00000  Uiso   1.00
H1554  H     0.26734   0.83654   0.63429   0.00000  Uiso   1.00
C1555  C     0.03439   0.88524   0.88506   0.00000  Uiso   1.00
C1556  C     0.03247   0.92511   0.85917   0.00000  Uiso   1.00
C1557  C     0.08326   0.93800   0.83224   0.00000  Uiso   1.00
H1558  H     0.10669   0.94370   0.85522   0.00000  Uiso   1.00
H1559  H     0.10038   0.91356   0.80737   0.00000  Uiso   1.00
H1560  H     0.08053   0.96682   0.81375   0.00000  Uiso   1.00
H1561  H     0.00921   0.92077   0.83593   0.00000  Uiso   1.00
H1562  H     0.01589   0.95033   0.88328   0.00000  Uiso   1.00
H1563  H     0.05520   0.89087   0.91020   0.00000  Uiso   1.00
H1564  H     0.05709   0.86111   0.86351   0.00000  Uiso   1.00
Cl1565 Cl    0.32392   0.91921   0.97974   0.00000  Uiso   1.00
Cl1566 Cl    0.31139   0.80503   0.51296   0.00000  Uiso   1.00
Cl1567 Cl    0.23705   0.95687   0.80728   0.00000  Uiso   1.00
Cl1568 Cl    0.09692   0.70919   0.69571   0.00000  Uiso   1.00
O1569  O     0.37291   0.77322   0.75000   0.00000  Uiso   1.00
O1570  O     0.62709   0.89345   0.75000   0.00000  Uiso   1.00
O1571  O     0.62706   0.77321   0.75000   0.00000  Uiso   1.00
O1572  O     0.37294   0.89346   0.74999   0.00000  Uiso   1.00
C1573  C     0.33377   0.75402   0.74942   0.00000  Uiso   1.00
C1574  C     0.66617   0.91260   0.75070   0.00000  Uiso   1.00
O1575  O     0.35186   0.83334   0.81491   0.00000  Uiso   1.00
O1576  O     0.64814   0.83332   0.68508   0.00000  Uiso   1.00
O1577  O     0.60600   0.83333   0.81492   0.00000  Uiso   1.00
O1578  O     0.39400   0.83333   0.68508   0.00000  Uiso   1.00
C1579  C     0.63955   0.83564   0.83632   0.00000  Uiso   1.00
C1580  C     0.36071   0.83208   0.66326   0.00000  Uiso   1.00
Cu1581 Cu    0.38022   0.83334   0.75000   0.00000  Uiso   1.00
Cu1582 Cu    0.61978   0.83333   0.75000   0.00000  Uiso   1.00
C1583  C     0.62452   0.84253   0.88589   0.00000  Uiso   1.00
C1584  C     0.37528   0.82902   0.61273   0.00000  Uiso   1.00
C1585  C     0.62669   0.88449   0.95180   0.00000  Uiso   1.00
C1586  C     0.35482   0.82166   0.54076   0.00000  Uiso   1.00
C1587  C     0.64983   0.87022   0.90772   0.00000  Uiso   1.00
C1588  C     0.34027   0.83294   0.58702   0.00000  Uiso   1.00
C1589  C     0.57964   0.82574   0.91030   0.00000  Uiso   1.00
C1590  C     0.42510   0.82242   0.58862   0.00000  Uiso   1.00
C1591  C     0.55338   0.84540   0.95114   0.00000  Uiso   1.00
C1592  C     0.43854   0.83095   0.54193   0.00000  Uiso   1.00
C1593  C     0.57883   0.87221   0.97335   0.00000  Uiso   1.00
C1594  C     0.40437   0.82382   0.51726   0.00000  Uiso   1.00
C1595  C     0.50323   0.83809   0.97214   0.00000  Uiso   1.00
C1596  C     0.48509   0.84520   0.51901   0.00000  Uiso   1.00
C1597  C     0.51165   0.86991   0.54111   0.00000  Uiso   1.00
C1598  C     0.46954   0.82792   0.94770   0.00000  Uiso   1.00
C1599  C     0.55642   0.88516   0.51778   0.00000  Uiso   1.00
C1600  C     0.42047   0.82187   0.96988   0.00000  Uiso   1.00
H1601  H     0.57395   0.90592   0.53569   0.00000  Uiso   1.00
H1602  H     0.39531   0.81694   0.94958   0.00000  Uiso   1.00
H1603  H     0.49627   0.88029   0.57556   0.00000  Uiso   1.00
H1604  H     0.47949   0.82910   0.91133   0.00000  Uiso   1.00
C1605  C     0.62511   0.68935   0.77309   0.00000  Uiso   1.00
C1606  C     0.37473   0.97720   0.72834   0.00000  Uiso   1.00
H1607  H     0.59315   0.70695   0.79119   0.00000  Uiso   1.00
H1608  H     0.40682   0.95964   0.71045   0.00000  Uiso   1.00
C1609  C     0.62385   0.97998   0.77438   0.00000  Uiso   1.00
C1610  C     0.37608   0.68647   0.72729   0.00000  Uiso   1.00
C1611  C     0.66557   0.95716   0.75133   0.00000  Uiso   1.00
C1612  C     0.33421   0.70940   0.74965   0.00000  Uiso   1.00
C1613  C     0.51838   0.80422   0.77330   0.00000  Uiso   1.00
C1614  C     0.48159   0.86254   0.72689   0.00000  Uiso   1.00
H1615  H     0.53190   0.78099   0.79208   0.00000  Uiso   1.00
H1616  H     0.46806   0.88594   0.70832   0.00000  Uiso   1.00
C1617  C     0.46870   0.80431   0.77339   0.00000  Uiso   1.00
C1618  C     0.53110   0.86274   0.72734   0.00000  Uiso   1.00
H1619  H     0.44475   0.78115   0.79221   0.00000  Uiso   1.00
H1620  H     0.55478   0.88652   0.70990   0.00000  Uiso   1.00
N1621  N     0.45069   0.83334   0.74999   0.00000  Uiso   1.00
N1622  N     0.54931   0.83332   0.75001   0.00000  Uiso   1.00
C1623  C     0.46222   0.80184   0.61016   0.00000  Uiso   1.00
C1624  C     0.49488   0.76840   0.58033   0.00000  Uiso   1.00
C1625  C     0.53350   0.75220   0.60223   0.00000  Uiso   1.00
H1626  H     0.55844   0.77739   0.60559   0.00000  Uiso   1.00
H1627  H     0.51640   0.73962   0.63610   0.00000  Uiso   1.00
H1628  H     0.55528   0.72727   0.58080   0.00000  Uiso   1.00
H1629  H     0.47190   0.74239   0.57488   0.00000  Uiso   1.00
H1630  H     0.51468   0.78016   0.54691   0.00000  Uiso   1.00
H1631  H     0.48481   0.82550   0.62084   0.00000  Uiso   1.00
H1632  H     0.44290   0.78474   0.64056   0.00000  Uiso   1.00
C1633  C     0.56626   0.78268   0.89654   0.00000  Uiso   1.00
C1634  C     0.56242   0.75110   0.93431   0.00000  Uiso   1.00
C1635  C     0.55519   0.70754   0.91811   0.00000  Uiso   1.00
H1636  H     0.52119   0.70625   0.90700   0.00000  Uiso   1.00
H1637  H     0.58664   0.69798   0.88959   0.00000  Uiso   1.00
H1638  H     0.55226   0.68553   0.94616   0.00000  Uiso   1.00
H1639  H     0.59632   0.75145   0.94568   0.00000  Uiso   1.00
H1640  H     0.53119   0.75886   0.96368   0.00000  Uiso   1.00
H1641  H     0.53275   0.78301   0.88504   0.00000  Uiso   1.00
H1642  H     0.59502   0.77053   0.86713   0.00000  Uiso   1.00
C1643  C     0.62376   0.85369   0.60556   0.00000  Uiso   1.00
C1644  C     0.62934   0.89923   0.61813   0.00000  Uiso   1.00
C1645  C     0.58148   0.92398   0.62705   0.00000  Uiso   1.00
H1646  H     0.54921   0.90373   0.63661   0.00000  Uiso   1.00
H1647  H     0.57925   0.94675   0.65474   0.00000  Uiso   1.00
H1648  H     0.58007   0.94157   0.59669   0.00000  Uiso   1.00
H1649  H     0.64289   0.90112   0.64866   0.00000  Uiso   1.00
H1650  H     0.65691   0.91419   0.59032   0.00000  Uiso   1.00
H1651  H     0.60291   0.85359   0.58000   0.00000  Uiso   1.00
H1652  H     0.60067   0.83654   0.63429   0.00000  Uiso   1.00
C1653  C     0.36772   0.88524   0.88506   0.00000  Uiso   1.00
C1654  C     0.36581   0.92511   0.85917   0.00000  Uiso   1.00
C1655  C     0.41660   0.93800   0.83224   0.00000  Uiso   1.00
H1656  H     0.44002   0.94370   0.85522   0.00000  Uiso   1.00
H1657  H     0.43371   0.91356   0.80737   0.00000  Uiso   1.00
H1658  H     0.41387   0.96682   0.81375   0.00000  Uiso   1.00
H1659  H     0.34254   0.92077   0.83593   0.00000  Uiso   1.00
H1660  H     0.34922   0.95033   0.88328   0.00000  Uiso   1.00
H1661  H     0.38853   0.89087   0.91020   0.00000  Uiso   1.00
H1662  H     0.39043   0.86111   0.86351   0.00000  Uiso   1.00
Cl1663 Cl    0.65725   0.91921   0.97974   0.00000  Uiso   1.00
Cl1664 Cl    0.64472   0.80503   0.51296   0.00000  Uiso   1.00
Cl1665 Cl    0.57038   0.95687   0.80728   0.00000  Uiso   1.00
Cl1666 Cl    0.43025   0.70919   0.69571   0.00000  Uiso   1.00
O1667  O     0.70625   0.77322   0.75000   0.00000  Uiso   1.00
O1668  O     0.96042   0.89345   0.75000   0.00000  Uiso   1.00
O1669  O     0.96039   0.77321   0.75000   0.00000  Uiso   1.00
O1670  O     0.70628   0.89346   0.74999   0.00000  Uiso   1.00
C1671  C     0.66710   0.75402   0.74942   0.00000  Uiso   1.00
C1672  C     0.99951   0.91260   0.75070   0.00000  Uiso   1.00
O1673  O     0.68519   0.83334   0.81491   0.00000  Uiso   1.00
O1674  O     0.98148   0.83332   0.68508   0.00000  Uiso   1.00
O1675  O     0.93933   0.83333   0.81492   0.00000  Uiso   1.00
O1676  O     0.72733   0.83333   0.68508   0.00000  Uiso   1.00
C1677  C     0.97289   0.83564   0.83632   0.00000  Uiso   1.00
C1678  C     0.69404   0.83208   0.66326   0.00000  Uiso   1.00
Cu1679 Cu    0.71355   0.83334   0.75000   0.00000  Uiso   1.00
Cu1680 Cu    0.95311   0.83333   0.75000   0.00000  Uiso   1.00
C1681  C     0.95785   0.84253   0.88589   0.00000  Uiso   1.00
C1682  C     0.70861   0.82902   0.61273   0.00000  Uiso   1.00
C1683  C     0.96002   0.88449   0.95180   0.00000  Uiso   1.00
C1684  C     0.68815   0.82166   0.54076   0.00000  Uiso   1.00
C1685  C     0.98316   0.87022   0.90772   0.00000  Uiso   1.00
C1686  C     0.67360   0.83294   0.58702   0.00000  Uiso   1.00
C1687  C     0.91298   0.82574   0.91030   0.00000  Uiso   1.00
C1688  C     0.75844   0.82242   0.58862   0.00000  Uiso   1.00
C1689  C     0.88671   0.84540   0.95114   0.00000  Uiso   1.00
C1690  C     0.77187   0.83095   0.54193   0.00000  Uiso   1.00
C1691  C     0.91217   0.87221   0.97335   0.00000  Uiso   1.00
C1692  C     0.73770   0.82382   0.51726   0.00000  Uiso   1.00
C1693  C     0.83656   0.83809   0.97214   0.00000  Uiso   1.00
C1694  C     0.81843   0.84520   0.51901   0.00000  Uiso   1.00
C1695  C     0.84499   0.86991   0.54111   0.00000  Uiso   1.00
C1696  C     0.80287   0.82792   0.94770   0.00000  Uiso   1.00
C1697  C     0.88975   0.88516   0.51778   0.00000  Uiso   1.00
C1698  C     0.75381   0.82187   0.96988   0.00000  Uiso   1.00
H1699  H     0.90728   0.90592   0.53569   0.00000  Uiso   1.00
H1700  H     0.72865   0.81694   0.94958   0.00000  Uiso   1.00
H1701  H     0.82961   0.88029   0.57556   0.00000  Uiso   1.00
H1702  H     0.81282   0.82910   0.91133   0.00000  Uiso   1.00
C1703  C     0.95844   0.68935   0.77309   0.00000  Uiso   1.00
C1704  C     0.70806   0.97720   0.72834   0.00000  Uiso   1.00
H1705  H     0.92648   0.70695   0.79119   0.00000  Uiso   1.00
H1706  H     0.74015   0.95964   0.71045   0.00000  Uiso   1.00
C1707  C     0.95719   0.97998   0.77438   0.00000  Uiso   1.00
C1708  C     0.70941   0.68647   0.72729   0.00000  Uiso   1.00
C1709  C     0.99890   0.95716   0.75133   0.00000  Uiso   1.00
C1710  C     0.66754   0.70940   0.74965   0.00000  Uiso   1.00
C1711  C     0.85171   0.80422   0.77330   0.00000  Uiso   1.00
C1712  C     0.81493   0.86254   0.72689   0.00000  Uiso   1.00
H1713  H     0.86523   0.78099   0.79208   0.00000  Uiso   1.00
H1714  H     0.80139   0.88594   0.70832   0.00000  Uiso   1.00
C1715  C     0.80203   0.80431   0.77339   0.00000  Uiso   1.00
C1716  C     0.86443   0.86274   0.72734   0.00000  Uiso   1.00
H1717  H     0.77808   0.78115   0.79221   0.00000  Uiso   1.00
H1718  H     0.88812   0.88652   0.70990   0.00000  Uiso   1.00
N1719  N     0.78403   0.83334   0.74999   0.00000  Uiso   1.00
N1720  N     0.88264   0.83332   0.75001   0.00000  Uiso   1.00
C1721  C     0.79555   0.80184   0.61016   0.00000  Uiso   1.00
C1722  C     0.82821   0.76840   0.58033   0.00000  Uiso   1.00
C1723  C     0.86683   0.75220   0.60223   0.00000  Uiso   1.00
H1724  H     0.89177   0.77739   0.60559   0.00000  Uiso   1.00
H1725  H     0.84973   0.73962   0.63610   0.00000  Uiso   1.00
H1726  H     0.88862   0.72727   0.58080   0.00000  Uiso   1.00
H1727  H     0.80523   0.74239   0.57488   0.00000  Uiso   1.00
H1728  H     0.84801   0.78016   0.54691   0.00000  Uiso   1.00
H1729  H     0.81814   0.82550   0.62084   0.00000  Uiso   1.00
H1730  H     0.77623   0.78474   0.64056   0.00000  Uiso   1.00
C1731  C     0.89960   0.78268   0.89654   0.00000  Uiso   1.00
C1732  C     0.89575   0.75110   0.93431   0.00000  Uiso   1.00
C1733  C     0.88852   0.70754   0.91811   0.00000  Uiso   1.00
H1734  H     0.85453   0.70625   0.90700   0.00000  Uiso   1.00
H1735  H     0.91998   0.69798   0.88959   0.00000  Uiso   1.00
H1736  H     0.88559   0.68553   0.94616   0.00000  Uiso   1.00
H1737  H     0.92966   0.75145   0.94568   0.00000  Uiso   1.00
H1738  H     0.86452   0.75886   0.96368   0.00000  Uiso   1.00
H1739  H     0.86609   0.78301   0.88504   0.00000  Uiso   1.00
H1740  H     0.92835   0.77053   0.86713   0.00000  Uiso   1.00
C1741  C     0.95709   0.85369   0.60556   0.00000  Uiso   1.00
C1742  C     0.96267   0.89923   0.61813   0.00000  Uiso   1.00
C1743  C     0.91482   0.92398   0.62705   0.00000  Uiso   1.00
H1744  H     0.88254   0.90373   0.63661   0.00000  Uiso   1.00
H1745  H     0.91259   0.94675   0.65474   0.00000  Uiso   1.00
H1746  H     0.91341   0.94157   0.59669   0.00000  Uiso   1.00
H1747  H     0.97622   0.90112   0.64866   0.00000  Uiso   1.00
H1748  H     0.99024   0.91419   0.59032   0.00000  Uiso   1.00
H1749  H     0.93624   0.85359   0.58000   0.00000  Uiso   1.00
H1750  H     0.93401   0.83654   0.63429   0.00000  Uiso   1.00
C1751  C     0.70105   0.88524   0.88506   0.00000  Uiso   1.00
C1752  C     0.69914   0.92511   0.85917   0.00000  Uiso   1.00
C1753  C     0.74993   0.93800   0.83224   0.00000  Uiso   1.00
H1754  H     0.77336   0.94370   0.85522   0.00000  Uiso   1.00
H1755  H     0.76704   0.91356   0.80737   0.00000  Uiso   1.00
H1756  H     0.74720   0.96682   0.81375   0.00000  Uiso   1.00
H1757  H     0.67588   0.92077   0.83593   0.00000  Uiso   1.00
H1758  H     0.68255   0.95033   0.88328   0.00000  Uiso   1.00
H1759  H     0.72187   0.89087   0.91020   0.00000  Uiso   1.00
H1760  H     0.72376   0.86111   0.86351   0.00000  Uiso   1.00
Cl1761 Cl    0.99059   0.91921   0.97974   0.00000  Uiso   1.00
Cl1762 Cl    0.97805   0.80503   0.51296   0.00000  Uiso   1.00
Cl1763 Cl    0.90372   0.95687   0.80728   0.00000  Uiso   1.00
Cl1764 Cl    0.76358   0.70919   0.69571   0.00000  Uiso   1.00
loop_
_geom_bond_atom_site_label_1
_geom_bond_atom_site_label_2
_geom_bond_distance
_geom_bond_site_symmetry_2
_ccdc_geom_bond_type
O1     C5      1.287   .     A
O1     Cu13    1.962   .     S
O2     C6      1.286   .     A
O2     Cu14    1.962   .     S
O3     Cu14    1.957   .     S
O3     C103    1.289   .     S
O4     Cu13    1.957   .     S
O4     C202    1.289   1_455 S
C5     C44     1.446   .     S
C5     O199    1.289   1_455 S
C6     C43     1.444   .     S
C6     O102    1.289   .     S
O7     Cu13    1.943   .     S
O7     C207    1.291   1_455 S
O8     Cu14    1.943   .     S
O8     C110    1.299   .     S
O9     Cu14    1.929   .     S
O9     C11     1.301   .     A
O10    C12     1.302   .     A
O10    Cu13    1.929   .     S
C11    C15     1.484   .     S
C11    O105    1.291   .     S
C12    C16     1.500   .     S
C12    O204    1.299   1_455 S
Cu13   N53     2.008   .     S
Cu13   Cu210   2.671   1_455 S
Cu14   N54     2.008   .     S
Cu14   Cu111   2.671   .     S
C15    C19     1.428   .     A
C15    C21     1.414   .     A
C16    C20     1.435   .     A
C16    C22     1.427   .     A
C17    Cl95    1.781   .     S
C17    C25     1.409   .     A
C17    C19     1.411   .     A
C18    C26     1.405   .     A
C18    C20     1.415   .     A
C18    Cl292   1.769   1_455 S
C19    C183    1.525   .     S
C20    C271    1.527   1_455 S
C21    C23     1.420   .     A
C21    C65     1.537   .     S
C22    C55     1.540   .     S
C22    C24     1.414   .     A
C23    C27     1.424   .     A
C23    C25     1.421   .     A
C24    C26     1.406   .     A
C24    C28     1.409   .     A
C25    C913    1.403   .     S
C26    C914    1.406   1_554 S
C27    C30     1.409   .     A
C27    C910    1.411   .     S
C28    C29     1.399   .     A
C28    C909    1.411   1_554 S
C29    H35     1.082   .     S
C29    C31     1.383   .     A
C30    C32     1.398   .     A
C30    H36     1.079   .     S
C31    H33     1.075   .     S
C31    C907    1.403   1_554 S
C32    H34     1.082   .     S
C32    C908    1.406   .     S
C37    H39     1.084   .     S
C37    C629    1.386   1_545 S
C37    C142    1.400   .     S
C38    H40     1.084   .     S
C38    C336    1.382   .     S
C38    C239    1.397   1_455 S
C41    Cl97    1.765   .     S
C41    C43     1.408   .     A
C41    C331    1.386   .     S
C42    Cl98    1.760   .     S
C42    C44     1.407   .     A
C42    C626    1.382   1_545 S
C43    C136    1.397   .     S
C44    C233    1.400   1_455 S
C45    H47     1.082   .     S
C45    C49     1.415   .     A
C45    N54     1.367   .     A
C46    H48     1.082   .     S
C46    C50     1.414   .     A
C46    N53     1.367   .     A
C49    H51     1.082   .     S
C49    N53     1.366   .     A
C50    N54     1.364   .     A
C50    H52     1.077   .     S
C55    C56     1.545   .     S
C55    H63     1.109   .     S
C55    H64     1.106   .     S
C56    C57     1.527   .     S
C56    H62     1.105   .     S
C56    H61     1.112   .     S
C57    H59     1.108   .     S
C57    H60     1.111   .     S
C57    H58     1.110   .     S
C65    H73     1.104   .     S
C65    H74     1.111   .     S
C65    C66     1.538   .     S
C66    H72     1.109   .     S
C66    C67     1.528   .     S
C66    H71     1.112   .     S
C67    H68     1.111   .     S
C67    H69     1.112   .     S
C67    H70     1.111   .     S
C75    C76     1.544   .     S
C75    H84     1.107   .     S
C75    H83     1.106   .     S
C75    C118    1.527   .     S
C76    C77     1.533   .     S
C76    H82     1.113   .     S
C76    H81     1.109   .     S
C77    H78     1.111   .     S
C77    H79     1.111   .     S
C77    H80     1.108   .     S
C85    H93     1.109   .     S
C85    C86     1.532   .     S
C85    H94     1.104   .     S
C85    C215    1.525   1_455 S
C86    H91     1.107   .     S
C86    C87     1.526   .     S
C86    H92     1.111   .     S
C87    H88     1.111   .     S
C87    H89     1.110   .     S
C87    H90     1.110   .     S
Cl96   C116    1.769   .     S
O99    C103    1.287   .     A
O99    Cu111   1.962   .     S
O100   C104    1.286   .     A
O100   Cu112   1.962   .     S
O101   Cu112   1.957   .     S
O101   C201    1.289   .     S
O102   Cu111   1.957   .     S
C103   C142    1.446   .     S
C104   C141    1.444   .     S
C104   O200    1.289   .     S
O105   Cu111   1.943   .     S
O106   Cu112   1.943   .     S
O106   C208    1.299   .     S
O107   Cu112   1.929   .     S
O107   C109    1.301   .     A
O108   C110    1.302   .     A
O108   Cu111   1.929   .     S
C109   C113    1.484   .     S
C109   O203    1.291   .     S
C110   C114    1.500   .     S
Cu111  N151    2.008   .     S
Cu112  N152    2.008   .     S
Cu112  Cu209   2.671   .     S
C113   C117    1.428   .     A
C113   C119    1.414   .     A
C114   C118    1.435   .     A
C114   C120    1.427   .     A
C115   Cl193   1.781   .     S
C115   C123    1.409   .     A
C115   C117    1.411   .     A
C116   C124    1.405   .     A
C116   C118    1.415   .     A
C117   C281    1.525   .     S
C119   C121    1.420   .     A
C119   C163    1.537   .     S
C120   C153    1.540   .     S
C120   C122    1.414   .     A
C121   C125    1.424   .     A
C121   C123    1.421   .     A
C122   C124    1.406   .     A
C122   C126    1.409   .     A
C123   C1011   1.403   .     S
C124   C1012   1.406   1_554 S
C125   C128    1.409   .     A
C125   C1008   1.411   .     S
C126   C127    1.399   .     A
C126   C1007   1.411   1_554 S
C127   H133    1.082   .     S
C127   C129    1.383   .     A
C128   C130    1.398   .     A
C128   H134    1.079   .     S
C129   H131    1.075   .     S
C129   C1005   1.403   1_554 S
C130   H132    1.082   .     S
C130   C1006   1.406   .     S
C135   H137    1.084   .     S
C135   C727    1.386   1_545 S
C135   C240    1.400   .     S
C136   H138    1.084   .     S
C136   C434    1.382   .     S
C139   Cl195   1.765   .     S
C139   C141    1.408   .     A
C139   C429    1.386   .     S
C140   Cl196   1.760   .     S
C140   C142    1.407   .     A
C140   C724    1.382   1_545 S
C141   C234    1.397   .     S
C143   H145    1.082   .     S
C143   C147    1.415   .     A
C143   N152    1.367   .     A
C144   H146    1.082   .     S
C144   C148    1.414   .     A
C144   N151    1.367   .     A
C147   H149    1.082   .     S
C147   N151    1.366   .     A
C148   N152    1.364   .     A
C148   H150    1.077   .     S
C153   C154    1.545   .     S
C153   H161    1.109   .     S
C153   H162    1.106   .     S
C154   C155    1.527   .     S
C154   H160    1.105   .     S
C154   H159    1.112   .     S
C155   H157    1.108   .     S
C155   H158    1.111   .     S
C155   H156    1.110   .     S
C163   H171    1.104   .     S
C163   H172    1.111   .     S
C163   C164    1.538   .     S
C164   H170    1.109   .     S
C164   C165    1.528   .     S
C164   H169    1.112   .     S
C165   H166    1.111   .     S
C165   H167    1.112   .     S
C165   H168    1.111   .     S
C173   C174    1.544   .     S
C173   H182    1.107   .     S
C173   H181    1.106   .     S
C173   C216    1.527   .     S
C174   C175    1.533   .     S
C174   H180    1.113   .     S
C174   H179    1.109   .     S
C175   H176    1.111   .     S
C175   H177    1.111   .     S
C175   H178    1.108   .     S
C183   H191    1.109   .     S
C183   C184    1.532   .     S
C183   H192    1.104   .     S
C184   H189    1.107   .     S
C184   C185    1.526   .     S
C184   H190    1.111   .     S
C185   H186    1.111   .     S
C185   H187    1.110   .     S
C185   H188    1.110   .     S
Cl194  C214    1.769   .     S
O197   C201    1.287   .     A
O197   Cu209   1.962   .     S
O198   C202    1.286   .     A
O198   Cu210   1.962   .     S
O199   Cu210   1.957   .     S
O199   C5      1.289   1_655 S
O200   Cu209   1.957   .     S
C201   C240    1.446   .     S
C202   C239    1.444   .     S
C202   O4      1.289   1_655 S
O203   Cu209   1.943   .     S
O204   Cu210   1.943   .     S
O204   C12     1.299   1_655 S
O205   Cu210   1.929   .     S
O205   C207    1.301   .     A
O206   C208    1.302   .     A
O206   Cu209   1.929   .     S
C207   C211    1.484   .     S
C207   O7      1.291   1_655 S
C208   C212    1.500   .     S
Cu209  N249    2.008   .     S
Cu210  N250    2.008   .     S
Cu210  Cu13    2.671   1_655 S
C211   C215    1.428   .     A
C211   C217    1.414   .     A
C212   C216    1.435   .     A
C212   C218    1.427   .     A
C213   Cl291   1.781   .     S
C213   C221    1.409   .     A
C213   C215    1.411   .     A
C214   C222    1.405   .     A
C214   C216    1.415   .     A
C215   C85     1.525   1_655 S
C217   C219    1.420   .     A
C217   C261    1.537   .     S
C218   C251    1.540   .     S
C218   C220    1.414   .     A
C219   C223    1.424   .     A
C219   C221    1.421   .     A
C220   C222    1.406   .     A
C220   C224    1.409   .     A
C221   C1109   1.403   .     S
C222   C1110   1.406   1_554 S
C223   C226    1.409   .     A
C223   C1106   1.411   .     S
C224   C225    1.399   .     A
C224   C1105   1.411   1_554 S
C225   H231    1.082   .     S
C225   C227    1.383   .     A
C226   C228    1.398   .     A
C226   H232    1.079   .     S
C227   H229    1.075   .     S
C227   C1103   1.403   1_554 S
C228   H230    1.082   .     S
C228   C1104   1.406   .     S
C233   H235    1.084   .     S
C233   C825    1.386   1_545 S
C233   C44     1.400   1_655 S
C234   H236    1.084   .     S
C234   C532    1.382   .     S
C237   Cl293   1.765   .     S
C237   C239    1.408   .     A
C237   C527    1.386   .     S
C238   Cl294   1.760   .     S
C238   C240    1.407   .     A
C238   C822    1.382   1_545 S
C239   C38     1.397   1_655 S
C241   H243    1.082   .     S
C241   C245    1.415   .     A
C241   N250    1.367   .     A
C242   H244    1.082   .     S
C242   C246    1.414   .     A
C242   N249    1.367   .     A
C245   H247    1.082   .     S
C245   N249    1.366   .     A
C246   N250    1.364   .     A
C246   H248    1.077   .     S
C251   C252    1.545   .     S
C251   H259    1.109   .     S
C251   H260    1.106   .     S
C252   C253    1.527   .     S
C252   H258    1.105   .     S
C252   H257    1.112   .     S
C253   H255    1.108   .     S
C253   H256    1.111   .     S
C253   H254    1.110   .     S
C261   H269    1.104   .     S
C261   H270    1.111   .     S
C261   C262    1.538   .     S
C262   H268    1.109   .     S
C262   C263    1.528   .     S
C262   H267    1.112   .     S
C263   H264    1.111   .     S
C263   H265    1.112   .     S
C263   H266    1.111   .     S
C271   C272    1.544   .     S
C271   H280    1.107   .     S
C271   H279    1.106   .     S
C271   C20     1.527   1_655 S
C272   C273    1.533   .     S
C272   H278    1.113   .     S
C272   H277    1.109   .     S
C273   H274    1.111   .     S
C273   H275    1.111   .     S
C273   H276    1.108   .     S
C281   H289    1.109   .     S
C281   C282    1.532   .     S
C281   H290    1.104   .     S
C282   H287    1.107   .     S
C282   C283    1.526   .     S
C282   H288    1.111   .     S
C283   H284    1.111   .     S
C283   H285    1.110   .     S
C283   H286    1.110   .     S
Cl292  C18     1.769   1_655 S
O295   C299    1.287   .     A
O295   Cu307   1.962   .     S
O296   C300    1.286   .     A
O296   Cu308   1.962   .     S
O297   Cu308   1.957   .     S
O297   C397    1.289   .     S
O298   Cu307   1.957   .     S
O298   C496    1.289   1_455 S
C299   C338    1.446   .     S
C299   O493    1.289   1_455 S
C300   C337    1.444   .     S
C300   O396    1.289   .     S
O301   Cu307   1.943   .     S
O301   C501    1.291   1_455 S
O302   Cu308   1.943   .     S
O302   C404    1.299   .     S
O303   Cu308   1.929   .     S
O303   C305    1.301   .     A
O304   C306    1.302   .     A
O304   Cu307   1.929   .     S
C305   C309    1.484   .     S
C305   O399    1.291   .     S
C306   C310    1.500   .     S
C306   O498    1.299   1_455 S
Cu307  N347    2.008   .     S
Cu307  Cu504   2.671   1_455 S
Cu308  N348    2.008   .     S
Cu308  Cu405   2.671   .     S
C309   C313    1.428   .     A
C309   C315    1.414   .     A
C310   C314    1.435   .     A
C310   C316    1.427   .     A
C311   Cl389   1.781   .     S
C311   C319    1.409   .     A
C311   C313    1.411   .     A
C312   C320    1.405   .     A
C312   C314    1.415   .     A
C312   Cl586   1.769   1_455 S
C313   C477    1.525   .     S
C314   C565    1.527   1_455 S
C315   C317    1.420   .     A
C315   C359    1.537   .     S
C316   C349    1.540   .     S
C316   C318    1.414   .     A
C317   C321    1.424   .     A
C317   C319    1.421   .     A
C318   C320    1.406   .     A
C318   C322    1.409   .     A
C319   C1207   1.403   .     S
C320   C1208   1.406   1_554 S
C321   C324    1.409   .     A
C321   C1204   1.411   .     S
C322   C323    1.399   .     A
C322   C1203   1.411   1_554 S
C323   H329    1.082   .     S
C323   C325    1.383   .     A
C324   C326    1.398   .     A
C324   H330    1.079   .     S
C325   H327    1.075   .     S
C325   C1201   1.403   1_554 S
C326   H328    1.082   .     S
C326   C1202   1.406   .     S
C331   H333    1.084   .     S
C331   C436    1.400   .     S
C332   H334    1.084   .     S
C332   C630    1.382   .     S
C332   C533    1.397   1_455 S
C335   Cl391   1.765   .     S
C335   C337    1.408   .     A
C335   C625    1.386   .     S
C336   Cl392   1.760   .     S
C336   C338    1.407   .     A
C337   C430    1.397   .     S
C338   C527    1.400   1_455 S
C339   H341    1.082   .     S
C339   C343    1.415   .     A
C339   N348    1.367   .     A
C340   H342    1.082   .     S
C340   C344    1.414   .     A
C340   N347    1.367   .     A
C343   H345    1.082   .     S
C343   N347    1.366   .     A
C344   N348    1.364   .     A
C344   H346    1.077   .     S
C349   C350    1.545   .     S
C349   H357    1.109   .     S
C349   H358    1.106   .     S
C350   C351    1.527   .     S
C350   H356    1.105   .     S
C350   H355    1.112   .     S
C351   H353    1.108   .     S
C351   H354    1.111   .     S
C351   H352    1.110   .     S
C359   H367    1.104   .     S
C359   H368    1.111   .     S
C359   C360    1.538   .     S
C360   H366    1.109   .     S
C360   C361    1.528   .     S
C360   H365    1.112   .     S
C361   H362    1.111   .     S
C361   H363    1.112   .     S
C361   H364    1.111   .     S
C369   C370    1.544   .     S
C369   H378    1.107   .     S
C369   H377    1.106   .     S
C369   C412    1.527   .     S
C370   C371    1.533   .     S
C370   H376    1.113   .     S
C370   H375    1.109   .     S
C371   H372    1.111   .     S
C371   H373    1.111   .     S
C371   H374    1.108   .     S
C379   H387    1.109   .     S
C379   C380    1.532   .     S
C379   H388    1.104   .     S
C379   C509    1.525   1_455 S
C380   H385    1.107   .     S
C380   C381    1.526   .     S
C380   H386    1.111   .     S
C381   H382    1.111   .     S
C381   H383    1.110   .     S
C381   H384    1.110   .     S
Cl390  C410    1.769   .     S
O393   C397    1.287   .     A
O393   Cu405   1.962   .     S
O394   C398    1.286   .     A
O394   Cu406   1.962   .     S
O395   Cu406   1.957   .     S
O395   C495    1.289   .     S
O396   Cu405   1.957   .     S
C397   C436    1.446   .     S
C398   C435    1.444   .     S
C398   O494    1.289   .     S
O399   Cu405   1.943   .     S
O400   Cu406   1.943   .     S
O400   C502    1.299   .     S
O401   Cu406   1.929   .     S
O401   C403    1.301   .     A
O402   C404    1.302   .     A
O402   Cu405   1.929   .     S
C403   C407    1.484   .     S
C403   O497    1.291   .     S
C404   C408    1.500   .     S
Cu405  N445    2.008   .     S
Cu406  N446    2.008   .     S
Cu406  Cu503   2.671   .     S
C407   C411    1.428   .     A
C407   C413    1.414   .     A
C408   C412    1.435   .     A
C408   C414    1.427   .     A
C409   Cl487   1.781   .     S
C409   C417    1.409   .     A
C409   C411    1.411   .     A
C410   C418    1.405   .     A
C410   C412    1.415   .     A
C411   C575    1.525   .     S
C413   C415    1.420   .     A
C413   C457    1.537   .     S
C414   C447    1.540   .     S
C414   C416    1.414   .     A
C415   C419    1.424   .     A
C415   C417    1.421   .     A
C416   C418    1.406   .     A
C416   C420    1.409   .     A
C417   C1305   1.403   .     S
C418   C1306   1.406   1_554 S
C419   C422    1.409   .     A
C419   C1302   1.411   .     S
C420   C421    1.399   .     A
C420   C1301   1.411   1_554 S
C421   H427    1.082   .     S
C421   C423    1.383   .     A
C422   C424    1.398   .     A
C422   H428    1.079   .     S
C423   H425    1.075   .     S
C423   C1299   1.403   1_554 S
C424   H426    1.082   .     S
C424   C1300   1.406   .     S
C429   H431    1.084   .     S
C429   C534    1.400   .     S
C430   H432    1.084   .     S
C430   C728    1.382   .     S
C433   Cl489   1.765   .     S
C433   C435    1.408   .     A
C433   C723    1.386   .     S
C434   Cl490   1.760   .     S
C434   C436    1.407   .     A
C435   C528    1.397   .     S
C437   H439    1.082   .     S
C437   C441    1.415   .     A
C437   N446    1.367   .     A
C438   H440    1.082   .     S
C438   C442    1.414   .     A
C438   N445    1.367   .     A
C441   H443    1.082   .     S
C441   N445    1.366   .     A
C442   N446    1.364   .     A
C442   H444    1.077   .     S
C447   C448    1.545   .     S
C447   H455    1.109   .     S
C447   H456    1.106   .     S
C448   C449    1.527   .     S
C448   H454    1.105   .     S
C448   H453    1.112   .     S
C449   H451    1.108   .     S
C449   H452    1.111   .     S
C449   H450    1.110   .     S
C457   H465    1.104   .     S
C457   H466    1.111   .     S
C457   C458    1.538   .     S
C458   H464    1.109   .     S
C458   C459    1.528   .     S
C458   H463    1.112   .     S
C459   H460    1.111   .     S
C459   H461    1.112   .     S
C459   H462    1.111   .     S
C467   C468    1.544   .     S
C467   H476    1.107   .     S
C467   H475    1.106   .     S
C467   C510    1.527   .     S
C468   C469    1.533   .     S
C468   H474    1.113   .     S
C468   H473    1.109   .     S
C469   H470    1.111   .     S
C469   H471    1.111   .     S
C469   H472    1.108   .     S
C477   H485    1.109   .     S
C477   C478    1.532   .     S
C477   H486    1.104   .     S
C478   H483    1.107   .     S
C478   C479    1.526   .     S
C478   H484    1.111   .     S
C479   H480    1.111   .     S
C479   H481    1.110   .     S
C479   H482    1.110   .     S
Cl488  C508    1.769   .     S
O491   C495    1.287   .     A
O491   Cu503   1.962   .     S
O492   C496    1.286   .     A
O492   Cu504   1.962   .     S
O493   Cu504   1.957   .     S
O493   C299    1.289   1_655 S
O494   Cu503   1.957   .     S
C495   C534    1.446   .     S
C496   C533    1.444   .     S
C496   O298    1.289   1_655 S
O497   Cu503   1.943   .     S
O498   Cu504   1.943   .     S
O498   C306    1.299   1_655 S
O499   Cu504   1.929   .     S
O499   C501    1.301   .     A
O500   C502    1.302   .     A
O500   Cu503   1.929   .     S
C501   C505    1.484   .     S
C501   O301    1.291   1_655 S
C502   C506    1.500   .     S
Cu503  N543    2.008   .     S
Cu504  N544    2.008   .     S
Cu504  Cu307   2.671   1_655 S
C505   C509    1.428   .     A
C505   C511    1.414   .     A
C506   C510    1.435   .     A
C506   C512    1.427   .     A
C507   Cl585   1.781   .     S
C507   C515    1.409   .     A
C507   C509    1.411   .     A
C508   C516    1.405   .     A
C508   C510    1.415   .     A
C509   C379    1.525   1_655 S
C511   C513    1.420   .     A
C511   C555    1.537   .     S
C512   C545    1.540   .     S
C512   C514    1.414   .     A
C513   C517    1.424   .     A
C513   C515    1.421   .     A
C514   C516    1.406   .     A
C514   C518    1.409   .     A
C515   C1403   1.403   .     S
C516   C1404   1.406   1_554 S
C517   C520    1.409   .     A
C517   C1400   1.411   .     S
C518   C519    1.399   .     A
C518   C1399   1.411   1_554 S
C519   H525    1.082   .     S
C519   C521    1.383   .     A
C520   C522    1.398   .     A
C520   H526    1.079   .     S
C521   H523    1.075   .     S
C521   C1397   1.403   1_554 S
C522   H524    1.082   .     S
C522   C1398   1.406   .     S
C527   H529    1.084   .     S
C527   C338    1.400   1_655 S
C528   H530    1.084   .     S
C528   C826    1.382   .     S
C531   Cl587   1.765   .     S
C531   C533    1.408   .     A
C531   C821    1.386   .     S
C532   Cl588   1.760   .     S
C532   C534    1.407   .     A
C533   C332    1.397   1_655 S
C535   H537    1.082   .     S
C535   C539    1.415   .     A
C535   N544    1.367   .     A
C536   H538    1.082   .     S
C536   C540    1.414   .     A
C536   N543    1.367   .     A
C539   H541    1.082   .     S
C539   N543    1.366   .     A
C540   N544    1.364   .     A
C540   H542    1.077   .     S
C545   C546    1.545   .     S
C545   H553    1.109   .     S
C545   H554    1.106   .     S
C546   C547    1.527   .     S
C546   H552    1.105   .     S
C546   H551    1.112   .     S
C547   H549    1.108   .     S
C547   H550    1.111   .     S
C547   H548    1.110   .     S
C555   H563    1.104   .     S
C555   H564    1.111   .     S
C555   C556    1.538   .     S
C556   H562    1.109   .     S
C556   C557    1.528   .     S
C556   H561    1.112   .     S
C557   H558    1.111   .     S
C557   H559    1.112   .     S
C557   H560    1.111   .     S
C565   C566    1.544   .     S
C565   H574    1.107   .     S
C565   H573    1.106   .     S
C565   C314    1.527   1_655 S
C566   C567    1.533   .     S
C566   H572    1.113   .     S
C566   H571    1.109   .     S
C567   H568    1.111   .     S
C567   H569    1.111   .     S
C567   H570    1.108   .     S
C575   H583    1.109   .     S
C575   C576    1.532   .     S
C575   H584    1.104   .     S
C576   H581    1.107   .     S
C576   C577    1.526   .     S
C576   H582    1.111   .     S
C577   H578    1.111   .     S
C577   H579    1.110   .     S
C577   H580    1.110   .     S
Cl586  C312    1.769   1_655 S
O589   C593    1.287   .     A
O589   Cu601   1.962   .     S
O590   C594    1.286   .     A
O590   Cu602   1.962   .     S
O591   Cu602   1.957   .     S
O591   C691    1.289   .     S
O592   Cu601   1.957   .     S
O592   C790    1.289   1_455 S
C593   C632    1.446   .     S
C593   O787    1.289   1_455 S
C594   C631    1.444   .     S
C594   O690    1.289   .     S
O595   Cu601   1.943   .     S
O595   C795    1.291   1_455 S
O596   Cu602   1.943   .     S
O596   C698    1.299   .     S
O597   Cu602   1.929   .     S
O597   C599    1.301   .     A
O598   C600    1.302   .     A
O598   Cu601   1.929   .     S
C599   C603    1.484   .     S
C599   O693    1.291   .     S
C600   C604    1.500   .     S
C600   O792    1.299   1_455 S
Cu601  N641    2.008   .     S
Cu601  Cu798   2.671   1_455 S
Cu602  N642    2.008   .     S
Cu602  Cu699   2.671   .     S
C603   C607    1.428   .     A
C603   C609    1.414   .     A
C604   C608    1.435   .     A
C604   C610    1.427   .     A
C605   Cl683   1.781   .     S
C605   C613    1.409   .     A
C605   C607    1.411   .     A
C606   C614    1.405   .     A
C606   C608    1.415   .     A
C606   Cl880   1.769   1_455 S
C607   C771    1.525   .     S
C608   C859    1.527   1_455 S
C609   C611    1.420   .     A
C609   C653    1.537   .     S
C610   C643    1.540   .     S
C610   C612    1.414   .     A
C611   C615    1.424   .     A
C611   C613    1.421   .     A
C612   C614    1.406   .     A
C612   C616    1.409   .     A
C613   C1501   1.403   .     S
C614   C1502   1.406   1_554 S
C615   C618    1.409   .     A
C615   C1498   1.411   .     S
C616   C617    1.399   .     A
C616   C1497   1.411   1_554 S
C617   H623    1.082   .     S
C617   C619    1.383   .     A
C618   C620    1.398   .     A
C618   H624    1.079   .     S
C619   H621    1.075   .     S
C619   C1495   1.403   1_554 S
C620   H622    1.082   .     S
C620   C1496   1.406   .     S
C625   H627    1.084   .     S
C625   C730    1.400   .     S
C626   H628    1.084   .     S
C626   C42     1.382   1_565 S
C626   C827    1.397   1_455 S
C629   Cl685   1.765   .     S
C629   C631    1.408   .     A
C629   C37     1.386   1_565 S
C630   Cl686   1.760   .     S
C630   C632    1.407   .     A
C631   C724    1.397   .     S
C632   C821    1.400   1_455 S
C633   H635    1.082   .     S
C633   C637    1.415   .     A
C633   N642    1.367   .     A
C634   H636    1.082   .     S
C634   C638    1.414   .     A
C634   N641    1.367   .     A
C637   H639    1.082   .     S
C637   N641    1.366   .     A
C638   N642    1.364   .     A
C638   H640    1.077   .     S
C643   C644    1.545   .     S
C643   H651    1.109   .     S
C643   H652    1.106   .     S
C644   C645    1.527   .     S
C644   H650    1.105   .     S
C644   H649    1.112   .     S
C645   H647    1.108   .     S
C645   H648    1.111   .     S
C645   H646    1.110   .     S
C653   H661    1.104   .     S
C653   H662    1.111   .     S
C653   C654    1.538   .     S
C654   H660    1.109   .     S
C654   C655    1.528   .     S
C654   H659    1.112   .     S
C655   H656    1.111   .     S
C655   H657    1.112   .     S
C655   H658    1.111   .     S
C663   C664    1.544   .     S
C663   H672    1.107   .     S
C663   H671    1.106   .     S
C663   C706    1.527   .     S
C664   C665    1.533   .     S
C664   H670    1.113   .     S
C664   H669    1.109   .     S
C665   H666    1.111   .     S
C665   H667    1.111   .     S
C665   H668    1.108   .     S
C673   H681    1.109   .     S
C673   C674    1.532   .     S
C673   H682    1.104   .     S
C673   C803    1.525   1_455 S
C674   H679    1.107   .     S
C674   C675    1.526   .     S
C674   H680    1.111   .     S
C675   H676    1.111   .     S
C675   H677    1.110   .     S
C675   H678    1.110   .     S
Cl684  C704    1.769   .     S
O687   C691    1.287   .     A
O687   Cu699   1.962   .     S
O688   C692    1.286   .     A
O688   Cu700   1.962   .     S
O689   Cu700   1.957   .     S
O689   C789    1.289   .     S
O690   Cu699   1.957   .     S
C691   C730    1.446   .     S
C692   C729    1.444   .     S
C692   O788    1.289   .     S
O693   Cu699   1.943   .     S
O694   Cu700   1.943   .     S
O694   C796    1.299   .     S
O695   Cu700   1.929   .     S
O695   C697    1.301   .     A
O696   C698    1.302   .     A
O696   Cu699   1.929   .     S
C697   C701    1.484   .     S
C697   O791    1.291   .     S
C698   C702    1.500   .     S
Cu699  N739    2.008   .     S
Cu700  N740    2.008   .     S
Cu700  Cu797   2.671   .     S
C701   C705    1.428   .     A
C701   C707    1.414   .     A
C702   C706    1.435   .     A
C702   C708    1.427   .     A
C703   Cl781   1.781   .     S
C703   C711    1.409   .     A
C703   C705    1.411   .     A
C704   C712    1.405   .     A
C704   C706    1.415   .     A
C705   C869    1.525   .     S
C707   C709    1.420   .     A
C707   C751    1.537   .     S
C708   C741    1.540   .     S
C708   C710    1.414   .     A
C709   C713    1.424   .     A
C709   C711    1.421   .     A
C710   C712    1.406   .     A
C710   C714    1.409   .     A
C711   C1599   1.403   .     S
C712   C1600   1.406   1_554 S
C713   C716    1.409   .     A
C713   C1596   1.411   .     S
C714   C715    1.399   .     A
C714   C1595   1.411   1_554 S
C715   H721    1.082   .     S
C715   C717    1.383   .     A
C716   C718    1.398   .     A
C716   H722    1.079   .     S
C717   H719    1.075   .     S
C717   C1593   1.403   1_554 S
C718   H720    1.082   .     S
C718   C1594   1.406   .     S
C723   H725    1.084   .     S
C723   C828    1.400   .     S
C724   H726    1.084   .     S
C724   C140    1.382   1_565 S
C727   Cl783   1.765   .     S
C727   C729    1.408   .     A
C727   C135    1.386   1_565 S
C728   Cl784   1.760   .     S
C728   C730    1.407   .     A
C729   C822    1.397   .     S
C731   H733    1.082   .     S
C731   C735    1.415   .     A
C731   N740    1.367   .     A
C732   H734    1.082   .     S
C732   C736    1.414   .     A
C732   N739    1.367   .     A
C735   H737    1.082   .     S
C735   N739    1.366   .     A
C736   N740    1.364   .     A
C736   H738    1.077   .     S
C741   C742    1.545   .     S
C741   H749    1.109   .     S
C741   H750    1.106   .     S
C742   C743    1.527   .     S
C742   H748    1.105   .     S
C742   H747    1.112   .     S
C743   H745    1.108   .     S
C743   H746    1.111   .     S
C743   H744    1.110   .     S
C751   H759    1.104   .     S
C751   H760    1.111   .     S
C751   C752    1.538   .     S
C752   H758    1.109   .     S
C752   C753    1.528   .     S
C752   H757    1.112   .     S
C753   H754    1.111   .     S
C753   H755    1.112   .     S
C753   H756    1.111   .     S
C761   C762    1.544   .     S
C761   H770    1.107   .     S
C761   H769    1.106   .     S
C761   C804    1.527   .     S
C762   C763    1.533   .     S
C762   H768    1.113   .     S
C762   H767    1.109   .     S
C763   H764    1.111   .     S
C763   H765    1.111   .     S
C763   H766    1.108   .     S
C771   H779    1.109   .     S
C771   C772    1.532   .     S
C771   H780    1.104   .     S
C772   H777    1.107   .     S
C772   C773    1.526   .     S
C772   H778    1.111   .     S
C773   H774    1.111   .     S
C773   H775    1.110   .     S
C773   H776    1.110   .     S
Cl782  C802    1.769   .     S
O785   C789    1.287   .     A
O785   Cu797   1.962   .     S
O786   C790    1.286   .     A
O786   Cu798   1.962   .     S
O787   Cu798   1.957   .     S
O787   C593    1.289   1_655 S
O788   Cu797   1.957   .     S
C789   C828    1.446   .     S
C790   C827    1.444   .     S
C790   O592    1.289   1_655 S
O791   Cu797   1.943   .     S
O792   Cu798   1.943   .     S
O792   C600    1.299   1_655 S
O793   Cu798   1.929   .     S
O793   C795    1.301   .     A
O794   C796    1.302   .     A
O794   Cu797   1.929   .     S
C795   C799    1.484   .     S
C795   O595    1.291   1_655 S
C796   C800    1.500   .     S
Cu797  N837    2.008   .     S
Cu798  N838    2.008   .     S
Cu798  Cu601   2.671   1_655 S
C799   C803    1.428   .     A
C799   C805    1.414   .     A
C800   C804    1.435   .     A
C800   C806    1.427   .     A
C801   Cl879   1.781   .     S
C801   C809    1.409   .     A
C801   C803    1.411   .     A
C802   C810    1.405   .     A
C802   C804    1.415   .     A
C803   C673    1.525   1_655 S
C805   C807    1.420   .     A
C805   C849    1.537   .     S
C806   C839    1.540   .     S
C806   C808    1.414   .     A
C807   C811    1.424   .     A
C807   C809    1.421   .     A
C808   C810    1.406   .     A
C808   C812    1.409   .     A
C809   C1697   1.403   .     S
C810   C1698   1.406   1_554 S
C811   C814    1.409   .     A
C811   C1694   1.411   .     S
C812   C813    1.399   .     A
C812   C1693   1.411   1_554 S
C813   H819    1.082   .     S
C813   C815    1.383   .     A
C814   C816    1.398   .     A
C814   H820    1.079   .     S
C815   H817    1.075   .     S
C815   C1691   1.403   1_554 S
C816   H818    1.082   .     S
C816   C1692   1.406   .     S
C821   H823    1.084   .     S
C821   C632    1.400   1_655 S
C822   H824    1.084   .     S
C822   C238    1.382   1_565 S
C825   Cl881   1.765   .     S
C825   C827    1.408   .     A
C825   C233    1.386   1_565 S
C826   Cl882   1.760   .     S
C826   C828    1.407   .     A
C827   C626    1.397   1_655 S
C829   H831    1.082   .     S
C829   C833    1.415   .     A
C829   N838    1.367   .     A
C830   H832    1.082   .     S
C830   C834    1.414   .     A
C830   N837    1.367   .     A
C833   H835    1.082   .     S
C833   N837    1.366   .     A
C834   N838    1.364   .     A
C834   H836    1.077   .     S
C839   C840    1.545   .     S
C839   H847    1.109   .     S
C839   H848    1.106   .     S
C840   C841    1.527   .     S
C840   H846    1.105   .     S
C840   H845    1.112   .     S
C841   H843    1.108   .     S
C841   H844    1.111   .     S
C841   H842    1.110   .     S
C849   H857    1.104   .     S
C849   H858    1.111   .     S
C849   C850    1.538   .     S
C850   H856    1.109   .     S
C850   C851    1.528   .     S
C850   H855    1.112   .     S
C851   H852    1.111   .     S
C851   H853    1.112   .     S
C851   H854    1.111   .     S
C859   C860    1.544   .     S
C859   H868    1.107   .     S
C859   H867    1.106   .     S
C859   C608    1.527   1_655 S
C860   C861    1.533   .     S
C860   H866    1.113   .     S
C860   H865    1.109   .     S
C861   H862    1.111   .     S
C861   H863    1.111   .     S
C861   H864    1.108   .     S
C869   H877    1.109   .     S
C869   C870    1.532   .     S
C869   H878    1.104   .     S
C870   H875    1.107   .     S
C870   C871    1.526   .     S
C870   H876    1.111   .     S
C871   H872    1.111   .     S
C871   H873    1.110   .     S
C871   H874    1.110   .     S
Cl880  C606    1.769   1_655 S
O883   C887    1.287   .     A
O883   Cu895   1.962   .     S
O884   C888    1.286   .     A
O884   Cu896   1.962   .     S
O885   Cu896   1.957   .     S
O885   C985    1.289   .     S
O886   Cu895   1.957   .     S
O886   C1084   1.289   1_455 S
C887   C926    1.446   .     S
C887   O1081   1.289   1_455 S
C888   C925    1.444   .     S
C888   O984    1.289   .     S
O889   Cu895   1.943   .     S
O889   C1089   1.291   1_455 S
O890   Cu896   1.943   .     S
O890   C992    1.299   .     S
O891   Cu896   1.929   .     S
O891   C893    1.301   .     A
O892   C894    1.302   .     A
O892   Cu895   1.929   .     S
C893   C897    1.484   .     S
C893   O987    1.291   .     S
C894   C898    1.500   .     S
C894   O1086   1.299   1_455 S
Cu895  N935    2.008   .     S
Cu895  Cu1092  2.671   1_455 S
Cu896  N936    2.008   .     S
Cu896  Cu993   2.671   .     S
C897   C901    1.428   .     A
C897   C903    1.414   .     A
C898   C902    1.435   .     A
C898   C904    1.427   .     A
C899   Cl977   1.781   .     S
C899   C907    1.409   .     A
C899   C901    1.411   .     A
C900   C908    1.405   .     A
C900   C902    1.415   .     A
C900   Cl1174  1.769   1_455 S
C901   C1065   1.525   .     S
C902   C1153   1.527   1_455 S
C903   C905    1.420   .     A
C903   C947    1.537   .     S
C904   C937    1.540   .     S
C904   C906    1.414   .     A
C905   C909    1.424   .     A
C905   C907    1.421   .     A
C906   C908    1.406   .     A
C906   C910    1.409   .     A
C907   C31     1.403   1_556 S
C909   C912    1.409   .     A
C909   C28     1.411   1_556 S
C910   C911    1.399   .     A
C911   H917    1.082   .     S
C911   C913    1.383   .     A
C912   C914    1.398   .     A
C912   H918    1.079   .     S
C913   H915    1.075   .     S
C914   H916    1.082   .     S
C914   C26     1.406   1_556 S
C919   H921    1.084   .     S
C919   C1511   1.386   1_545 S
C919   C1024   1.400   .     S
C920   H922    1.084   .     S
C920   C1218   1.382   .     S
C920   C1121   1.397   1_455 S
C923   Cl979   1.765   .     S
C923   C925    1.408   .     A
C923   C1213   1.386   .     S
C924   Cl980   1.760   .     S
C924   C926    1.407   .     A
C924   C1508   1.382   1_545 S
C925   C1018   1.397   .     S
C926   C1115   1.400   1_455 S
C927   H929    1.082   .     S
C927   C931    1.415   .     A
C927   N936    1.367   .     A
C928   H930    1.082   .     S
C928   C932    1.414   .     A
C928   N935    1.367   .     A
C931   H933    1.082   .     S
C931   N935    1.366   .     A
C932   N936    1.364   .     A
C932   H934    1.077   .     S
C937   C938    1.545   .     S
C937   H945    1.109   .     S
C937   H946    1.106   .     S
C938   C939    1.527   .     S
C938   H944    1.105   .     S
C938   H943    1.112   .     S
C939   H941    1.108   .     S
C939   H942    1.111   .     S
C939   H940    1.110   .     S
C947   H955    1.104   .     S
C947   H956    1.111   .     S
C947   C948    1.538   .     S
C948   H954    1.109   .     S
C948   C949    1.528   .     S
C948   H953    1.112   .     S
C949   H950    1.111   .     S
C949   H951    1.112   .     S
C949   H952    1.111   .     S
C957   C958    1.544   .     S
C957   H966    1.107   .     S
C957   H965    1.106   .     S
C957   C1000   1.527   .     S
C958   C959    1.533   .     S
C958   H964    1.113   .     S
C958   H963    1.109   .     S
C959   H960    1.111   .     S
C959   H961    1.111   .     S
C959   H962    1.108   .     S
C967   H975    1.109   .     S
C967   C968    1.532   .     S
C967   H976    1.104   .     S
C967   C1097   1.525   1_455 S
C968   H973    1.107   .     S
C968   C969    1.526   .     S
C968   H974    1.111   .     S
C969   H970    1.111   .     S
C969   H971    1.110   .     S
C969   H972    1.110   .     S
Cl978  C998    1.769   .     S
O981   C985    1.287   .     A
O981   Cu993   1.962   .     S
O982   C986    1.286   .     A
O982   Cu994   1.962   .     S
O983   Cu994   1.957   .     S
O983   C1083   1.289   .     S
O984   Cu993   1.957   .     S
C985   C1024   1.446   .     S
C986   C1023   1.444   .     S
C986   O1082   1.289   .     S
O987   Cu993   1.943   .     S
O988   Cu994   1.943   .     S
O988   C1090   1.299   .     S
O989   Cu994   1.929   .     S
O989   C991    1.301   .     A
O990   C992    1.302   .     A
O990   Cu993   1.929   .     S
C991   C995    1.484   .     S
C991   O1085   1.291   .     S
C992   C996    1.500   .     S
Cu993  N1033   2.008   .     S
Cu994  N1034   2.008   .     S
Cu994  Cu1091  2.671   .     S
C995   C999    1.428   .     A
C995   C1001   1.414   .     A
C996   C1000   1.435   .     A
C996   C1002   1.427   .     A
C997   Cl1075  1.781   .     S
C997   C1005   1.409   .     A
C997   C999    1.411   .     A
C998   C1006   1.405   .     A
C998   C1000   1.415   .     A
C999   C1163   1.525   .     S
C1001  C1003   1.420   .     A
C1001  C1045   1.537   .     S
C1002  C1035   1.540   .     S
C1002  C1004   1.414   .     A
C1003  C1007   1.424   .     A
C1003  C1005   1.421   .     A
C1004  C1006   1.406   .     A
C1004  C1008   1.409   .     A
C1005  C129    1.403   1_556 S
C1007  C1010   1.409   .     A
C1007  C126    1.411   1_556 S
C1008  C1009   1.399   .     A
C1009  H1015   1.082   .     S
C1009  C1011   1.383   .     A
C1010  C1012   1.398   .     A
C1010  H1016   1.079   .     S
C1011  H1013   1.075   .     S
C1012  H1014   1.082   .     S
C1012  C124    1.406   1_556 S
C1017  H1019   1.084   .     S
C1017  C1609   1.386   1_545 S
C1017  C1122   1.400   .     S
C1018  H1020   1.084   .     S
C1018  C1316   1.382   .     S
C1021  Cl1077  1.765   .     S
C1021  C1023   1.408   .     A
C1021  C1311   1.386   .     S
C1022  Cl1078  1.760   .     S
C1022  C1024   1.407   .     A
C1022  C1606   1.382   1_545 S
C1023  C1116   1.397   .     S
C1025  H1027   1.082   .     S
C1025  C1029   1.415   .     A
C1025  N1034   1.367   .     A
C1026  H1028   1.082   .     S
C1026  C1030   1.414   .     A
C1026  N1033   1.367   .     A
C1029  H1031   1.082   .     S
C1029  N1033   1.366   .     A
C1030  N1034   1.364   .     A
C1030  H1032   1.077   .     S
C1035  C1036   1.545   .     S
C1035  H1043   1.109   .     S
C1035  H1044   1.106   .     S
C1036  C1037   1.527   .     S
C1036  H1042   1.105   .     S
C1036  H1041   1.112   .     S
C1037  H1039   1.108   .     S
C1037  H1040   1.111   .     S
C1037  H1038   1.110   .     S
C1045  H1053   1.104   .     S
C1045  H1054   1.111   .     S
C1045  C1046   1.538   .     S
C1046  H1052   1.109   .     S
C1046  C1047   1.528   .     S
C1046  H1051   1.112   .     S
C1047  H1048   1.111   .     S
C1047  H1049   1.112   .     S
C1047  H1050   1.111   .     S
C1055  C1056   1.544   .     S
C1055  H1064   1.107   .     S
C1055  H1063   1.106   .     S
C1055  C1098   1.527   .     S
C1056  C1057   1.533   .     S
C1056  H1062   1.113   .     S
C1056  H1061   1.109   .     S
C1057  H1058   1.111   .     S
C1057  H1059   1.111   .     S
C1057  H1060   1.108   .     S
C1065  H1073   1.109   .     S
C1065  C1066   1.532   .     S
C1065  H1074   1.104   .     S
C1066  H1071   1.107   .     S
C1066  C1067   1.526   .     S
C1066  H1072   1.111   .     S
C1067  H1068   1.111   .     S
C1067  H1069   1.110   .     S
C1067  H1070   1.110   .     S
Cl1076 C1096   1.769   .     S
O1079  C1083   1.287   .     A
O1079  Cu1091  1.962   .     S
O1080  C1084   1.286   .     A
O1080  Cu1092  1.962   .     S
O1081  Cu1092  1.957   .     S
O1081  C887    1.289   1_655 S
O1082  Cu1091  1.957   .     S
C1083  C1122   1.446   .     S
C1084  C1121   1.444   .     S
C1084  O886    1.289   1_655 S
O1085  Cu1091  1.943   .     S
O1086  Cu1092  1.943   .     S
O1086  C894    1.299   1_655 S
O1087  Cu1092  1.929   .     S
O1087  C1089   1.301   .     A
O1088  C1090   1.302   .     A
O1088  Cu1091  1.929   .     S
C1089  C1093   1.484   .     S
C1089  O889    1.291   1_655 S
C1090  C1094   1.500   .     S
Cu1091 N1131   2.008   .     S
Cu1092 N1132   2.008   .     S
Cu1092 Cu895   2.671   1_655 S
C1093  C1097   1.428   .     A
C1093  C1099   1.414   .     A
C1094  C1098   1.435   .     A
C1094  C1100   1.427   .     A
C1095  Cl1173  1.781   .     S
C1095  C1103   1.409   .     A
C1095  C1097   1.411   .     A
C1096  C1104   1.405   .     A
C1096  C1098   1.415   .     A
C1097  C967    1.525   1_655 S
C1099  C1101   1.420   .     A
C1099  C1143   1.537   .     S
C1100  C1133   1.540   .     S
C1100  C1102   1.414   .     A
C1101  C1105   1.424   .     A
C1101  C1103   1.421   .     A
C1102  C1104   1.406   .     A
C1102  C1106   1.409   .     A
C1103  C227    1.403   1_556 S
C1105  C1108   1.409   .     A
C1105  C224    1.411   1_556 S
C1106  C1107   1.399   .     A
C1107  H1113   1.082   .     S
C1107  C1109   1.383   .     A
C1108  C1110   1.398   .     A
C1108  H1114   1.079   .     S
C1109  H1111   1.075   .     S
C1110  H1112   1.082   .     S
C1110  C222    1.406   1_556 S
C1115  H1117   1.084   .     S
C1115  C1707   1.386   1_545 S
C1115  C926    1.400   1_655 S
C1116  H1118   1.084   .     S
C1116  C1414   1.382   .     S
C1119  Cl1175  1.765   .     S
C1119  C1121   1.408   .     A
C1119  C1409   1.386   .     S
C1120  Cl1176  1.760   .     S
C1120  C1122   1.407   .     A
C1120  C1704   1.382   1_545 S
C1121  C920    1.397   1_655 S
C1123  H1125   1.082   .     S
C1123  C1127   1.415   .     A
C1123  N1132   1.367   .     A
C1124  H1126   1.082   .     S
C1124  C1128   1.414   .     A
C1124  N1131   1.367   .     A
C1127  H1129   1.082   .     S
C1127  N1131   1.366   .     A
C1128  N1132   1.364   .     A
C1128  H1130   1.077   .     S
C1133  C1134   1.545   .     S
C1133  H1141   1.109   .     S
C1133  H1142   1.106   .     S
C1134  C1135   1.527   .     S
C1134  H1140   1.105   .     S
C1134  H1139   1.112   .     S
C1135  H1137   1.108   .     S
C1135  H1138   1.111   .     S
C1135  H1136   1.110   .     S
C1143  H1151   1.104   .     S
C1143  H1152   1.111   .     S
C1143  C1144   1.538   .     S
C1144  H1150   1.109   .     S
C1144  C1145   1.528   .     S
C1144  H1149   1.112   .     S
C1145  H1146   1.111   .     S
C1145  H1147   1.112   .     S
C1145  H1148   1.111   .     S
C1153  C1154   1.544   .     S
C1153  H1162   1.107   .     S
C1153  H1161   1.106   .     S
C1153  C902    1.527   1_655 S
C1154  C1155   1.533   .     S
C1154  H1160   1.113   .     S
C1154  H1159   1.109   .     S
C1155  H1156   1.111   .     S
C1155  H1157   1.111   .     S
C1155  H1158   1.108   .     S
C1163  H1171   1.109   .     S
C1163  C1164   1.532   .     S
C1163  H1172   1.104   .     S
C1164  H1169   1.107   .     S
C1164  C1165   1.526   .     S
C1164  H1170   1.111   .     S
C1165  H1166   1.111   .     S
C1165  H1167   1.110   .     S
C1165  H1168   1.110   .     S
Cl1174 C900    1.769   1_655 S
O1177  C1181   1.287   .     A
O1177  Cu1189  1.962   .     S
O1178  C1182   1.286   .     A
O1178  Cu1190  1.962   .     S
O1179  Cu1190  1.957   .     S
O1179  C1279   1.289   .     S
O1180  Cu1189  1.957   .     S
O1180  C1378   1.289   1_455 S
C1181  C1220   1.446   .     S
C1181  O1375   1.289   1_455 S
C1182  C1219   1.444   .     S
C1182  O1278   1.289   .     S
O1183  Cu1189  1.943   .     S
O1183  C1383   1.291   1_455 S
O1184  Cu1190  1.943   .     S
O1184  C1286   1.299   .     S
O1185  Cu1190  1.929   .     S
O1185  C1187   1.301   .     A
O1186  C1188   1.302   .     A
O1186  Cu1189  1.929   .     S
C1187  C1191   1.484   .     S
C1187  O1281   1.291   .     S
C1188  C1192   1.500   .     S
C1188  O1380   1.299   1_455 S
Cu1189 N1229   2.008   .     S
Cu1189 Cu1386  2.671   1_455 S
Cu1190 N1230   2.008   .     S
Cu1190 Cu1287  2.671   .     S
C1191  C1195   1.428   .     A
C1191  C1197   1.414   .     A
C1192  C1196   1.435   .     A
C1192  C1198   1.427   .     A
C1193  Cl1271  1.781   .     S
C1193  C1201   1.409   .     A
C1193  C1195   1.411   .     A
C1194  C1202   1.405   .     A
C1194  C1196   1.415   .     A
C1194  Cl1468  1.769   1_455 S
C1195  C1359   1.525   .     S
C1196  C1447   1.527   1_455 S
C1197  C1199   1.420   .     A
C1197  C1241   1.537   .     S
C1198  C1231   1.540   .     S
C1198  C1200   1.414   .     A
C1199  C1203   1.424   .     A
C1199  C1201   1.421   .     A
C1200  C1202   1.406   .     A
C1200  C1204   1.409   .     A
C1201  C325    1.403   1_556 S
C1203  C1206   1.409   .     A
C1203  C322    1.411   1_556 S
C1204  C1205   1.399   .     A
C1205  H1211   1.082   .     S
C1205  C1207   1.383   .     A
C1206  C1208   1.398   .     A
C1206  H1212   1.079   .     S
C1207  H1209   1.075   .     S
C1208  H1210   1.082   .     S
C1208  C320    1.406   1_556 S
C1213  H1215   1.084   .     S
C1213  C1318   1.400   .     S
C1214  H1216   1.084   .     S
C1214  C1512   1.382   .     S
C1214  C1415   1.397   1_455 S
C1217  Cl1273  1.765   .     S
C1217  C1219   1.408   .     A
C1217  C1507   1.386   .     S
C1218  Cl1274  1.760   .     S
C1218  C1220   1.407   .     A
C1219  C1312   1.397   .     S
C1220  C1409   1.400   1_455 S
C1221  H1223   1.082   .     S
C1221  C1225   1.415   .     A
C1221  N1230   1.367   .     A
C1222  H1224   1.082   .     S
C1222  C1226   1.414   .     A
C1222  N1229   1.367   .     A
C1225  H1227   1.082   .     S
C1225  N1229   1.366   .     A
C1226  N1230   1.364   .     A
C1226  H1228   1.077   .     S
C1231  C1232   1.545   .     S
C1231  H1239   1.109   .     S
C1231  H1240   1.106   .     S
C1232  C1233   1.527   .     S
C1232  H1238   1.105   .     S
C1232  H1237   1.112   .     S
C1233  H1235   1.108   .     S
C1233  H1236   1.111   .     S
C1233  H1234   1.110   .     S
C1241  H1249   1.104   .     S
C1241  H1250   1.111   .     S
C1241  C1242   1.538   .     S
C1242  H1248   1.109   .     S
C1242  C1243   1.528   .     S
C1242  H1247   1.112   .     S
C1243  H1244   1.111   .     S
C1243  H1245   1.112   .     S
C1243  H1246   1.111   .     S
C1251  C1252   1.544   .     S
C1251  H1260   1.107   .     S
C1251  H1259   1.106   .     S
C1251  C1294   1.527   .     S
C1252  C1253   1.533   .     S
C1252  H1258   1.113   .     S
C1252  H1257   1.109   .     S
C1253  H1254   1.111   .     S
C1253  H1255   1.111   .     S
C1253  H1256   1.108   .     S
C1261  H1269   1.109   .     S
C1261  C1262   1.532   .     S
C1261  H1270   1.104   .     S
C1261  C1391   1.525   1_455 S
C1262  H1267   1.107   .     S
C1262  C1263   1.526   .     S
C1262  H1268   1.111   .     S
C1263  H1264   1.111   .     S
C1263  H1265   1.110   .     S
C1263  H1266   1.110   .     S
Cl1272 C1292   1.769   .     S
O1275  C1279   1.287   .     A
O1275  Cu1287  1.962   .     S
O1276  C1280   1.286   .     A
O1276  Cu1288  1.962   .     S
O1277  Cu1288  1.957   .     S
O1277  C1377   1.289   .     S
O1278  Cu1287  1.957   .     S
C1279  C1318   1.446   .     S
C1280  C1317   1.444   .     S
C1280  O1376   1.289   .     S
O1281  Cu1287  1.943   .     S
O1282  Cu1288  1.943   .     S
O1282  C1384   1.299   .     S
O1283  Cu1288  1.929   .     S
O1283  C1285   1.301   .     A
O1284  C1286   1.302   .     A
O1284  Cu1287  1.929   .     S
C1285  C1289   1.484   .     S
C1285  O1379   1.291   .     S
C1286  C1290   1.500   .     S
Cu1287 N1327   2.008   .     S
Cu1288 N1328   2.008   .     S
Cu1288 Cu1385  2.671   .     S
C1289  C1293   1.428   .     A
C1289  C1295   1.414   .     A
C1290  C1294   1.435   .     A
C1290  C1296   1.427   .     A
C1291  Cl1369  1.781   .     S
C1291  C1299   1.409   .     A
C1291  C1293   1.411   .     A
C1292  C1300   1.405   .     A
C1292  C1294   1.415   .     A
C1293  C1457   1.525   .     S
C1295  C1297   1.420   .     A
C1295  C1339   1.537   .     S
C1296  C1329   1.540   .     S
C1296  C1298   1.414   .     A
C1297  C1301   1.424   .     A
C1297  C1299   1.421   .     A
C1298  C1300   1.406   .     A
C1298  C1302   1.409   .     A
C1299  C423    1.403   1_556 S
C1301  C1304   1.409   .     A
C1301  C420    1.411   1_556 S
C1302  C1303   1.399   .     A
C1303  H1309   1.082   .     S
C1303  C1305   1.383   .     A
C1304  C1306   1.398   .     A
C1304  H1310   1.079   .     S
C1305  H1307   1.075   .     S
C1306  H1308   1.082   .     S
C1306  C418    1.406   1_556 S
C1311  H1313   1.084   .     S
C1311  C1416   1.400   .     S
C1312  H1314   1.084   .     S
C1312  C1610   1.382   .     S
C1315  Cl1371  1.765   .     S
C1315  C1317   1.408   .     A
C1315  C1605   1.386   .     S
C1316  Cl1372  1.760   .     S
C1316  C1318   1.407   .     A
C1317  C1410   1.397   .     S
C1319  H1321   1.082   .     S
C1319  C1323   1.415   .     A
C1319  N1328   1.367   .     A
C1320  H1322   1.082   .     S
C1320  C1324   1.414   .     A
C1320  N1327   1.367   .     A
C1323  H1325   1.082   .     S
C1323  N1327   1.366   .     A
C1324  N1328   1.364   .     A
C1324  H1326   1.077   .     S
C1329  C1330   1.545   .     S
C1329  H1337   1.109   .     S
C1329  H1338   1.106   .     S
C1330  C1331   1.527   .     S
C1330  H1336   1.105   .     S
C1330  H1335   1.112   .     S
C1331  H1333   1.108   .     S
C1331  H1334   1.111   .     S
C1331  H1332   1.110   .     S
C1339  H1347   1.104   .     S
C1339  H1348   1.111   .     S
C1339  C1340   1.538   .     S
C1340  H1346   1.109   .     S
C1340  C1341   1.528   .     S
C1340  H1345   1.112   .     S
C1341  H1342   1.111   .     S
C1341  H1343   1.112   .     S
C1341  H1344   1.111   .     S
C1349  C1350   1.544   .     S
C1349  H1358   1.107   .     S
C1349  H1357   1.106   .     S
C1349  C1392   1.527   .     S
C1350  C1351   1.533   .     S
C1350  H1356   1.113   .     S
C1350  H1355   1.109   .     S
C1351  H1352   1.111   .     S
C1351  H1353   1.111   .     S
C1351  H1354   1.108   .     S
C1359  H1367   1.109   .     S
C1359  C1360   1.532   .     S
C1359  H1368   1.104   .     S
C1360  H1365   1.107   .     S
C1360  C1361   1.526   .     S
C1360  H1366   1.111   .     S
C1361  H1362   1.111   .     S
C1361  H1363   1.110   .     S
C1361  H1364   1.110   .     S
Cl1370 C1390   1.769   .     S
O1373  C1377   1.287   .     A
O1373  Cu1385  1.962   .     S
O1374  C1378   1.286   .     A
O1374  Cu1386  1.962   .     S
O1375  Cu1386  1.957   .     S
O1375  C1181   1.289   1_655 S
O1376  Cu1385  1.957   .     S
C1377  C1416   1.446   .     S
C1378  C1415   1.444   .     S
C1378  O1180   1.289   1_655 S
O1379  Cu1385  1.943   .     S
O1380  Cu1386  1.943   .     S
O1380  C1188   1.299   1_655 S
O1381  Cu1386  1.929   .     S
O1381  C1383   1.301   .     A
O1382  C1384   1.302   .     A
O1382  Cu1385  1.929   .     S
C1383  C1387   1.484   .     S
C1383  O1183   1.291   1_655 S
C1384  C1388   1.500   .     S
Cu1385 N1425   2.008   .     S
Cu1386 N1426   2.008   .     S
Cu1386 Cu1189  2.671   1_655 S
C1387  C1391   1.428   .     A
C1387  C1393   1.414   .     A
C1388  C1392   1.435   .     A
C1388  C1394   1.427   .     A
C1389  Cl1467  1.781   .     S
C1389  C1397   1.409   .     A
C1389  C1391   1.411   .     A
C1390  C1398   1.405   .     A
C1390  C1392   1.415   .     A
C1391  C1261   1.525   1_655 S
C1393  C1395   1.420   .     A
C1393  C1437   1.537   .     S
C1394  C1427   1.540   .     S
C1394  C1396   1.414   .     A
C1395  C1399   1.424   .     A
C1395  C1397   1.421   .     A
C1396  C1398   1.406   .     A
C1396  C1400   1.409   .     A
C1397  C521    1.403   1_556 S
C1399  C1402   1.409   .     A
C1399  C518    1.411   1_556 S
C1400  C1401   1.399   .     A
C1401  H1407   1.082   .     S
C1401  C1403   1.383   .     A
C1402  C1404   1.398   .     A
C1402  H1408   1.079   .     S
C1403  H1405   1.075   .     S
C1404  H1406   1.082   .     S
C1404  C516    1.406   1_556 S
C1409  H1411   1.084   .     S
C1409  C1220   1.400   1_655 S
C1410  H1412   1.084   .     S
C1410  C1708   1.382   .     S
C1413  Cl1469  1.765   .     S
C1413  C1415   1.408   .     A
C1413  C1703   1.386   .     S
C1414  Cl1470  1.760   .     S
C1414  C1416   1.407   .     A
C1415  C1214   1.397   1_655 S
C1417  H1419   1.082   .     S
C1417  C1421   1.415   .     A
C1417  N1426   1.367   .     A
C1418  H1420   1.082   .     S
C1418  C1422   1.414   .     A
C1418  N1425   1.367   .     A
C1421  H1423   1.082   .     S
C1421  N1425   1.366   .     A
C1422  N1426   1.364   .     A
C1422  H1424   1.077   .     S
C1427  C1428   1.545   .     S
C1427  H1435   1.109   .     S
C1427  H1436   1.106   .     S
C1428  C1429   1.527   .     S
C1428  H1434   1.105   .     S
C1428  H1433   1.112   .     S
C1429  H1431   1.108   .     S
C1429  H1432   1.111   .     S
C1429  H1430   1.110   .     S
C1437  H1445   1.104   .     S
C1437  H1446   1.111   .     S
C1437  C1438   1.538   .     S
C1438  H1444   1.109   .     S
C1438  C1439   1.528   .     S
C1438  H1443   1.112   .     S
C1439  H1440   1.111   .     S
C1439  H1441   1.112   .     S
C1439  H1442   1.111   .     S
C1447  C1448   1.544   .     S
C1447  H1456   1.107   .     S
C1447  H1455   1.106   .     S
C1447  C1196   1.527   1_655 S
C1448  C1449   1.533   .     S
C1448  H1454   1.113   .     S
C1448  H1453   1.109   .     S
C1449  H1450   1.111   .     S
C1449  H1451   1.111   .     S
C1449  H1452   1.108   .     S
C1457  H1465   1.109   .     S
C1457  C1458   1.532   .     S
C1457  H1466   1.104   .     S
C1458  H1463   1.107   .     S
C1458  C1459   1.526   .     S
C1458  H1464   1.111   .     S
C1459  H1460   1.111   .     S
C1459  H1461   1.110   .     S
C1459  H1462   1.110   .     S
Cl1468 C1194   1.769   1_655 S
O1471  C1475   1.287   .     A
O1471  Cu1483  1.962   .     S
O1472  C1476   1.286   .     A
O1472  Cu1484  1.962   .     S
O1473  Cu1484  1.957   .     S
O1473  C1573   1.289   .     S
O1474  Cu1483  1.957   .     S
O1474  C1672   1.289   1_455 S
C1475  C1514   1.446   .     S
C1475  O1669   1.289   1_455 S
C1476  C1513   1.444   .     S
C1476  O1572   1.289   .     S
O1477  Cu1483  1.943   .     S
O1477  C1677   1.291   1_455 S
O1478  Cu1484  1.943   .     S
O1478  C1580   1.299   .     S
O1479  Cu1484  1.929   .     S
O1479  C1481   1.301   .     A
O1480  C1482   1.302   .     A
O1480  Cu1483  1.929   .     S
C1481  C1485   1.484   .     S
C1481  O1575   1.291   .     S
C1482  C1486   1.500   .     S
C1482  O1674   1.299   1_455 S
Cu1483 N1523   2.008   .     S
Cu1483 Cu1680  2.671   1_455 S
Cu1484 N1524   2.008   .     S
Cu1484 Cu1581  2.671   .     S
C1485  C1489   1.428   .     A
C1485  C1491   1.414   .     A
C1486  C1490   1.435   .     A
C1486  C1492   1.427   .     A
C1487  Cl1565  1.781   .     S
C1487  C1495   1.409   .     A
C1487  C1489   1.411   .     A
C1488  C1496   1.405   .     A
C1488  C1490   1.415   .     A
C1488  Cl1762  1.769   1_455 S
C1489  C1653   1.525   .     S
C1490  C1741   1.527   1_455 S
C1491  C1493   1.420   .     A
C1491  C1535   1.537   .     S
C1492  C1525   1.540   .     S
C1492  C1494   1.414   .     A
C1493  C1497   1.424   .     A
C1493  C1495   1.421   .     A
C1494  C1496   1.406   .     A
C1494  C1498   1.409   .     A
C1495  C619    1.403   1_556 S
C1497  C1500   1.409   .     A
C1497  C616    1.411   1_556 S
C1498  C1499   1.399   .     A
C1499  H1505   1.082   .     S
C1499  C1501   1.383   .     A
C1500  C1502   1.398   .     A
C1500  H1506   1.079   .     S
C1501  H1503   1.075   .     S
C1502  H1504   1.082   .     S
C1502  C614    1.406   1_556 S
C1507  H1509   1.084   .     S
C1507  C1612   1.400   .     S
C1508  H1510   1.084   .     S
C1508  C924    1.382   1_565 S
C1508  C1709   1.397   1_455 S
C1511  Cl1567  1.765   .     S
C1511  C1513   1.408   .     A
C1511  C919    1.386   1_565 S
C1512  Cl1568  1.760   .     S
C1512  C1514   1.407   .     A
C1513  C1606   1.397   .     S
C1514  C1703   1.400   1_455 S
C1515  H1517   1.082   .     S
C1515  C1519   1.415   .     A
C1515  N1524   1.367   .     A
C1516  H1518   1.082   .     S
C1516  C1520   1.414   .     A
C1516  N1523   1.367   .     A
C1519  H1521   1.082   .     S
C1519  N1523   1.366   .     A
C1520  N1524   1.364   .     A
C1520  H1522   1.077   .     S
C1525  C1526   1.545   .     S
C1525  H1533   1.109   .     S
C1525  H1534   1.106   .     S
C1526  C1527   1.527   .     S
C1526  H1532   1.105   .     S
C1526  H1531   1.112   .     S
C1527  H1529   1.108   .     S
C1527  H1530   1.111   .     S
C1527  H1528   1.110   .     S
C1535  H1543   1.104   .     S
C1535  H1544   1.111   .     S
C1535  C1536   1.538   .     S
C1536  H1542   1.109   .     S
C1536  C1537   1.528   .     S
C1536  H1541   1.112   .     S
C1537  H1538   1.111   .     S
C1537  H1539   1.112   .     S
C1537  H1540   1.111   .     S
C1545  C1546   1.544   .     S
C1545  H1554   1.107   .     S
C1545  H1553   1.106   .     S
C1545  C1588   1.527   .     S
C1546  C1547   1.533   .     S
C1546  H1552   1.113   .     S
C1546  H1551   1.109   .     S
C1547  H1548   1.111   .     S
C1547  H1549   1.111   .     S
C1547  H1550   1.108   .     S
C1555  H1563   1.109   .     S
C1555  C1556   1.532   .     S
C1555  H1564   1.104   .     S
C1555  C1685   1.525   1_455 S
C1556  H1561   1.107   .     S
C1556  C1557   1.526   .     S
C1556  H1562   1.111   .     S
C1557  H1558   1.111   .     S
C1557  H1559   1.110   .     S
C1557  H1560   1.110   .     S
Cl1566 C1586   1.769   .     S
O1569  C1573   1.287   .     A
O1569  Cu1581  1.962   .     S
O1570  C1574   1.286   .     A
O1570  Cu1582  1.962   .     S
O1571  Cu1582  1.957   .     S
O1571  C1671   1.289   .     S
O1572  Cu1581  1.957   .     S
C1573  C1612   1.446   .     S
C1574  C1611   1.444   .     S
C1574  O1670   1.289   .     S
O1575  Cu1581  1.943   .     S
O1576  Cu1582  1.943   .     S
O1576  C1678   1.299   .     S
O1577  Cu1582  1.929   .     S
O1577  C1579   1.301   .     A
O1578  C1580   1.302   .     A
O1578  Cu1581  1.929   .     S
C1579  C1583   1.484   .     S
C1579  O1673   1.291   .     S
C1580  C1584   1.500   .     S
Cu1581 N1621   2.008   .     S
Cu1582 N1622   2.008   .     S
Cu1582 Cu1679  2.671   .     S
C1583  C1587   1.428   .     A
C1583  C1589   1.414   .     A
C1584  C1588   1.435   .     A
C1584  C1590   1.427   .     A
C1585  Cl1663  1.781   .     S
C1585  C1593   1.409   .     A
C1585  C1587   1.411   .     A
C1586  C1594   1.405   .     A
C1586  C1588   1.415   .     A
C1587  C1751   1.525   .     S
C1589  C1591   1.420   .     A
C1589  C1633   1.537   .     S
C1590  C1623   1.540   .     S
C1590  C1592   1.414   .     A
C1591  C1595   1.424   .     A
C1591  C1593   1.421   .     A
C1592  C1594   1.406   .     A
C1592  C1596   1.409   .     A
C1593  C717    1.403   1_556 S
C1595  C1598   1.409   .     A
C1595  C714    1.411   1_556 S
C1596  C1597   1.399   .     A
C1597  H1603   1.082   .     S
C1597  C1599   1.383   .     A
C1598  C1600   1.398   .     A
C1598  H1604   1.079   .     S
C1599  H1601   1.075   .     S
C1600  H1602   1.082   .     S
C1600  C712    1.406   1_556 S
C1605  H1607   1.084   .     S
C1605  C1710   1.400   .     S
C1606  H1608   1.084   .     S
C1606  C1022   1.382   1_565 S
C1609  Cl1665  1.765   .     S
C1609  C1611   1.408   .     A
C1609  C1017   1.386   1_565 S
C1610  Cl1666  1.760   .     S
C1610  C1612   1.407   .     A
C1611  C1704   1.397   .     S
C1613  H1615   1.082   .     S
C1613  C1617   1.415   .     A
C1613  N1622   1.367   .     A
C1614  H1616   1.082   .     S
C1614  C1618   1.414   .     A
C1614  N1621   1.367   .     A
C1617  H1619   1.082   .     S
C1617  N1621   1.366   .     A
C1618  N1622   1.364   .     A
C1618  H1620   1.077   .     S
C1623  C1624   1.545   .     S
C1623  H1631   1.109   .     S
C1623  H1632   1.106   .     S
C1624  C1625   1.527   .     S
C1624  H1630   1.105   .     S
C1624  H1629   1.112   .     S
C1625  H1627   1.108   .     S
C1625  H1628   1.111   .     S
C1625  H1626   1.110   .     S
C1633  H1641   1.104   .     S
C1633  H1642   1.111   .     S
C1633  C1634   1.538   .     S
C1634  H1640   1.109   .     S
C1634  C1635   1.528   .     S
C1634  H1639   1.112   .     S
C1635  H1636   1.111   .     S
C1635  H1637   1.112   .     S
C1635  H1638   1.111   .     S
C1643  C1644   1.544   .     S
C1643  H1652   1.107   .     S
C1643  H1651   1.106   .     S
C1643  C1686   1.527   .     S
C1644  C1645   1.533   .     S
C1644  H1650   1.113   .     S
C1644  H1649   1.109   .     S
C1645  H1646   1.111   .     S
C1645  H1647   1.111   .     S
C1645  H1648   1.108   .     S
C1653  H1661   1.109   .     S
C1653  C1654   1.532   .     S
C1653  H1662   1.104   .     S
C1654  H1659   1.107   .     S
C1654  C1655   1.526   .     S
C1654  H1660   1.111   .     S
C1655  H1656   1.111   .     S
C1655  H1657   1.110   .     S
C1655  H1658   1.110   .     S
Cl1664 C1684   1.769   .     S
O1667  C1671   1.287   .     A
O1667  Cu1679  1.962   .     S
O1668  C1672   1.286   .     A
O1668  Cu1680  1.962   .     S
O1669  Cu1680  1.957   .     S
O1669  C1475   1.289   1_655 S
O1670  Cu1679  1.957   .     S
C1671  C1710   1.446   .     S
C1672  C1709   1.444   .     S
C1672  O1474   1.289   1_655 S
O1673  Cu1679  1.943   .     S
O1674  Cu1680  1.943   .     S
O1674  C1482   1.299   1_655 S
O1675  Cu1680  1.929   .     S
O1675  C1677   1.301   .     A
O1676  C1678   1.302   .     A
O1676  Cu1679  1.929   .     S
C1677  C1681   1.484   .     S
C1677  O1477   1.291   1_655 S
C1678  C1682   1.500   .     S
Cu1679 N1719   2.008   .     S
Cu1680 N1720   2.008   .     S
Cu1680 Cu1483  2.671   1_655 S
C1681  C1685   1.428   .     A
C1681  C1687   1.414   .     A
C1682  C1686   1.435   .     A
C1682  C1688   1.427   .     A
C1683  Cl1761  1.781   .     S
C1683  C1691   1.409   .     A
C1683  C1685   1.411   .     A
C1684  C1692   1.405   .     A
C1684  C1686   1.415   .     A
C1685  C1555   1.525   1_655 S
C1687  C1689   1.420   .     A
C1687  C1731   1.537   .     S
C1688  C1721   1.540   .     S
C1688  C1690   1.414   .     A
C1689  C1693   1.424   .     A
C1689  C1691   1.421   .     A
C1690  C1692   1.406   .     A
C1690  C1694   1.409   .     A
C1691  C815    1.403   1_556 S
C1693  C1696   1.409   .     A
C1693  C812    1.411   1_556 S
C1694  C1695   1.399   .     A
C1695  H1701   1.082   .     S
C1695  C1697   1.383   .     A
C1696  C1698   1.398   .     A
C1696  H1702   1.079   .     S
C1697  H1699   1.075   .     S
C1698  H1700   1.082   .     S
C1698  C810    1.406   1_556 S
C1703  H1705   1.084   .     S
C1703  C1514   1.400   1_655 S
C1704  H1706   1.084   .     S
C1704  C1120   1.382   1_565 S
C1707  Cl1763  1.765   .     S
C1707  C1709   1.408   .     A
C1707  C1115   1.386   1_565 S
C1708  Cl1764  1.760   .     S
C1708  C1710   1.407   .     A
C1709  C1508   1.397   1_655 S
C1711  H1713   1.082   .     S
C1711  C1715   1.415   .     A
C1711  N1720   1.367   .     A
C1712  H1714   1.082   .     S
C1712  C1716   1.414   .     A
C1712  N1719   1.367   .     A
C1715  H1717   1.082   .     S
C1715  N1719   1.366   .     A
C1716  N1720   1.364   .     A
C1716  H1718   1.077   .     S
C1721  C1722   1.545   .     S
C1721  H1729   1.109   .     S
C1721  H1730   1.106   .     S
C1722  C1723   1.527   .     S
C1722  H1728   1.105   .     S
C1722  H1727   1.112   .     S
C1723  H1725   1.108   .     S
C1723  H1726   1.111   .     S
C1723  H1724   1.110   .     S
C1731  H1739   1.104   .     S
C1731  H1740   1.111   .     S
C1731  C1732   1.538   .     S
C1732  H1738   1.109   .     S
C1732  C1733   1.528   .     S
C1732  H1737   1.112   .     S
C1733  H1734   1.111   .     S
C1733  H1735   1.112   .     S
C1733  H1736   1.111   .     S
C1741  C1742   1.544   .     S
C1741  H1750   1.107   .     S
C1741  H1749   1.106   .     S
C1741  C1490   1.527   1_655 S
C1742  C1743   1.533   .     S
C1742  H1748   1.113   .     S
C1742  H1747   1.109   .     S
C1743  H1744   1.111   .     S
C1743  H1745   1.111   .     S
C1743  H1746   1.108   .     S
C1751  H1759   1.109   .     S
C1751  C1752   1.532   .     S
C1751  H1760   1.104   .     S
C1752  H1757   1.107   .     S
C1752  C1753   1.526   .     S
C1752  H1758   1.111   .     S
C1753  H1754   1.111   .     S
C1753  H1755   1.110   .     S
C1753  H1756   1.110   .     S
Cl1762 C1488   1.769   1_655 S
