data_str_m2_o1_o10_pcu_sym.42
_audit_creation_date              2020-01-03
_audit_creation_method            'Materials Studio'
_symmetry_space_group_name_H-M    'P1'
_symmetry_Int_Tables_number       1
_symmetry_cell_setting            triclinic
loop_
_symmetry_equiv_pos_as_xyz
  x,y,z
_cell_length_a                    26.3962
_cell_length_b                    32.3907
_cell_length_c                    28.5615
_cell_angle_alpha                 89.9276
_cell_angle_beta                  97.7542
_cell_angle_gamma                 90.1975
loop_
_atom_site_label
_atom_site_type_symbol
_atom_site_fract_x
_atom_site_fract_y
_atom_site_fract_z
_atom_site_U_iso_or_equiv
_atom_site_adp_type
_atom_site_occupancy
C1     C     0.16814   0.08745   0.16688   0.00000  Uiso   1.00
C2     C     0.13797   0.02225   0.19557   0.00000  Uiso   1.00
C3     C     0.16397   0.29050   0.16602   0.00000  Uiso   1.00
C4     C     0.16936   0.04283   0.16731   0.00000  Uiso   1.00
C5     C     0.13406   0.14165   0.02076   0.00000  Uiso   1.00
C6     C     0.19928   0.19168   0.31257   0.00000  Uiso   1.00
C7     C     0.13409   0.14164   0.30449   0.00000  Uiso   1.00
C8     C     0.19924   0.19169   0.02884   0.00000  Uiso   1.00
C9     C     0.16520   0.24588   0.16645   0.00000  Uiso   1.00
C10    C     0.06807   0.16765   0.15473   0.00000  Uiso   1.00
C11    C     0.26526   0.16569   0.17860   0.00000  Uiso   1.00
C12    C     0.01304   0.17232   0.14882   0.00000  Uiso   1.00
C13    C     0.32030   0.16101   0.18451   0.00000  Uiso   1.00
C14    C     0.19925   0.02042   0.13867   0.00000  Uiso   1.00
C15    C     0.13408   0.31291   0.19466   0.00000  Uiso   1.00
C16    C     0.19536   0.31108   0.13776   0.00000  Uiso   1.00
Cu17   Cu    0.16667   0.16667   0.21355   0.00000  Uiso   1.00
Cu18   Cu    0.16667   0.16666   0.11978   0.00000  Uiso   1.00
H19    H     0.21873   0.29378   0.11628   0.00000  Uiso   1.00
H20    H     0.08942   0.26750   0.20733   0.00000  Uiso   1.00
H21    H     0.11460   0.03955   0.21706   0.00000  Uiso   1.00
H22    H     0.10797   0.12157   0.03622   0.00000  Uiso   1.00
H23    H     0.22536   0.21176   0.29712   0.00000  Uiso   1.00
H24    H     0.10808   0.12152   0.28259   0.00000  Uiso   1.00
H25    H     0.22525   0.21182   0.05075   0.00000  Uiso   1.00
H26    H     0.01352   0.19977   0.08767   0.00000  Uiso   1.00
H27    H     0.31981   0.13356   0.24566   0.00000  Uiso   1.00
H28    H     0.24392   0.06584   0.12600   0.00000  Uiso   1.00
N29    N     0.16668   0.16668   0.28403   0.00000  Uiso   1.00
N30    N     0.16665   0.16666   0.04931   0.00000  Uiso   1.00
O31    O     0.16666   0.10655   0.20625   0.00000  Uiso   1.00
O32    O     0.01185   0.14293   0.22533   0.00000  Uiso   1.00
O33    O     0.23352   0.03855   0.11234   0.00000  Uiso   1.00
O34    O     0.09982   0.29478   0.22099   0.00000  Uiso   1.00
O35    O     0.16667   0.22678   0.12709   0.00000  Uiso   1.00
O36    O     0.16666   0.10654   0.12706   0.00000  Uiso   1.00
O37    O     0.16667   0.22679   0.20628   0.00000  Uiso   1.00
O38    O     0.09161   0.16667   0.19712   0.00000  Uiso   1.00
O39    O     0.24172   0.16666   0.13621   0.00000  Uiso   1.00
O40    O     0.09161   0.16666   0.11793   0.00000  Uiso   1.00
O41    O     0.24172   0.16667   0.21540   0.00000  Uiso   1.00
O42    O     0.32148   0.19040   0.10800   0.00000  Uiso   1.00
C43    C     0.50147   0.08745   0.16688   0.00000  Uiso   1.00
C44    C     0.47130   0.02225   0.19557   0.00000  Uiso   1.00
C45    C     0.49730   0.29050   0.16602   0.00000  Uiso   1.00
C46    C     0.50270   0.04283   0.16731   0.00000  Uiso   1.00
C47    C     0.46739   0.14165   0.02076   0.00000  Uiso   1.00
C48    C     0.53261   0.19168   0.31257   0.00000  Uiso   1.00
C49    C     0.46742   0.14164   0.30449   0.00000  Uiso   1.00
C50    C     0.53258   0.19169   0.02884   0.00000  Uiso   1.00
C51    C     0.49853   0.24588   0.16645   0.00000  Uiso   1.00
C52    C     0.40141   0.16765   0.15473   0.00000  Uiso   1.00
C53    C     0.59859   0.16569   0.17860   0.00000  Uiso   1.00
C54    C     0.34637   0.17232   0.14882   0.00000  Uiso   1.00
C55    C     0.65363   0.16101   0.18451   0.00000  Uiso   1.00
C56    C     0.53258   0.02042   0.13867   0.00000  Uiso   1.00
C57    C     0.46742   0.31291   0.19466   0.00000  Uiso   1.00
C58    C     0.52870   0.31108   0.13776   0.00000  Uiso   1.00
Cu59   Cu    0.50000   0.16667   0.21355   0.00000  Uiso   1.00
Cu60   Cu    0.50000   0.16666   0.11978   0.00000  Uiso   1.00
H61    H     0.55206   0.29378   0.11628   0.00000  Uiso   1.00
H62    H     0.42275   0.26750   0.20733   0.00000  Uiso   1.00
H63    H     0.44793   0.03955   0.21706   0.00000  Uiso   1.00
H64    H     0.44131   0.12157   0.03622   0.00000  Uiso   1.00
H65    H     0.55869   0.21176   0.29712   0.00000  Uiso   1.00
H66    H     0.44142   0.12152   0.28259   0.00000  Uiso   1.00
H67    H     0.55858   0.21182   0.05075   0.00000  Uiso   1.00
H68    H     0.34686   0.19977   0.08767   0.00000  Uiso   1.00
H69    H     0.65314   0.13356   0.24566   0.00000  Uiso   1.00
H70    H     0.57725   0.06584   0.12600   0.00000  Uiso   1.00
N71    N     0.50001   0.16668   0.28403   0.00000  Uiso   1.00
N72    N     0.49999   0.16666   0.04931   0.00000  Uiso   1.00
O73    O     0.50000   0.10655   0.20625   0.00000  Uiso   1.00
O74    O     0.34519   0.14293   0.22533   0.00000  Uiso   1.00
O75    O     0.56685   0.03855   0.11234   0.00000  Uiso   1.00
O76    O     0.43315   0.29478   0.22099   0.00000  Uiso   1.00
O77    O     0.50000   0.22678   0.12709   0.00000  Uiso   1.00
O78    O     0.50000   0.10654   0.12706   0.00000  Uiso   1.00
O79    O     0.50000   0.22679   0.20628   0.00000  Uiso   1.00
O80    O     0.42495   0.16667   0.19712   0.00000  Uiso   1.00
O81    O     0.57505   0.16666   0.13621   0.00000  Uiso   1.00
O82    O     0.42494   0.16666   0.11793   0.00000  Uiso   1.00
O83    O     0.57506   0.16667   0.21540   0.00000  Uiso   1.00
O84    O     0.65481   0.19040   0.10800   0.00000  Uiso   1.00
C85    C     0.83480   0.08745   0.16688   0.00000  Uiso   1.00
C86    C     0.80463   0.02225   0.19557   0.00000  Uiso   1.00
C87    C     0.83064   0.29050   0.16602   0.00000  Uiso   1.00
C88    C     0.83603   0.04283   0.16731   0.00000  Uiso   1.00
C89    C     0.80072   0.14165   0.02076   0.00000  Uiso   1.00
C90    C     0.86594   0.19168   0.31257   0.00000  Uiso   1.00
C91    C     0.80075   0.14164   0.30449   0.00000  Uiso   1.00
C92    C     0.86591   0.19169   0.02884   0.00000  Uiso   1.00
C93    C     0.83186   0.24588   0.16645   0.00000  Uiso   1.00
C94    C     0.73474   0.16765   0.15473   0.00000  Uiso   1.00
C95    C     0.93193   0.16569   0.17860   0.00000  Uiso   1.00
C96    C     0.67970   0.17232   0.14882   0.00000  Uiso   1.00
C97    C     0.98696   0.16101   0.18451   0.00000  Uiso   1.00
C98    C     0.86592   0.02042   0.13867   0.00000  Uiso   1.00
C99    C     0.80075   0.31291   0.19466   0.00000  Uiso   1.00
C100   C     0.86203   0.31108   0.13776   0.00000  Uiso   1.00
Cu101  Cu    0.83333   0.16667   0.21355   0.00000  Uiso   1.00
Cu102  Cu    0.83333   0.16666   0.11978   0.00000  Uiso   1.00
H103   H     0.88540   0.29378   0.11628   0.00000  Uiso   1.00
H104   H     0.75608   0.26750   0.20733   0.00000  Uiso   1.00
H105   H     0.78127   0.03955   0.21706   0.00000  Uiso   1.00
H106   H     0.77464   0.12157   0.03622   0.00000  Uiso   1.00
H107   H     0.89202   0.21176   0.29712   0.00000  Uiso   1.00
H108   H     0.77475   0.12152   0.28259   0.00000  Uiso   1.00
H109   H     0.89192   0.21182   0.05075   0.00000  Uiso   1.00
H110   H     0.68019   0.19977   0.08767   0.00000  Uiso   1.00
H111   H     0.98648   0.13356   0.24566   0.00000  Uiso   1.00
H112   H     0.91058   0.06584   0.12600   0.00000  Uiso   1.00
N113   N     0.83335   0.16668   0.28403   0.00000  Uiso   1.00
N114   N     0.83332   0.16666   0.04931   0.00000  Uiso   1.00
O115   O     0.83333   0.10655   0.20625   0.00000  Uiso   1.00
O116   O     0.67852   0.14293   0.22533   0.00000  Uiso   1.00
O117   O     0.90018   0.03855   0.11234   0.00000  Uiso   1.00
O118   O     0.76648   0.29478   0.22099   0.00000  Uiso   1.00
O119   O     0.83334   0.22678   0.12709   0.00000  Uiso   1.00
O120   O     0.83333   0.10654   0.12706   0.00000  Uiso   1.00
O121   O     0.83334   0.22679   0.20628   0.00000  Uiso   1.00
O122   O     0.75828   0.16667   0.19712   0.00000  Uiso   1.00
O123   O     0.90839   0.16666   0.13621   0.00000  Uiso   1.00
O124   O     0.75828   0.16666   0.11793   0.00000  Uiso   1.00
O125   O     0.90839   0.16667   0.21540   0.00000  Uiso   1.00
O126   O     0.98815   0.19040   0.10800   0.00000  Uiso   1.00
C127   C     0.16814   0.42078   0.16688   0.00000  Uiso   1.00
C128   C     0.13797   0.35559   0.19557   0.00000  Uiso   1.00
C129   C     0.16397   0.62384   0.16602   0.00000  Uiso   1.00
C130   C     0.16936   0.37616   0.16731   0.00000  Uiso   1.00
C131   C     0.13406   0.47498   0.02076   0.00000  Uiso   1.00
C132   C     0.19928   0.52502   0.31257   0.00000  Uiso   1.00
C133   C     0.13409   0.47498   0.30449   0.00000  Uiso   1.00
C134   C     0.19924   0.52502   0.02884   0.00000  Uiso   1.00
C135   C     0.16520   0.57922   0.16645   0.00000  Uiso   1.00
C136   C     0.06807   0.50098   0.15473   0.00000  Uiso   1.00
C137   C     0.26526   0.49902   0.17860   0.00000  Uiso   1.00
C138   C     0.01304   0.50566   0.14882   0.00000  Uiso   1.00
C139   C     0.32030   0.49434   0.18451   0.00000  Uiso   1.00
C140   C     0.19925   0.35375   0.13867   0.00000  Uiso   1.00
C141   C     0.13408   0.64625   0.19466   0.00000  Uiso   1.00
C142   C     0.19536   0.64441   0.13776   0.00000  Uiso   1.00
Cu143  Cu    0.16667   0.50001   0.21355   0.00000  Uiso   1.00
Cu144  Cu    0.16667   0.49999   0.11978   0.00000  Uiso   1.00
H145   H     0.21873   0.62711   0.11628   0.00000  Uiso   1.00
H146   H     0.08942   0.60083   0.20733   0.00000  Uiso   1.00
H147   H     0.11460   0.37289   0.21706   0.00000  Uiso   1.00
H148   H     0.10797   0.45490   0.03622   0.00000  Uiso   1.00
H149   H     0.22536   0.54510   0.29712   0.00000  Uiso   1.00
H150   H     0.10808   0.45485   0.28259   0.00000  Uiso   1.00
H151   H     0.22525   0.54515   0.05075   0.00000  Uiso   1.00
H152   H     0.01352   0.53310   0.08767   0.00000  Uiso   1.00
H153   H     0.31981   0.46690   0.24566   0.00000  Uiso   1.00
H154   H     0.24392   0.39917   0.12600   0.00000  Uiso   1.00
N155   N     0.16668   0.50001   0.28403   0.00000  Uiso   1.00
N156   N     0.16665   0.49999   0.04931   0.00000  Uiso   1.00
O157   O     0.16666   0.43989   0.20625   0.00000  Uiso   1.00
O158   O     0.01185   0.47627   0.22533   0.00000  Uiso   1.00
O159   O     0.23352   0.37188   0.11234   0.00000  Uiso   1.00
O160   O     0.09982   0.62812   0.22099   0.00000  Uiso   1.00
O161   O     0.16667   0.56011   0.12709   0.00000  Uiso   1.00
O162   O     0.16666   0.43988   0.12706   0.00000  Uiso   1.00
O163   O     0.16667   0.56012   0.20628   0.00000  Uiso   1.00
O164   O     0.09161   0.50000   0.19712   0.00000  Uiso   1.00
O165   O     0.24172   0.50000   0.13621   0.00000  Uiso   1.00
O166   O     0.09161   0.49999   0.11793   0.00000  Uiso   1.00
O167   O     0.24172   0.50001   0.21540   0.00000  Uiso   1.00
O168   O     0.32148   0.52373   0.10800   0.00000  Uiso   1.00
C169   C     0.50147   0.42078   0.16688   0.00000  Uiso   1.00
C170   C     0.47130   0.35559   0.19557   0.00000  Uiso   1.00
C171   C     0.49730   0.62384   0.16602   0.00000  Uiso   1.00
C172   C     0.50270   0.37616   0.16731   0.00000  Uiso   1.00
C173   C     0.46739   0.47498   0.02076   0.00000  Uiso   1.00
C174   C     0.53261   0.52502   0.31257   0.00000  Uiso   1.00
C175   C     0.46742   0.47498   0.30449   0.00000  Uiso   1.00
C176   C     0.53258   0.52502   0.02884   0.00000  Uiso   1.00
C177   C     0.49853   0.57922   0.16645   0.00000  Uiso   1.00
C178   C     0.40141   0.50098   0.15473   0.00000  Uiso   1.00
C179   C     0.59859   0.49902   0.17860   0.00000  Uiso   1.00
C180   C     0.34637   0.50566   0.14882   0.00000  Uiso   1.00
C181   C     0.65363   0.49434   0.18451   0.00000  Uiso   1.00
C182   C     0.53258   0.35375   0.13867   0.00000  Uiso   1.00
C183   C     0.46742   0.64625   0.19466   0.00000  Uiso   1.00
C184   C     0.52870   0.64441   0.13776   0.00000  Uiso   1.00
Cu185  Cu    0.50000   0.50001   0.21355   0.00000  Uiso   1.00
Cu186  Cu    0.50000   0.49999   0.11978   0.00000  Uiso   1.00
H187   H     0.55206   0.62711   0.11628   0.00000  Uiso   1.00
H188   H     0.42275   0.60083   0.20733   0.00000  Uiso   1.00
H189   H     0.44793   0.37289   0.21706   0.00000  Uiso   1.00
H190   H     0.44131   0.45490   0.03622   0.00000  Uiso   1.00
H191   H     0.55869   0.54510   0.29712   0.00000  Uiso   1.00
H192   H     0.44142   0.45485   0.28259   0.00000  Uiso   1.00
H193   H     0.55858   0.54515   0.05075   0.00000  Uiso   1.00
H194   H     0.34686   0.53310   0.08767   0.00000  Uiso   1.00
H195   H     0.65314   0.46690   0.24566   0.00000  Uiso   1.00
H196   H     0.57725   0.39917   0.12600   0.00000  Uiso   1.00
N197   N     0.50001   0.50001   0.28403   0.00000  Uiso   1.00
N198   N     0.49999   0.49999   0.04931   0.00000  Uiso   1.00
O199   O     0.50000   0.43989   0.20625   0.00000  Uiso   1.00
O200   O     0.34519   0.47627   0.22533   0.00000  Uiso   1.00
O201   O     0.56685   0.37188   0.11234   0.00000  Uiso   1.00
O202   O     0.43315   0.62812   0.22099   0.00000  Uiso   1.00
O203   O     0.50000   0.56011   0.12709   0.00000  Uiso   1.00
O204   O     0.50000   0.43988   0.12706   0.00000  Uiso   1.00
O205   O     0.50000   0.56012   0.20628   0.00000  Uiso   1.00
O206   O     0.42495   0.50000   0.19712   0.00000  Uiso   1.00
O207   O     0.57505   0.50000   0.13621   0.00000  Uiso   1.00
O208   O     0.42494   0.49999   0.11793   0.00000  Uiso   1.00
O209   O     0.57506   0.50001   0.21540   0.00000  Uiso   1.00
O210   O     0.65481   0.52373   0.10800   0.00000  Uiso   1.00
C211   C     0.83480   0.42078   0.16688   0.00000  Uiso   1.00
C212   C     0.80463   0.35559   0.19557   0.00000  Uiso   1.00
C213   C     0.83064   0.62384   0.16602   0.00000  Uiso   1.00
C214   C     0.83603   0.37616   0.16731   0.00000  Uiso   1.00
C215   C     0.80072   0.47498   0.02076   0.00000  Uiso   1.00
C216   C     0.86594   0.52502   0.31257   0.00000  Uiso   1.00
C217   C     0.80075   0.47498   0.30449   0.00000  Uiso   1.00
C218   C     0.86591   0.52502   0.02884   0.00000  Uiso   1.00
C219   C     0.83186   0.57922   0.16645   0.00000  Uiso   1.00
C220   C     0.73474   0.50098   0.15473   0.00000  Uiso   1.00
C221   C     0.93193   0.49902   0.17860   0.00000  Uiso   1.00
C222   C     0.67970   0.50566   0.14882   0.00000  Uiso   1.00
C223   C     0.98696   0.49434   0.18451   0.00000  Uiso   1.00
C224   C     0.86592   0.35375   0.13867   0.00000  Uiso   1.00
C225   C     0.80075   0.64625   0.19466   0.00000  Uiso   1.00
C226   C     0.86203   0.64441   0.13776   0.00000  Uiso   1.00
Cu227  Cu    0.83333   0.50001   0.21355   0.00000  Uiso   1.00
Cu228  Cu    0.83333   0.49999   0.11978   0.00000  Uiso   1.00
H229   H     0.88540   0.62711   0.11628   0.00000  Uiso   1.00
H230   H     0.75608   0.60083   0.20733   0.00000  Uiso   1.00
H231   H     0.78127   0.37289   0.21706   0.00000  Uiso   1.00
H232   H     0.77464   0.45490   0.03622   0.00000  Uiso   1.00
H233   H     0.89202   0.54510   0.29712   0.00000  Uiso   1.00
H234   H     0.77475   0.45485   0.28259   0.00000  Uiso   1.00
H235   H     0.89192   0.54515   0.05075   0.00000  Uiso   1.00
H236   H     0.68019   0.53310   0.08767   0.00000  Uiso   1.00
H237   H     0.98648   0.46690   0.24566   0.00000  Uiso   1.00
H238   H     0.91058   0.39917   0.12600   0.00000  Uiso   1.00
N239   N     0.83335   0.50001   0.28403   0.00000  Uiso   1.00
N240   N     0.83332   0.49999   0.04931   0.00000  Uiso   1.00
O241   O     0.83333   0.43989   0.20625   0.00000  Uiso   1.00
O242   O     0.67852   0.47627   0.22533   0.00000  Uiso   1.00
O243   O     0.90018   0.37188   0.11234   0.00000  Uiso   1.00
O244   O     0.76648   0.62812   0.22099   0.00000  Uiso   1.00
O245   O     0.83334   0.56011   0.12709   0.00000  Uiso   1.00
O246   O     0.83333   0.43988   0.12706   0.00000  Uiso   1.00
O247   O     0.83334   0.56012   0.20628   0.00000  Uiso   1.00
O248   O     0.75828   0.50000   0.19712   0.00000  Uiso   1.00
O249   O     0.90839   0.50000   0.13621   0.00000  Uiso   1.00
O250   O     0.75828   0.49999   0.11793   0.00000  Uiso   1.00
O251   O     0.90839   0.50001   0.21540   0.00000  Uiso   1.00
O252   O     0.98815   0.52373   0.10800   0.00000  Uiso   1.00
C253   C     0.16814   0.75412   0.16688   0.00000  Uiso   1.00
C254   C     0.13797   0.68892   0.19557   0.00000  Uiso   1.00
C255   C     0.16397   0.95717   0.16602   0.00000  Uiso   1.00
C256   C     0.16936   0.70949   0.16731   0.00000  Uiso   1.00
C257   C     0.13406   0.80832   0.02076   0.00000  Uiso   1.00
C258   C     0.19928   0.85835   0.31257   0.00000  Uiso   1.00
C259   C     0.13409   0.80831   0.30449   0.00000  Uiso   1.00
C260   C     0.19924   0.85836   0.02884   0.00000  Uiso   1.00
C261   C     0.16520   0.91255   0.16645   0.00000  Uiso   1.00
C262   C     0.06807   0.83431   0.15473   0.00000  Uiso   1.00
C263   C     0.26526   0.83235   0.17860   0.00000  Uiso   1.00
C264   C     0.01304   0.83899   0.14882   0.00000  Uiso   1.00
C265   C     0.32030   0.82768   0.18451   0.00000  Uiso   1.00
C266   C     0.19925   0.68709   0.13867   0.00000  Uiso   1.00
C267   C     0.13408   0.97958   0.19466   0.00000  Uiso   1.00
C268   C     0.19536   0.97775   0.13776   0.00000  Uiso   1.00
Cu269  Cu    0.16667   0.83334   0.21355   0.00000  Uiso   1.00
Cu270  Cu    0.16667   0.83333   0.11978   0.00000  Uiso   1.00
H271   H     0.21873   0.96045   0.11628   0.00000  Uiso   1.00
H272   H     0.08942   0.93416   0.20733   0.00000  Uiso   1.00
H273   H     0.11460   0.70622   0.21706   0.00000  Uiso   1.00
H274   H     0.10797   0.78824   0.03622   0.00000  Uiso   1.00
H275   H     0.22536   0.87843   0.29712   0.00000  Uiso   1.00
H276   H     0.10808   0.78818   0.28259   0.00000  Uiso   1.00
H277   H     0.22525   0.87848   0.05075   0.00000  Uiso   1.00
H278   H     0.01352   0.86644   0.08767   0.00000  Uiso   1.00
H279   H     0.31981   0.80023   0.24566   0.00000  Uiso   1.00
H280   H     0.24392   0.73250   0.12600   0.00000  Uiso   1.00
N281   N     0.16668   0.83334   0.28403   0.00000  Uiso   1.00
N282   N     0.16665   0.83332   0.04931   0.00000  Uiso   1.00
O283   O     0.16666   0.77322   0.20625   0.00000  Uiso   1.00
O284   O     0.01185   0.80960   0.22533   0.00000  Uiso   1.00
O285   O     0.23352   0.70522   0.11234   0.00000  Uiso   1.00
O286   O     0.09982   0.96145   0.22099   0.00000  Uiso   1.00
O287   O     0.16667   0.89345   0.12709   0.00000  Uiso   1.00
O288   O     0.16666   0.77321   0.12706   0.00000  Uiso   1.00
O289   O     0.16667   0.89346   0.20628   0.00000  Uiso   1.00
O290   O     0.09161   0.83334   0.19712   0.00000  Uiso   1.00
O291   O     0.24172   0.83333   0.13621   0.00000  Uiso   1.00
O292   O     0.09161   0.83333   0.11793   0.00000  Uiso   1.00
O293   O     0.24172   0.83334   0.21540   0.00000  Uiso   1.00
O294   O     0.32148   0.85707   0.10800   0.00000  Uiso   1.00
C295   C     0.50147   0.75412   0.16688   0.00000  Uiso   1.00
C296   C     0.47130   0.68892   0.19557   0.00000  Uiso   1.00
C297   C     0.49730   0.95717   0.16602   0.00000  Uiso   1.00
C298   C     0.50270   0.70949   0.16731   0.00000  Uiso   1.00
C299   C     0.46739   0.80832   0.02076   0.00000  Uiso   1.00
C300   C     0.53261   0.85835   0.31257   0.00000  Uiso   1.00
C301   C     0.46742   0.80831   0.30449   0.00000  Uiso   1.00
C302   C     0.53258   0.85836   0.02884   0.00000  Uiso   1.00
C303   C     0.49853   0.91255   0.16645   0.00000  Uiso   1.00
C304   C     0.40141   0.83431   0.15473   0.00000  Uiso   1.00
C305   C     0.59859   0.83235   0.17860   0.00000  Uiso   1.00
C306   C     0.34637   0.83899   0.14882   0.00000  Uiso   1.00
C307   C     0.65363   0.82768   0.18451   0.00000  Uiso   1.00
C308   C     0.53258   0.68709   0.13867   0.00000  Uiso   1.00
C309   C     0.46742   0.97958   0.19466   0.00000  Uiso   1.00
C310   C     0.52870   0.97775   0.13776   0.00000  Uiso   1.00
Cu311  Cu    0.50000   0.83334   0.21355   0.00000  Uiso   1.00
Cu312  Cu    0.50000   0.83333   0.11978   0.00000  Uiso   1.00
H313   H     0.55206   0.96045   0.11628   0.00000  Uiso   1.00
H314   H     0.42275   0.93416   0.20733   0.00000  Uiso   1.00
H315   H     0.44793   0.70622   0.21706   0.00000  Uiso   1.00
H316   H     0.44131   0.78824   0.03622   0.00000  Uiso   1.00
H317   H     0.55869   0.87843   0.29712   0.00000  Uiso   1.00
H318   H     0.44142   0.78818   0.28259   0.00000  Uiso   1.00
H319   H     0.55858   0.87848   0.05075   0.00000  Uiso   1.00
H320   H     0.34686   0.86644   0.08767   0.00000  Uiso   1.00
H321   H     0.65314   0.80023   0.24566   0.00000  Uiso   1.00
H322   H     0.57725   0.73250   0.12600   0.00000  Uiso   1.00
N323   N     0.50001   0.83334   0.28403   0.00000  Uiso   1.00
N324   N     0.49999   0.83332   0.04931   0.00000  Uiso   1.00
O325   O     0.50000   0.77322   0.20625   0.00000  Uiso   1.00
O326   O     0.34519   0.80960   0.22533   0.00000  Uiso   1.00
O327   O     0.56685   0.70522   0.11234   0.00000  Uiso   1.00
O328   O     0.43315   0.96145   0.22099   0.00000  Uiso   1.00
O329   O     0.50000   0.89345   0.12709   0.00000  Uiso   1.00
O330   O     0.50000   0.77321   0.12706   0.00000  Uiso   1.00
O331   O     0.50000   0.89346   0.20628   0.00000  Uiso   1.00
O332   O     0.42495   0.83334   0.19712   0.00000  Uiso   1.00
O333   O     0.57505   0.83333   0.13621   0.00000  Uiso   1.00
O334   O     0.42494   0.83333   0.11793   0.00000  Uiso   1.00
O335   O     0.57506   0.83334   0.21540   0.00000  Uiso   1.00
O336   O     0.65481   0.85707   0.10800   0.00000  Uiso   1.00
C337   C     0.83480   0.75412   0.16688   0.00000  Uiso   1.00
C338   C     0.80463   0.68892   0.19557   0.00000  Uiso   1.00
C339   C     0.83064   0.95717   0.16602   0.00000  Uiso   1.00
C340   C     0.83603   0.70949   0.16731   0.00000  Uiso   1.00
C341   C     0.80072   0.80832   0.02076   0.00000  Uiso   1.00
C342   C     0.86594   0.85835   0.31257   0.00000  Uiso   1.00
C343   C     0.80075   0.80831   0.30449   0.00000  Uiso   1.00
C344   C     0.86591   0.85836   0.02884   0.00000  Uiso   1.00
C345   C     0.83186   0.91255   0.16645   0.00000  Uiso   1.00
C346   C     0.73474   0.83431   0.15473   0.00000  Uiso   1.00
C347   C     0.93193   0.83235   0.17860   0.00000  Uiso   1.00
C348   C     0.67970   0.83899   0.14882   0.00000  Uiso   1.00
C349   C     0.98696   0.82768   0.18451   0.00000  Uiso   1.00
C350   C     0.86592   0.68709   0.13867   0.00000  Uiso   1.00
C351   C     0.80075   0.97958   0.19466   0.00000  Uiso   1.00
C352   C     0.86203   0.97775   0.13776   0.00000  Uiso   1.00
Cu353  Cu    0.83333   0.83334   0.21355   0.00000  Uiso   1.00
Cu354  Cu    0.83333   0.83333   0.11978   0.00000  Uiso   1.00
H355   H     0.88540   0.96045   0.11628   0.00000  Uiso   1.00
H356   H     0.75608   0.93416   0.20733   0.00000  Uiso   1.00
H357   H     0.78127   0.70622   0.21706   0.00000  Uiso   1.00
H358   H     0.77464   0.78824   0.03622   0.00000  Uiso   1.00
H359   H     0.89202   0.87843   0.29712   0.00000  Uiso   1.00
H360   H     0.77475   0.78818   0.28259   0.00000  Uiso   1.00
H361   H     0.89192   0.87848   0.05075   0.00000  Uiso   1.00
H362   H     0.68019   0.86644   0.08767   0.00000  Uiso   1.00
H363   H     0.98648   0.80023   0.24566   0.00000  Uiso   1.00
H364   H     0.91058   0.73250   0.12600   0.00000  Uiso   1.00
N365   N     0.83335   0.83334   0.28403   0.00000  Uiso   1.00
N366   N     0.83332   0.83332   0.04931   0.00000  Uiso   1.00
O367   O     0.83333   0.77322   0.20625   0.00000  Uiso   1.00
O368   O     0.67852   0.80960   0.22533   0.00000  Uiso   1.00
O369   O     0.90018   0.70522   0.11234   0.00000  Uiso   1.00
O370   O     0.76648   0.96145   0.22099   0.00000  Uiso   1.00
O371   O     0.83334   0.89345   0.12709   0.00000  Uiso   1.00
O372   O     0.83333   0.77321   0.12706   0.00000  Uiso   1.00
O373   O     0.83334   0.89346   0.20628   0.00000  Uiso   1.00
O374   O     0.75828   0.83334   0.19712   0.00000  Uiso   1.00
O375   O     0.90839   0.83333   0.13621   0.00000  Uiso   1.00
O376   O     0.75828   0.83333   0.11793   0.00000  Uiso   1.00
O377   O     0.90839   0.83334   0.21540   0.00000  Uiso   1.00
O378   O     0.98815   0.85707   0.10800   0.00000  Uiso   1.00
C379   C     0.16814   0.08745   0.50021   0.00000  Uiso   1.00
C380   C     0.13797   0.02225   0.52891   0.00000  Uiso   1.00
C381   C     0.16397   0.29050   0.49935   0.00000  Uiso   1.00
C382   C     0.16936   0.04283   0.50065   0.00000  Uiso   1.00
C383   C     0.13406   0.14165   0.35409   0.00000  Uiso   1.00
C384   C     0.19928   0.19168   0.64591   0.00000  Uiso   1.00
C385   C     0.13409   0.14164   0.63783   0.00000  Uiso   1.00
C386   C     0.19924   0.19169   0.36217   0.00000  Uiso   1.00
C387   C     0.16520   0.24588   0.49979   0.00000  Uiso   1.00
C388   C     0.06807   0.16765   0.48807   0.00000  Uiso   1.00
C389   C     0.26526   0.16569   0.51193   0.00000  Uiso   1.00
C390   C     0.01304   0.17232   0.48215   0.00000  Uiso   1.00
C391   C     0.32030   0.16101   0.51785   0.00000  Uiso   1.00
C392   C     0.19925   0.02042   0.47200   0.00000  Uiso   1.00
C393   C     0.13408   0.31291   0.52800   0.00000  Uiso   1.00
C394   C     0.19536   0.31108   0.47109   0.00000  Uiso   1.00
Cu395  Cu    0.16667   0.16667   0.54689   0.00000  Uiso   1.00
Cu396  Cu    0.16667   0.16666   0.45311   0.00000  Uiso   1.00
H397   H     0.21873   0.29378   0.44961   0.00000  Uiso   1.00
H398   H     0.08942   0.26750   0.54067   0.00000  Uiso   1.00
H399   H     0.11460   0.03955   0.55039   0.00000  Uiso   1.00
H400   H     0.10797   0.12157   0.36955   0.00000  Uiso   1.00
H401   H     0.22536   0.21176   0.63045   0.00000  Uiso   1.00
H402   H     0.10808   0.12152   0.61592   0.00000  Uiso   1.00
H403   H     0.22525   0.21182   0.38408   0.00000  Uiso   1.00
H404   H     0.01352   0.19977   0.42100   0.00000  Uiso   1.00
H405   H     0.31981   0.13356   0.57899   0.00000  Uiso   1.00
H406   H     0.24392   0.06584   0.45933   0.00000  Uiso   1.00
N407   N     0.16668   0.16668   0.61736   0.00000  Uiso   1.00
N408   N     0.16665   0.16666   0.38264   0.00000  Uiso   1.00
O409   O     0.16666   0.10655   0.53958   0.00000  Uiso   1.00
O410   O     0.01185   0.14293   0.55866   0.00000  Uiso   1.00
O411   O     0.23352   0.03855   0.44567   0.00000  Uiso   1.00
O412   O     0.09982   0.29478   0.55433   0.00000  Uiso   1.00
O413   O     0.16667   0.22678   0.46042   0.00000  Uiso   1.00
O414   O     0.16666   0.10654   0.46039   0.00000  Uiso   1.00
O415   O     0.16667   0.22679   0.53961   0.00000  Uiso   1.00
O416   O     0.09161   0.16667   0.53046   0.00000  Uiso   1.00
O417   O     0.24172   0.16666   0.46954   0.00000  Uiso   1.00
O418   O     0.09161   0.16666   0.45127   0.00000  Uiso   1.00
O419   O     0.24172   0.16667   0.54873   0.00000  Uiso   1.00
O420   O     0.32148   0.19040   0.44134   0.00000  Uiso   1.00
C421   C     0.50147   0.08745   0.50021   0.00000  Uiso   1.00
C422   C     0.47130   0.02225   0.52891   0.00000  Uiso   1.00
C423   C     0.49730   0.29050   0.49935   0.00000  Uiso   1.00
C424   C     0.50270   0.04283   0.50065   0.00000  Uiso   1.00
C425   C     0.46739   0.14165   0.35409   0.00000  Uiso   1.00
C426   C     0.53261   0.19168   0.64591   0.00000  Uiso   1.00
C427   C     0.46742   0.14164   0.63783   0.00000  Uiso   1.00
C428   C     0.53258   0.19169   0.36217   0.00000  Uiso   1.00
C429   C     0.49853   0.24588   0.49979   0.00000  Uiso   1.00
C430   C     0.40141   0.16765   0.48807   0.00000  Uiso   1.00
C431   C     0.59859   0.16569   0.51193   0.00000  Uiso   1.00
C432   C     0.34637   0.17232   0.48215   0.00000  Uiso   1.00
C433   C     0.65363   0.16101   0.51785   0.00000  Uiso   1.00
C434   C     0.53258   0.02042   0.47200   0.00000  Uiso   1.00
C435   C     0.46742   0.31291   0.52800   0.00000  Uiso   1.00
C436   C     0.52870   0.31108   0.47109   0.00000  Uiso   1.00
Cu437  Cu    0.50000   0.16667   0.54689   0.00000  Uiso   1.00
Cu438  Cu    0.50000   0.16666   0.45311   0.00000  Uiso   1.00
H439   H     0.55206   0.29378   0.44961   0.00000  Uiso   1.00
H440   H     0.42275   0.26750   0.54067   0.00000  Uiso   1.00
H441   H     0.44793   0.03955   0.55039   0.00000  Uiso   1.00
H442   H     0.44131   0.12157   0.36955   0.00000  Uiso   1.00
H443   H     0.55869   0.21176   0.63045   0.00000  Uiso   1.00
H444   H     0.44142   0.12152   0.61592   0.00000  Uiso   1.00
H445   H     0.55858   0.21182   0.38408   0.00000  Uiso   1.00
H446   H     0.34686   0.19977   0.42100   0.00000  Uiso   1.00
H447   H     0.65314   0.13356   0.57899   0.00000  Uiso   1.00
H448   H     0.57725   0.06584   0.45933   0.00000  Uiso   1.00
N449   N     0.50001   0.16668   0.61736   0.00000  Uiso   1.00
N450   N     0.49999   0.16666   0.38264   0.00000  Uiso   1.00
O451   O     0.50000   0.10655   0.53958   0.00000  Uiso   1.00
O452   O     0.34519   0.14293   0.55866   0.00000  Uiso   1.00
O453   O     0.56685   0.03855   0.44567   0.00000  Uiso   1.00
O454   O     0.43315   0.29478   0.55433   0.00000  Uiso   1.00
O455   O     0.50000   0.22678   0.46042   0.00000  Uiso   1.00
O456   O     0.50000   0.10654   0.46039   0.00000  Uiso   1.00
O457   O     0.50000   0.22679   0.53961   0.00000  Uiso   1.00
O458   O     0.42495   0.16667   0.53046   0.00000  Uiso   1.00
O459   O     0.57505   0.16666   0.46954   0.00000  Uiso   1.00
O460   O     0.42494   0.16666   0.45127   0.00000  Uiso   1.00
O461   O     0.57506   0.16667   0.54873   0.00000  Uiso   1.00
O462   O     0.65481   0.19040   0.44134   0.00000  Uiso   1.00
C463   C     0.83480   0.08745   0.50021   0.00000  Uiso   1.00
C464   C     0.80463   0.02225   0.52891   0.00000  Uiso   1.00
C465   C     0.83064   0.29050   0.49935   0.00000  Uiso   1.00
C466   C     0.83603   0.04283   0.50065   0.00000  Uiso   1.00
C467   C     0.80072   0.14165   0.35409   0.00000  Uiso   1.00
C468   C     0.86594   0.19168   0.64591   0.00000  Uiso   1.00
C469   C     0.80075   0.14164   0.63783   0.00000  Uiso   1.00
C470   C     0.86591   0.19169   0.36217   0.00000  Uiso   1.00
C471   C     0.83186   0.24588   0.49979   0.00000  Uiso   1.00
C472   C     0.73474   0.16765   0.48807   0.00000  Uiso   1.00
C473   C     0.93193   0.16569   0.51193   0.00000  Uiso   1.00
C474   C     0.67970   0.17232   0.48215   0.00000  Uiso   1.00
C475   C     0.98696   0.16101   0.51785   0.00000  Uiso   1.00
C476   C     0.86592   0.02042   0.47200   0.00000  Uiso   1.00
C477   C     0.80075   0.31291   0.52800   0.00000  Uiso   1.00
C478   C     0.86203   0.31108   0.47109   0.00000  Uiso   1.00
Cu479  Cu    0.83333   0.16667   0.54689   0.00000  Uiso   1.00
Cu480  Cu    0.83333   0.16666   0.45311   0.00000  Uiso   1.00
H481   H     0.88540   0.29378   0.44961   0.00000  Uiso   1.00
H482   H     0.75608   0.26750   0.54067   0.00000  Uiso   1.00
H483   H     0.78127   0.03955   0.55039   0.00000  Uiso   1.00
H484   H     0.77464   0.12157   0.36955   0.00000  Uiso   1.00
H485   H     0.89202   0.21176   0.63045   0.00000  Uiso   1.00
H486   H     0.77475   0.12152   0.61592   0.00000  Uiso   1.00
H487   H     0.89192   0.21182   0.38408   0.00000  Uiso   1.00
H488   H     0.68019   0.19977   0.42100   0.00000  Uiso   1.00
H489   H     0.98648   0.13356   0.57899   0.00000  Uiso   1.00
H490   H     0.91058   0.06584   0.45933   0.00000  Uiso   1.00
N491   N     0.83335   0.16668   0.61736   0.00000  Uiso   1.00
N492   N     0.83332   0.16666   0.38264   0.00000  Uiso   1.00
O493   O     0.83333   0.10655   0.53958   0.00000  Uiso   1.00
O494   O     0.67852   0.14293   0.55866   0.00000  Uiso   1.00
O495   O     0.90018   0.03855   0.44567   0.00000  Uiso   1.00
O496   O     0.76648   0.29478   0.55433   0.00000  Uiso   1.00
O497   O     0.83334   0.22678   0.46042   0.00000  Uiso   1.00
O498   O     0.83333   0.10654   0.46039   0.00000  Uiso   1.00
O499   O     0.83334   0.22679   0.53961   0.00000  Uiso   1.00
O500   O     0.75828   0.16667   0.53046   0.00000  Uiso   1.00
O501   O     0.90839   0.16666   0.46954   0.00000  Uiso   1.00
O502   O     0.75828   0.16666   0.45127   0.00000  Uiso   1.00
O503   O     0.90839   0.16667   0.54873   0.00000  Uiso   1.00
O504   O     0.98815   0.19040   0.44134   0.00000  Uiso   1.00
C505   C     0.16814   0.42078   0.50021   0.00000  Uiso   1.00
C506   C     0.13797   0.35559   0.52891   0.00000  Uiso   1.00
C507   C     0.16397   0.62384   0.49935   0.00000  Uiso   1.00
C508   C     0.16936   0.37616   0.50065   0.00000  Uiso   1.00
C509   C     0.13406   0.47498   0.35409   0.00000  Uiso   1.00
C510   C     0.19928   0.52502   0.64591   0.00000  Uiso   1.00
C511   C     0.13409   0.47498   0.63783   0.00000  Uiso   1.00
C512   C     0.19924   0.52502   0.36217   0.00000  Uiso   1.00
C513   C     0.16520   0.57922   0.49979   0.00000  Uiso   1.00
C514   C     0.06807   0.50098   0.48807   0.00000  Uiso   1.00
C515   C     0.26526   0.49902   0.51193   0.00000  Uiso   1.00
C516   C     0.01304   0.50566   0.48215   0.00000  Uiso   1.00
C517   C     0.32030   0.49434   0.51785   0.00000  Uiso   1.00
C518   C     0.19925   0.35375   0.47200   0.00000  Uiso   1.00
C519   C     0.13408   0.64625   0.52800   0.00000  Uiso   1.00
C520   C     0.19536   0.64441   0.47109   0.00000  Uiso   1.00
Cu521  Cu    0.16667   0.50001   0.54689   0.00000  Uiso   1.00
Cu522  Cu    0.16667   0.49999   0.45311   0.00000  Uiso   1.00
H523   H     0.21873   0.62711   0.44961   0.00000  Uiso   1.00
H524   H     0.08942   0.60083   0.54067   0.00000  Uiso   1.00
H525   H     0.11460   0.37289   0.55039   0.00000  Uiso   1.00
H526   H     0.10797   0.45490   0.36955   0.00000  Uiso   1.00
H527   H     0.22536   0.54510   0.63045   0.00000  Uiso   1.00
H528   H     0.10808   0.45485   0.61592   0.00000  Uiso   1.00
H529   H     0.22525   0.54515   0.38408   0.00000  Uiso   1.00
H530   H     0.01352   0.53310   0.42100   0.00000  Uiso   1.00
H531   H     0.31981   0.46690   0.57899   0.00000  Uiso   1.00
H532   H     0.24392   0.39917   0.45933   0.00000  Uiso   1.00
N533   N     0.16668   0.50001   0.61736   0.00000  Uiso   1.00
N534   N     0.16665   0.49999   0.38264   0.00000  Uiso   1.00
O535   O     0.16666   0.43989   0.53958   0.00000  Uiso   1.00
O536   O     0.01185   0.47627   0.55866   0.00000  Uiso   1.00
O537   O     0.23352   0.37188   0.44567   0.00000  Uiso   1.00
O538   O     0.09982   0.62812   0.55433   0.00000  Uiso   1.00
O539   O     0.16667   0.56011   0.46042   0.00000  Uiso   1.00
O540   O     0.16666   0.43988   0.46039   0.00000  Uiso   1.00
O541   O     0.16667   0.56012   0.53961   0.00000  Uiso   1.00
O542   O     0.09161   0.50000   0.53046   0.00000  Uiso   1.00
O543   O     0.24172   0.50000   0.46954   0.00000  Uiso   1.00
O544   O     0.09161   0.49999   0.45127   0.00000  Uiso   1.00
O545   O     0.24172   0.50001   0.54873   0.00000  Uiso   1.00
O546   O     0.32148   0.52373   0.44134   0.00000  Uiso   1.00
C547   C     0.50147   0.42078   0.50021   0.00000  Uiso   1.00
C548   C     0.47130   0.35559   0.52891   0.00000  Uiso   1.00
C549   C     0.49730   0.62384   0.49935   0.00000  Uiso   1.00
C550   C     0.50270   0.37616   0.50065   0.00000  Uiso   1.00
C551   C     0.46739   0.47498   0.35409   0.00000  Uiso   1.00
C552   C     0.53261   0.52502   0.64591   0.00000  Uiso   1.00
C553   C     0.46742   0.47498   0.63783   0.00000  Uiso   1.00
C554   C     0.53258   0.52502   0.36217   0.00000  Uiso   1.00
C555   C     0.49853   0.57922   0.49979   0.00000  Uiso   1.00
C556   C     0.40141   0.50098   0.48807   0.00000  Uiso   1.00
C557   C     0.59859   0.49902   0.51193   0.00000  Uiso   1.00
C558   C     0.34637   0.50566   0.48215   0.00000  Uiso   1.00
C559   C     0.65363   0.49434   0.51785   0.00000  Uiso   1.00
C560   C     0.53258   0.35375   0.47200   0.00000  Uiso   1.00
C561   C     0.46742   0.64625   0.52800   0.00000  Uiso   1.00
C562   C     0.52870   0.64441   0.47109   0.00000  Uiso   1.00
Cu563  Cu    0.50000   0.50001   0.54689   0.00000  Uiso   1.00
Cu564  Cu    0.50000   0.49999   0.45311   0.00000  Uiso   1.00
H565   H     0.55206   0.62711   0.44961   0.00000  Uiso   1.00
H566   H     0.42275   0.60083   0.54067   0.00000  Uiso   1.00
H567   H     0.44793   0.37289   0.55039   0.00000  Uiso   1.00
H568   H     0.44131   0.45490   0.36955   0.00000  Uiso   1.00
H569   H     0.55869   0.54510   0.63045   0.00000  Uiso   1.00
H570   H     0.44142   0.45485   0.61592   0.00000  Uiso   1.00
H571   H     0.55858   0.54515   0.38408   0.00000  Uiso   1.00
H572   H     0.34686   0.53310   0.42100   0.00000  Uiso   1.00
H573   H     0.65314   0.46690   0.57899   0.00000  Uiso   1.00
H574   H     0.57725   0.39917   0.45933   0.00000  Uiso   1.00
N575   N     0.50001   0.50001   0.61736   0.00000  Uiso   1.00
N576   N     0.49999   0.49999   0.38264   0.00000  Uiso   1.00
O577   O     0.50000   0.43989   0.53958   0.00000  Uiso   1.00
O578   O     0.34519   0.47627   0.55866   0.00000  Uiso   1.00
O579   O     0.56685   0.37188   0.44567   0.00000  Uiso   1.00
O580   O     0.43315   0.62812   0.55433   0.00000  Uiso   1.00
O581   O     0.50000   0.56011   0.46042   0.00000  Uiso   1.00
O582   O     0.50000   0.43988   0.46039   0.00000  Uiso   1.00
O583   O     0.50000   0.56012   0.53961   0.00000  Uiso   1.00
O584   O     0.42495   0.50000   0.53046   0.00000  Uiso   1.00
O585   O     0.57505   0.50000   0.46954   0.00000  Uiso   1.00
O586   O     0.42494   0.49999   0.45127   0.00000  Uiso   1.00
O587   O     0.57506   0.50001   0.54873   0.00000  Uiso   1.00
O588   O     0.65481   0.52373   0.44134   0.00000  Uiso   1.00
C589   C     0.83480   0.42078   0.50021   0.00000  Uiso   1.00
C590   C     0.80463   0.35559   0.52891   0.00000  Uiso   1.00
C591   C     0.83064   0.62384   0.49935   0.00000  Uiso   1.00
C592   C     0.83603   0.37616   0.50065   0.00000  Uiso   1.00
C593   C     0.80072   0.47498   0.35409   0.00000  Uiso   1.00
C594   C     0.86594   0.52502   0.64591   0.00000  Uiso   1.00
C595   C     0.80075   0.47498   0.63783   0.00000  Uiso   1.00
C596   C     0.86591   0.52502   0.36217   0.00000  Uiso   1.00
C597   C     0.83186   0.57922   0.49979   0.00000  Uiso   1.00
C598   C     0.73474   0.50098   0.48807   0.00000  Uiso   1.00
C599   C     0.93193   0.49902   0.51193   0.00000  Uiso   1.00
C600   C     0.67970   0.50566   0.48215   0.00000  Uiso   1.00
C601   C     0.98696   0.49434   0.51785   0.00000  Uiso   1.00
C602   C     0.86592   0.35375   0.47200   0.00000  Uiso   1.00
C603   C     0.80075   0.64625   0.52800   0.00000  Uiso   1.00
C604   C     0.86203   0.64441   0.47109   0.00000  Uiso   1.00
Cu605  Cu    0.83333   0.50001   0.54689   0.00000  Uiso   1.00
Cu606  Cu    0.83333   0.49999   0.45311   0.00000  Uiso   1.00
H607   H     0.88540   0.62711   0.44961   0.00000  Uiso   1.00
H608   H     0.75608   0.60083   0.54067   0.00000  Uiso   1.00
H609   H     0.78127   0.37289   0.55039   0.00000  Uiso   1.00
H610   H     0.77464   0.45490   0.36955   0.00000  Uiso   1.00
H611   H     0.89202   0.54510   0.63045   0.00000  Uiso   1.00
H612   H     0.77475   0.45485   0.61592   0.00000  Uiso   1.00
H613   H     0.89192   0.54515   0.38408   0.00000  Uiso   1.00
H614   H     0.68019   0.53310   0.42100   0.00000  Uiso   1.00
H615   H     0.98648   0.46690   0.57899   0.00000  Uiso   1.00
H616   H     0.91058   0.39917   0.45933   0.00000  Uiso   1.00
N617   N     0.83335   0.50001   0.61736   0.00000  Uiso   1.00
N618   N     0.83332   0.49999   0.38264   0.00000  Uiso   1.00
O619   O     0.83333   0.43989   0.53958   0.00000  Uiso   1.00
O620   O     0.67852   0.47627   0.55866   0.00000  Uiso   1.00
O621   O     0.90018   0.37188   0.44567   0.00000  Uiso   1.00
O622   O     0.76648   0.62812   0.55433   0.00000  Uiso   1.00
O623   O     0.83334   0.56011   0.46042   0.00000  Uiso   1.00
O624   O     0.83333   0.43988   0.46039   0.00000  Uiso   1.00
O625   O     0.83334   0.56012   0.53961   0.00000  Uiso   1.00
O626   O     0.75828   0.50000   0.53046   0.00000  Uiso   1.00
O627   O     0.90839   0.50000   0.46954   0.00000  Uiso   1.00
O628   O     0.75828   0.49999   0.45127   0.00000  Uiso   1.00
O629   O     0.90839   0.50001   0.54873   0.00000  Uiso   1.00
O630   O     0.98815   0.52373   0.44134   0.00000  Uiso   1.00
C631   C     0.16814   0.75412   0.50021   0.00000  Uiso   1.00
C632   C     0.13797   0.68892   0.52891   0.00000  Uiso   1.00
C633   C     0.16397   0.95717   0.49935   0.00000  Uiso   1.00
C634   C     0.16936   0.70949   0.50065   0.00000  Uiso   1.00
C635   C     0.13406   0.80832   0.35409   0.00000  Uiso   1.00
C636   C     0.19928   0.85835   0.64591   0.00000  Uiso   1.00
C637   C     0.13409   0.80831   0.63783   0.00000  Uiso   1.00
C638   C     0.19924   0.85836   0.36217   0.00000  Uiso   1.00
C639   C     0.16520   0.91255   0.49979   0.00000  Uiso   1.00
C640   C     0.06807   0.83431   0.48807   0.00000  Uiso   1.00
C641   C     0.26526   0.83235   0.51193   0.00000  Uiso   1.00
C642   C     0.01304   0.83899   0.48215   0.00000  Uiso   1.00
C643   C     0.32030   0.82768   0.51785   0.00000  Uiso   1.00
C644   C     0.19925   0.68709   0.47200   0.00000  Uiso   1.00
C645   C     0.13408   0.97958   0.52800   0.00000  Uiso   1.00
C646   C     0.19536   0.97775   0.47109   0.00000  Uiso   1.00
Cu647  Cu    0.16667   0.83334   0.54689   0.00000  Uiso   1.00
Cu648  Cu    0.16667   0.83333   0.45311   0.00000  Uiso   1.00
H649   H     0.21873   0.96045   0.44961   0.00000  Uiso   1.00
H650   H     0.08942   0.93416   0.54067   0.00000  Uiso   1.00
H651   H     0.11460   0.70622   0.55039   0.00000  Uiso   1.00
H652   H     0.10797   0.78824   0.36955   0.00000  Uiso   1.00
H653   H     0.22536   0.87843   0.63045   0.00000  Uiso   1.00
H654   H     0.10808   0.78818   0.61592   0.00000  Uiso   1.00
H655   H     0.22525   0.87848   0.38408   0.00000  Uiso   1.00
H656   H     0.01352   0.86644   0.42100   0.00000  Uiso   1.00
H657   H     0.31981   0.80023   0.57899   0.00000  Uiso   1.00
H658   H     0.24392   0.73250   0.45933   0.00000  Uiso   1.00
N659   N     0.16668   0.83334   0.61736   0.00000  Uiso   1.00
N660   N     0.16665   0.83332   0.38264   0.00000  Uiso   1.00
O661   O     0.16666   0.77322   0.53958   0.00000  Uiso   1.00
O662   O     0.01185   0.80960   0.55866   0.00000  Uiso   1.00
O663   O     0.23352   0.70522   0.44567   0.00000  Uiso   1.00
O664   O     0.09982   0.96145   0.55433   0.00000  Uiso   1.00
O665   O     0.16667   0.89345   0.46042   0.00000  Uiso   1.00
O666   O     0.16666   0.77321   0.46039   0.00000  Uiso   1.00
O667   O     0.16667   0.89346   0.53961   0.00000  Uiso   1.00
O668   O     0.09161   0.83334   0.53046   0.00000  Uiso   1.00
O669   O     0.24172   0.83333   0.46954   0.00000  Uiso   1.00
O670   O     0.09161   0.83333   0.45127   0.00000  Uiso   1.00
O671   O     0.24172   0.83334   0.54873   0.00000  Uiso   1.00
O672   O     0.32148   0.85707   0.44134   0.00000  Uiso   1.00
C673   C     0.50147   0.75412   0.50021   0.00000  Uiso   1.00
C674   C     0.47130   0.68892   0.52891   0.00000  Uiso   1.00
C675   C     0.49730   0.95717   0.49935   0.00000  Uiso   1.00
C676   C     0.50270   0.70949   0.50065   0.00000  Uiso   1.00
C677   C     0.46739   0.80832   0.35409   0.00000  Uiso   1.00
C678   C     0.53261   0.85835   0.64591   0.00000  Uiso   1.00
C679   C     0.46742   0.80831   0.63783   0.00000  Uiso   1.00
C680   C     0.53258   0.85836   0.36217   0.00000  Uiso   1.00
C681   C     0.49853   0.91255   0.49979   0.00000  Uiso   1.00
C682   C     0.40141   0.83431   0.48807   0.00000  Uiso   1.00
C683   C     0.59859   0.83235   0.51193   0.00000  Uiso   1.00
C684   C     0.34637   0.83899   0.48215   0.00000  Uiso   1.00
C685   C     0.65363   0.82768   0.51785   0.00000  Uiso   1.00
C686   C     0.53258   0.68709   0.47200   0.00000  Uiso   1.00
C687   C     0.46742   0.97958   0.52800   0.00000  Uiso   1.00
C688   C     0.52870   0.97775   0.47109   0.00000  Uiso   1.00
Cu689  Cu    0.50000   0.83334   0.54689   0.00000  Uiso   1.00
Cu690  Cu    0.50000   0.83333   0.45311   0.00000  Uiso   1.00
H691   H     0.55206   0.96045   0.44961   0.00000  Uiso   1.00
H692   H     0.42275   0.93416   0.54067   0.00000  Uiso   1.00
H693   H     0.44793   0.70622   0.55039   0.00000  Uiso   1.00
H694   H     0.44131   0.78824   0.36955   0.00000  Uiso   1.00
H695   H     0.55869   0.87843   0.63045   0.00000  Uiso   1.00
H696   H     0.44142   0.78818   0.61592   0.00000  Uiso   1.00
H697   H     0.55858   0.87848   0.38408   0.00000  Uiso   1.00
H698   H     0.34686   0.86644   0.42100   0.00000  Uiso   1.00
H699   H     0.65314   0.80023   0.57899   0.00000  Uiso   1.00
H700   H     0.57725   0.73250   0.45933   0.00000  Uiso   1.00
N701   N     0.50001   0.83334   0.61736   0.00000  Uiso   1.00
N702   N     0.49999   0.83332   0.38264   0.00000  Uiso   1.00
O703   O     0.50000   0.77322   0.53958   0.00000  Uiso   1.00
O704   O     0.34519   0.80960   0.55866   0.00000  Uiso   1.00
O705   O     0.56685   0.70522   0.44567   0.00000  Uiso   1.00
O706   O     0.43315   0.96145   0.55433   0.00000  Uiso   1.00
O707   O     0.50000   0.89345   0.46042   0.00000  Uiso   1.00
O708   O     0.50000   0.77321   0.46039   0.00000  Uiso   1.00
O709   O     0.50000   0.89346   0.53961   0.00000  Uiso   1.00
O710   O     0.42495   0.83334   0.53046   0.00000  Uiso   1.00
O711   O     0.57505   0.83333   0.46954   0.00000  Uiso   1.00
O712   O     0.42494   0.83333   0.45127   0.00000  Uiso   1.00
O713   O     0.57506   0.83334   0.54873   0.00000  Uiso   1.00
O714   O     0.65481   0.85707   0.44134   0.00000  Uiso   1.00
C715   C     0.83480   0.75412   0.50021   0.00000  Uiso   1.00
C716   C     0.80463   0.68892   0.52891   0.00000  Uiso   1.00
C717   C     0.83064   0.95717   0.49935   0.00000  Uiso   1.00
C718   C     0.83603   0.70949   0.50065   0.00000  Uiso   1.00
C719   C     0.80072   0.80832   0.35409   0.00000  Uiso   1.00
C720   C     0.86594   0.85835   0.64591   0.00000  Uiso   1.00
C721   C     0.80075   0.80831   0.63783   0.00000  Uiso   1.00
C722   C     0.86591   0.85836   0.36217   0.00000  Uiso   1.00
C723   C     0.83186   0.91255   0.49979   0.00000  Uiso   1.00
C724   C     0.73474   0.83431   0.48807   0.00000  Uiso   1.00
C725   C     0.93193   0.83235   0.51193   0.00000  Uiso   1.00
C726   C     0.67970   0.83899   0.48215   0.00000  Uiso   1.00
C727   C     0.98696   0.82768   0.51785   0.00000  Uiso   1.00
C728   C     0.86592   0.68709   0.47200   0.00000  Uiso   1.00
C729   C     0.80075   0.97958   0.52800   0.00000  Uiso   1.00
C730   C     0.86203   0.97775   0.47109   0.00000  Uiso   1.00
Cu731  Cu    0.83333   0.83334   0.54689   0.00000  Uiso   1.00
Cu732  Cu    0.83333   0.83333   0.45311   0.00000  Uiso   1.00
H733   H     0.88540   0.96045   0.44961   0.00000  Uiso   1.00
H734   H     0.75608   0.93416   0.54067   0.00000  Uiso   1.00
H735   H     0.78127   0.70622   0.55039   0.00000  Uiso   1.00
H736   H     0.77464   0.78824   0.36955   0.00000  Uiso   1.00
H737   H     0.89202   0.87843   0.63045   0.00000  Uiso   1.00
H738   H     0.77475   0.78818   0.61592   0.00000  Uiso   1.00
H739   H     0.89192   0.87848   0.38408   0.00000  Uiso   1.00
H740   H     0.68019   0.86644   0.42100   0.00000  Uiso   1.00
H741   H     0.98648   0.80023   0.57899   0.00000  Uiso   1.00
H742   H     0.91058   0.73250   0.45933   0.00000  Uiso   1.00
N743   N     0.83335   0.83334   0.61736   0.00000  Uiso   1.00
N744   N     0.83332   0.83332   0.38264   0.00000  Uiso   1.00
O745   O     0.83333   0.77322   0.53958   0.00000  Uiso   1.00
O746   O     0.67852   0.80960   0.55866   0.00000  Uiso   1.00
O747   O     0.90018   0.70522   0.44567   0.00000  Uiso   1.00
O748   O     0.76648   0.96145   0.55433   0.00000  Uiso   1.00
O749   O     0.83334   0.89345   0.46042   0.00000  Uiso   1.00
O750   O     0.83333   0.77321   0.46039   0.00000  Uiso   1.00
O751   O     0.83334   0.89346   0.53961   0.00000  Uiso   1.00
O752   O     0.75828   0.83334   0.53046   0.00000  Uiso   1.00
O753   O     0.90839   0.83333   0.46954   0.00000  Uiso   1.00
O754   O     0.75828   0.83333   0.45127   0.00000  Uiso   1.00
O755   O     0.90839   0.83334   0.54873   0.00000  Uiso   1.00
O756   O     0.98815   0.85707   0.44134   0.00000  Uiso   1.00
C757   C     0.16814   0.08745   0.83355   0.00000  Uiso   1.00
C758   C     0.13797   0.02225   0.86224   0.00000  Uiso   1.00
C759   C     0.16397   0.29050   0.83269   0.00000  Uiso   1.00
C760   C     0.16936   0.04283   0.83398   0.00000  Uiso   1.00
C761   C     0.13406   0.14165   0.68743   0.00000  Uiso   1.00
C762   C     0.19928   0.19168   0.97924   0.00000  Uiso   1.00
C763   C     0.13409   0.14164   0.97116   0.00000  Uiso   1.00
C764   C     0.19924   0.19169   0.69551   0.00000  Uiso   1.00
C765   C     0.16520   0.24588   0.83312   0.00000  Uiso   1.00
C766   C     0.06807   0.16765   0.82140   0.00000  Uiso   1.00
C767   C     0.26526   0.16569   0.84526   0.00000  Uiso   1.00
C768   C     0.01304   0.17232   0.81548   0.00000  Uiso   1.00
C769   C     0.32030   0.16101   0.85118   0.00000  Uiso   1.00
C770   C     0.19925   0.02042   0.80534   0.00000  Uiso   1.00
C771   C     0.13408   0.31291   0.86133   0.00000  Uiso   1.00
C772   C     0.19536   0.31108   0.80443   0.00000  Uiso   1.00
Cu773  Cu    0.16667   0.16667   0.88022   0.00000  Uiso   1.00
Cu774  Cu    0.16667   0.16666   0.78645   0.00000  Uiso   1.00
H775   H     0.21873   0.29378   0.78294   0.00000  Uiso   1.00
H776   H     0.08942   0.26750   0.87400   0.00000  Uiso   1.00
H777   H     0.11460   0.03955   0.88372   0.00000  Uiso   1.00
H778   H     0.10797   0.12157   0.70288   0.00000  Uiso   1.00
H779   H     0.22536   0.21176   0.96378   0.00000  Uiso   1.00
H780   H     0.10808   0.12152   0.94925   0.00000  Uiso   1.00
H781   H     0.22525   0.21182   0.71741   0.00000  Uiso   1.00
H782   H     0.01352   0.19977   0.75434   0.00000  Uiso   1.00
H783   H     0.31981   0.13356   0.91233   0.00000  Uiso   1.00
H784   H     0.24392   0.06584   0.79267   0.00000  Uiso   1.00
N785   N     0.16668   0.16668   0.95069   0.00000  Uiso   1.00
N786   N     0.16665   0.16666   0.71597   0.00000  Uiso   1.00
O787   O     0.16666   0.10655   0.87291   0.00000  Uiso   1.00
O788   O     0.01185   0.14293   0.89200   0.00000  Uiso   1.00
O789   O     0.23352   0.03855   0.77900   0.00000  Uiso   1.00
O790   O     0.09982   0.29478   0.88766   0.00000  Uiso   1.00
O791   O     0.16667   0.22678   0.79375   0.00000  Uiso   1.00
O792   O     0.16666   0.10654   0.79372   0.00000  Uiso   1.00
O793   O     0.16667   0.22679   0.87294   0.00000  Uiso   1.00
O794   O     0.09161   0.16667   0.86379   0.00000  Uiso   1.00
O795   O     0.24172   0.16666   0.80288   0.00000  Uiso   1.00
O796   O     0.09161   0.16666   0.78460   0.00000  Uiso   1.00
O797   O     0.24172   0.16667   0.88207   0.00000  Uiso   1.00
O798   O     0.32148   0.19040   0.77467   0.00000  Uiso   1.00
C799   C     0.50147   0.08745   0.83355   0.00000  Uiso   1.00
C800   C     0.47130   0.02225   0.86224   0.00000  Uiso   1.00
C801   C     0.49730   0.29050   0.83269   0.00000  Uiso   1.00
C802   C     0.50270   0.04283   0.83398   0.00000  Uiso   1.00
C803   C     0.46739   0.14165   0.68743   0.00000  Uiso   1.00
C804   C     0.53261   0.19168   0.97924   0.00000  Uiso   1.00
C805   C     0.46742   0.14164   0.97116   0.00000  Uiso   1.00
C806   C     0.53258   0.19169   0.69551   0.00000  Uiso   1.00
C807   C     0.49853   0.24588   0.83312   0.00000  Uiso   1.00
C808   C     0.40141   0.16765   0.82140   0.00000  Uiso   1.00
C809   C     0.59859   0.16569   0.84526   0.00000  Uiso   1.00
C810   C     0.34637   0.17232   0.81548   0.00000  Uiso   1.00
C811   C     0.65363   0.16101   0.85118   0.00000  Uiso   1.00
C812   C     0.53258   0.02042   0.80534   0.00000  Uiso   1.00
C813   C     0.46742   0.31291   0.86133   0.00000  Uiso   1.00
C814   C     0.52870   0.31108   0.80443   0.00000  Uiso   1.00
Cu815  Cu    0.50000   0.16667   0.88022   0.00000  Uiso   1.00
Cu816  Cu    0.50000   0.16666   0.78645   0.00000  Uiso   1.00
H817   H     0.55206   0.29378   0.78294   0.00000  Uiso   1.00
H818   H     0.42275   0.26750   0.87400   0.00000  Uiso   1.00
H819   H     0.44793   0.03955   0.88372   0.00000  Uiso   1.00
H820   H     0.44131   0.12157   0.70288   0.00000  Uiso   1.00
H821   H     0.55869   0.21176   0.96378   0.00000  Uiso   1.00
H822   H     0.44142   0.12152   0.94925   0.00000  Uiso   1.00
H823   H     0.55858   0.21182   0.71741   0.00000  Uiso   1.00
H824   H     0.34686   0.19977   0.75434   0.00000  Uiso   1.00
H825   H     0.65314   0.13356   0.91233   0.00000  Uiso   1.00
H826   H     0.57725   0.06584   0.79267   0.00000  Uiso   1.00
N827   N     0.50001   0.16668   0.95069   0.00000  Uiso   1.00
N828   N     0.49999   0.16666   0.71597   0.00000  Uiso   1.00
O829   O     0.50000   0.10655   0.87291   0.00000  Uiso   1.00
O830   O     0.34519   0.14293   0.89200   0.00000  Uiso   1.00
O831   O     0.56685   0.03855   0.77900   0.00000  Uiso   1.00
O832   O     0.43315   0.29478   0.88766   0.00000  Uiso   1.00
O833   O     0.50000   0.22678   0.79375   0.00000  Uiso   1.00
O834   O     0.50000   0.10654   0.79372   0.00000  Uiso   1.00
O835   O     0.50000   0.22679   0.87294   0.00000  Uiso   1.00
O836   O     0.42495   0.16667   0.86379   0.00000  Uiso   1.00
O837   O     0.57505   0.16666   0.80288   0.00000  Uiso   1.00
O838   O     0.42494   0.16666   0.78460   0.00000  Uiso   1.00
O839   O     0.57506   0.16667   0.88207   0.00000  Uiso   1.00
O840   O     0.65481   0.19040   0.77467   0.00000  Uiso   1.00
C841   C     0.83480   0.08745   0.83355   0.00000  Uiso   1.00
C842   C     0.80463   0.02225   0.86224   0.00000  Uiso   1.00
C843   C     0.83064   0.29050   0.83269   0.00000  Uiso   1.00
C844   C     0.83603   0.04283   0.83398   0.00000  Uiso   1.00
C845   C     0.80072   0.14165   0.68743   0.00000  Uiso   1.00
C846   C     0.86594   0.19168   0.97924   0.00000  Uiso   1.00
C847   C     0.80075   0.14164   0.97116   0.00000  Uiso   1.00
C848   C     0.86591   0.19169   0.69551   0.00000  Uiso   1.00
C849   C     0.83186   0.24588   0.83312   0.00000  Uiso   1.00
C850   C     0.73474   0.16765   0.82140   0.00000  Uiso   1.00
C851   C     0.93193   0.16569   0.84526   0.00000  Uiso   1.00
C852   C     0.67970   0.17232   0.81548   0.00000  Uiso   1.00
C853   C     0.98696   0.16101   0.85118   0.00000  Uiso   1.00
C854   C     0.86592   0.02042   0.80534   0.00000  Uiso   1.00
C855   C     0.80075   0.31291   0.86133   0.00000  Uiso   1.00
C856   C     0.86203   0.31108   0.80443   0.00000  Uiso   1.00
Cu857  Cu    0.83333   0.16667   0.88022   0.00000  Uiso   1.00
Cu858  Cu    0.83333   0.16666   0.78645   0.00000  Uiso   1.00
H859   H     0.88540   0.29378   0.78294   0.00000  Uiso   1.00
H860   H     0.75608   0.26750   0.87400   0.00000  Uiso   1.00
H861   H     0.78127   0.03955   0.88372   0.00000  Uiso   1.00
H862   H     0.77464   0.12157   0.70288   0.00000  Uiso   1.00
H863   H     0.89202   0.21176   0.96378   0.00000  Uiso   1.00
H864   H     0.77475   0.12152   0.94925   0.00000  Uiso   1.00
H865   H     0.89192   0.21182   0.71741   0.00000  Uiso   1.00
H866   H     0.68019   0.19977   0.75434   0.00000  Uiso   1.00
H867   H     0.98648   0.13356   0.91233   0.00000  Uiso   1.00
H868   H     0.91058   0.06584   0.79267   0.00000  Uiso   1.00
N869   N     0.83335   0.16668   0.95069   0.00000  Uiso   1.00
N870   N     0.83332   0.16666   0.71597   0.00000  Uiso   1.00
O871   O     0.83333   0.10655   0.87291   0.00000  Uiso   1.00
O872   O     0.67852   0.14293   0.89200   0.00000  Uiso   1.00
O873   O     0.90018   0.03855   0.77900   0.00000  Uiso   1.00
O874   O     0.76648   0.29478   0.88766   0.00000  Uiso   1.00
O875   O     0.83334   0.22678   0.79375   0.00000  Uiso   1.00
O876   O     0.83333   0.10654   0.79372   0.00000  Uiso   1.00
O877   O     0.83334   0.22679   0.87294   0.00000  Uiso   1.00
O878   O     0.75828   0.16667   0.86379   0.00000  Uiso   1.00
O879   O     0.90839   0.16666   0.80288   0.00000  Uiso   1.00
O880   O     0.75828   0.16666   0.78460   0.00000  Uiso   1.00
O881   O     0.90839   0.16667   0.88207   0.00000  Uiso   1.00
O882   O     0.98815   0.19040   0.77467   0.00000  Uiso   1.00
C883   C     0.16814   0.42078   0.83355   0.00000  Uiso   1.00
C884   C     0.13797   0.35559   0.86224   0.00000  Uiso   1.00
C885   C     0.16397   0.62384   0.83269   0.00000  Uiso   1.00
C886   C     0.16936   0.37616   0.83398   0.00000  Uiso   1.00
C887   C     0.13406   0.47498   0.68743   0.00000  Uiso   1.00
C888   C     0.19928   0.52502   0.97924   0.00000  Uiso   1.00
C889   C     0.13409   0.47498   0.97116   0.00000  Uiso   1.00
C890   C     0.19924   0.52502   0.69551   0.00000  Uiso   1.00
C891   C     0.16520   0.57922   0.83312   0.00000  Uiso   1.00
C892   C     0.06807   0.50098   0.82140   0.00000  Uiso   1.00
C893   C     0.26526   0.49902   0.84526   0.00000  Uiso   1.00
C894   C     0.01304   0.50566   0.81548   0.00000  Uiso   1.00
C895   C     0.32030   0.49434   0.85118   0.00000  Uiso   1.00
C896   C     0.19925   0.35375   0.80534   0.00000  Uiso   1.00
C897   C     0.13408   0.64625   0.86133   0.00000  Uiso   1.00
C898   C     0.19536   0.64441   0.80443   0.00000  Uiso   1.00
Cu899  Cu    0.16667   0.50001   0.88022   0.00000  Uiso   1.00
Cu900  Cu    0.16667   0.49999   0.78645   0.00000  Uiso   1.00
H901   H     0.21873   0.62711   0.78294   0.00000  Uiso   1.00
H902   H     0.08942   0.60083   0.87400   0.00000  Uiso   1.00
H903   H     0.11460   0.37289   0.88372   0.00000  Uiso   1.00
H904   H     0.10797   0.45490   0.70288   0.00000  Uiso   1.00
H905   H     0.22536   0.54510   0.96378   0.00000  Uiso   1.00
H906   H     0.10808   0.45485   0.94925   0.00000  Uiso   1.00
H907   H     0.22525   0.54515   0.71741   0.00000  Uiso   1.00
H908   H     0.01352   0.53310   0.75434   0.00000  Uiso   1.00
H909   H     0.31981   0.46690   0.91233   0.00000  Uiso   1.00
H910   H     0.24392   0.39917   0.79267   0.00000  Uiso   1.00
N911   N     0.16668   0.50001   0.95069   0.00000  Uiso   1.00
N912   N     0.16665   0.49999   0.71597   0.00000  Uiso   1.00
O913   O     0.16666   0.43989   0.87291   0.00000  Uiso   1.00
O914   O     0.01185   0.47627   0.89200   0.00000  Uiso   1.00
O915   O     0.23352   0.37188   0.77900   0.00000  Uiso   1.00
O916   O     0.09982   0.62812   0.88766   0.00000  Uiso   1.00
O917   O     0.16667   0.56011   0.79375   0.00000  Uiso   1.00
O918   O     0.16666   0.43988   0.79372   0.00000  Uiso   1.00
O919   O     0.16667   0.56012   0.87294   0.00000  Uiso   1.00
O920   O     0.09161   0.50000   0.86379   0.00000  Uiso   1.00
O921   O     0.24172   0.50000   0.80288   0.00000  Uiso   1.00
O922   O     0.09161   0.49999   0.78460   0.00000  Uiso   1.00
O923   O     0.24172   0.50001   0.88207   0.00000  Uiso   1.00
O924   O     0.32148   0.52373   0.77467   0.00000  Uiso   1.00
C925   C     0.50147   0.42078   0.83355   0.00000  Uiso   1.00
C926   C     0.47130   0.35559   0.86224   0.00000  Uiso   1.00
C927   C     0.49730   0.62384   0.83269   0.00000  Uiso   1.00
C928   C     0.50270   0.37616   0.83398   0.00000  Uiso   1.00
C929   C     0.46739   0.47498   0.68743   0.00000  Uiso   1.00
C930   C     0.53261   0.52502   0.97924   0.00000  Uiso   1.00
C931   C     0.46742   0.47498   0.97116   0.00000  Uiso   1.00
C932   C     0.53258   0.52502   0.69551   0.00000  Uiso   1.00
C933   C     0.49853   0.57922   0.83312   0.00000  Uiso   1.00
C934   C     0.40141   0.50098   0.82140   0.00000  Uiso   1.00
C935   C     0.59859   0.49902   0.84526   0.00000  Uiso   1.00
C936   C     0.34637   0.50566   0.81548   0.00000  Uiso   1.00
C937   C     0.65363   0.49434   0.85118   0.00000  Uiso   1.00
C938   C     0.53258   0.35375   0.80534   0.00000  Uiso   1.00
C939   C     0.46742   0.64625   0.86133   0.00000  Uiso   1.00
C940   C     0.52870   0.64441   0.80443   0.00000  Uiso   1.00
Cu941  Cu    0.50000   0.50001   0.88022   0.00000  Uiso   1.00
Cu942  Cu    0.50000   0.49999   0.78645   0.00000  Uiso   1.00
H943   H     0.55206   0.62711   0.78294   0.00000  Uiso   1.00
H944   H     0.42275   0.60083   0.87400   0.00000  Uiso   1.00
H945   H     0.44793   0.37289   0.88372   0.00000  Uiso   1.00
H946   H     0.44131   0.45490   0.70288   0.00000  Uiso   1.00
H947   H     0.55869   0.54510   0.96378   0.00000  Uiso   1.00
H948   H     0.44142   0.45485   0.94925   0.00000  Uiso   1.00
H949   H     0.55858   0.54515   0.71741   0.00000  Uiso   1.00
H950   H     0.34686   0.53310   0.75434   0.00000  Uiso   1.00
H951   H     0.65314   0.46690   0.91233   0.00000  Uiso   1.00
H952   H     0.57725   0.39917   0.79267   0.00000  Uiso   1.00
N953   N     0.50001   0.50001   0.95069   0.00000  Uiso   1.00
N954   N     0.49999   0.49999   0.71597   0.00000  Uiso   1.00
O955   O     0.50000   0.43989   0.87291   0.00000  Uiso   1.00
O956   O     0.34519   0.47627   0.89200   0.00000  Uiso   1.00
O957   O     0.56685   0.37188   0.77900   0.00000  Uiso   1.00
O958   O     0.43315   0.62812   0.88766   0.00000  Uiso   1.00
O959   O     0.50000   0.56011   0.79375   0.00000  Uiso   1.00
O960   O     0.50000   0.43988   0.79372   0.00000  Uiso   1.00
O961   O     0.50000   0.56012   0.87294   0.00000  Uiso   1.00
O962   O     0.42495   0.50000   0.86379   0.00000  Uiso   1.00
O963   O     0.57505   0.50000   0.80288   0.00000  Uiso   1.00
O964   O     0.42494   0.49999   0.78460   0.00000  Uiso   1.00
O965   O     0.57506   0.50001   0.88207   0.00000  Uiso   1.00
O966   O     0.65481   0.52373   0.77467   0.00000  Uiso   1.00
C967   C     0.83480   0.42078   0.83355   0.00000  Uiso   1.00
C968   C     0.80463   0.35559   0.86224   0.00000  Uiso   1.00
C969   C     0.83064   0.62384   0.83269   0.00000  Uiso   1.00
C970   C     0.83603   0.37616   0.83398   0.00000  Uiso   1.00
C971   C     0.80072   0.47498   0.68743   0.00000  Uiso   1.00
C972   C     0.86594   0.52502   0.97924   0.00000  Uiso   1.00
C973   C     0.80075   0.47498   0.97116   0.00000  Uiso   1.00
C974   C     0.86591   0.52502   0.69551   0.00000  Uiso   1.00
C975   C     0.83186   0.57922   0.83312   0.00000  Uiso   1.00
C976   C     0.73474   0.50098   0.82140   0.00000  Uiso   1.00
C977   C     0.93193   0.49902   0.84526   0.00000  Uiso   1.00
C978   C     0.67970   0.50566   0.81548   0.00000  Uiso   1.00
C979   C     0.98696   0.49434   0.85118   0.00000  Uiso   1.00
C980   C     0.86592   0.35375   0.80534   0.00000  Uiso   1.00
C981   C     0.80075   0.64625   0.86133   0.00000  Uiso   1.00
C982   C     0.86203   0.64441   0.80443   0.00000  Uiso   1.00
Cu983  Cu    0.83333   0.50001   0.88022   0.00000  Uiso   1.00
Cu984  Cu    0.83333   0.49999   0.78645   0.00000  Uiso   1.00
H985   H     0.88540   0.62711   0.78294   0.00000  Uiso   1.00
H986   H     0.75608   0.60083   0.87400   0.00000  Uiso   1.00
H987   H     0.78127   0.37289   0.88372   0.00000  Uiso   1.00
H988   H     0.77464   0.45490   0.70288   0.00000  Uiso   1.00
H989   H     0.89202   0.54510   0.96378   0.00000  Uiso   1.00
H990   H     0.77475   0.45485   0.94925   0.00000  Uiso   1.00
H991   H     0.89192   0.54515   0.71741   0.00000  Uiso   1.00
H992   H     0.68019   0.53310   0.75434   0.00000  Uiso   1.00
H993   H     0.98648   0.46690   0.91233   0.00000  Uiso   1.00
H994   H     0.91058   0.39917   0.79267   0.00000  Uiso   1.00
N995   N     0.83335   0.50001   0.95069   0.00000  Uiso   1.00
N996   N     0.83332   0.49999   0.71597   0.00000  Uiso   1.00
O997   O     0.83333   0.43989   0.87291   0.00000  Uiso   1.00
O998   O     0.67852   0.47627   0.89200   0.00000  Uiso   1.00
O999   O     0.90018   0.37188   0.77900   0.00000  Uiso   1.00
O1000  O     0.76648   0.62812   0.88766   0.00000  Uiso   1.00
O1001  O     0.83334   0.56011   0.79375   0.00000  Uiso   1.00
O1002  O     0.83333   0.43988   0.79372   0.00000  Uiso   1.00
O1003  O     0.83334   0.56012   0.87294   0.00000  Uiso   1.00
O1004  O     0.75828   0.50000   0.86379   0.00000  Uiso   1.00
O1005  O     0.90839   0.50000   0.80288   0.00000  Uiso   1.00
O1006  O     0.75828   0.49999   0.78460   0.00000  Uiso   1.00
O1007  O     0.90839   0.50001   0.88207   0.00000  Uiso   1.00
O1008  O     0.98815   0.52373   0.77467   0.00000  Uiso   1.00
C1009  C     0.16814   0.75412   0.83355   0.00000  Uiso   1.00
C1010  C     0.13797   0.68892   0.86224   0.00000  Uiso   1.00
C1011  C     0.16397   0.95717   0.83269   0.00000  Uiso   1.00
C1012  C     0.16936   0.70949   0.83398   0.00000  Uiso   1.00
C1013  C     0.13406   0.80832   0.68743   0.00000  Uiso   1.00
C1014  C     0.19928   0.85835   0.97924   0.00000  Uiso   1.00
C1015  C     0.13409   0.80831   0.97116   0.00000  Uiso   1.00
C1016  C     0.19924   0.85836   0.69551   0.00000  Uiso   1.00
C1017  C     0.16520   0.91255   0.83312   0.00000  Uiso   1.00
C1018  C     0.06807   0.83431   0.82140   0.00000  Uiso   1.00
C1019  C     0.26526   0.83235   0.84526   0.00000  Uiso   1.00
C1020  C     0.01304   0.83899   0.81548   0.00000  Uiso   1.00
C1021  C     0.32030   0.82768   0.85118   0.00000  Uiso   1.00
C1022  C     0.19925   0.68709   0.80534   0.00000  Uiso   1.00
C1023  C     0.13408   0.97958   0.86133   0.00000  Uiso   1.00
C1024  C     0.19536   0.97775   0.80443   0.00000  Uiso   1.00
Cu1025 Cu    0.16667   0.83334   0.88022   0.00000  Uiso   1.00
Cu1026 Cu    0.16667   0.83333   0.78645   0.00000  Uiso   1.00
H1027  H     0.21873   0.96045   0.78294   0.00000  Uiso   1.00
H1028  H     0.08942   0.93416   0.87400   0.00000  Uiso   1.00
H1029  H     0.11460   0.70622   0.88372   0.00000  Uiso   1.00
H1030  H     0.10797   0.78824   0.70288   0.00000  Uiso   1.00
H1031  H     0.22536   0.87843   0.96378   0.00000  Uiso   1.00
H1032  H     0.10808   0.78818   0.94925   0.00000  Uiso   1.00
H1033  H     0.22525   0.87848   0.71741   0.00000  Uiso   1.00
H1034  H     0.01352   0.86644   0.75434   0.00000  Uiso   1.00
H1035  H     0.31981   0.80023   0.91233   0.00000  Uiso   1.00
H1036  H     0.24392   0.73250   0.79267   0.00000  Uiso   1.00
N1037  N     0.16668   0.83334   0.95069   0.00000  Uiso   1.00
N1038  N     0.16665   0.83332   0.71597   0.00000  Uiso   1.00
O1039  O     0.16666   0.77322   0.87291   0.00000  Uiso   1.00
O1040  O     0.01185   0.80960   0.89200   0.00000  Uiso   1.00
O1041  O     0.23352   0.70522   0.77900   0.00000  Uiso   1.00
O1042  O     0.09982   0.96145   0.88766   0.00000  Uiso   1.00
O1043  O     0.16667   0.89345   0.79375   0.00000  Uiso   1.00
O1044  O     0.16666   0.77321   0.79372   0.00000  Uiso   1.00
O1045  O     0.16667   0.89346   0.87294   0.00000  Uiso   1.00
O1046  O     0.09161   0.83334   0.86379   0.00000  Uiso   1.00
O1047  O     0.24172   0.83333   0.80288   0.00000  Uiso   1.00
O1048  O     0.09161   0.83333   0.78460   0.00000  Uiso   1.00
O1049  O     0.24172   0.83334   0.88207   0.00000  Uiso   1.00
O1050  O     0.32148   0.85707   0.77467   0.00000  Uiso   1.00
C1051  C     0.50147   0.75412   0.83355   0.00000  Uiso   1.00
C1052  C     0.47130   0.68892   0.86224   0.00000  Uiso   1.00
C1053  C     0.49730   0.95717   0.83269   0.00000  Uiso   1.00
C1054  C     0.50270   0.70949   0.83398   0.00000  Uiso   1.00
C1055  C     0.46739   0.80832   0.68743   0.00000  Uiso   1.00
C1056  C     0.53261   0.85835   0.97924   0.00000  Uiso   1.00
C1057  C     0.46742   0.80831   0.97116   0.00000  Uiso   1.00
C1058  C     0.53258   0.85836   0.69551   0.00000  Uiso   1.00
C1059  C     0.49853   0.91255   0.83312   0.00000  Uiso   1.00
C1060  C     0.40141   0.83431   0.82140   0.00000  Uiso   1.00
C1061  C     0.59859   0.83235   0.84526   0.00000  Uiso   1.00
C1062  C     0.34637   0.83899   0.81548   0.00000  Uiso   1.00
C1063  C     0.65363   0.82768   0.85118   0.00000  Uiso   1.00
C1064  C     0.53258   0.68709   0.80534   0.00000  Uiso   1.00
C1065  C     0.46742   0.97958   0.86133   0.00000  Uiso   1.00
C1066  C     0.52870   0.97775   0.80443   0.00000  Uiso   1.00
Cu1067 Cu    0.50000   0.83334   0.88022   0.00000  Uiso   1.00
Cu1068 Cu    0.50000   0.83333   0.78645   0.00000  Uiso   1.00
H1069  H     0.55206   0.96045   0.78294   0.00000  Uiso   1.00
H1070  H     0.42275   0.93416   0.87400   0.00000  Uiso   1.00
H1071  H     0.44793   0.70622   0.88372   0.00000  Uiso   1.00
H1072  H     0.44131   0.78824   0.70288   0.00000  Uiso   1.00
H1073  H     0.55869   0.87843   0.96378   0.00000  Uiso   1.00
H1074  H     0.44142   0.78818   0.94925   0.00000  Uiso   1.00
H1075  H     0.55858   0.87848   0.71741   0.00000  Uiso   1.00
H1076  H     0.34686   0.86644   0.75434   0.00000  Uiso   1.00
H1077  H     0.65314   0.80023   0.91233   0.00000  Uiso   1.00
H1078  H     0.57725   0.73250   0.79267   0.00000  Uiso   1.00
N1079  N     0.50001   0.83334   0.95069   0.00000  Uiso   1.00
N1080  N     0.49999   0.83332   0.71597   0.00000  Uiso   1.00
O1081  O     0.50000   0.77322   0.87291   0.00000  Uiso   1.00
O1082  O     0.34519   0.80960   0.89200   0.00000  Uiso   1.00
O1083  O     0.56685   0.70522   0.77900   0.00000  Uiso   1.00
O1084  O     0.43315   0.96145   0.88766   0.00000  Uiso   1.00
O1085  O     0.50000   0.89345   0.79375   0.00000  Uiso   1.00
O1086  O     0.50000   0.77321   0.79372   0.00000  Uiso   1.00
O1087  O     0.50000   0.89346   0.87294   0.00000  Uiso   1.00
O1088  O     0.42495   0.83334   0.86379   0.00000  Uiso   1.00
O1089  O     0.57505   0.83333   0.80288   0.00000  Uiso   1.00
O1090  O     0.42494   0.83333   0.78460   0.00000  Uiso   1.00
O1091  O     0.57506   0.83334   0.88207   0.00000  Uiso   1.00
O1092  O     0.65481   0.85707   0.77467   0.00000  Uiso   1.00
C1093  C     0.83480   0.75412   0.83355   0.00000  Uiso   1.00
C1094  C     0.80463   0.68892   0.86224   0.00000  Uiso   1.00
C1095  C     0.83064   0.95717   0.83269   0.00000  Uiso   1.00
C1096  C     0.83603   0.70949   0.83398   0.00000  Uiso   1.00
C1097  C     0.80072   0.80832   0.68743   0.00000  Uiso   1.00
C1098  C     0.86594   0.85835   0.97924   0.00000  Uiso   1.00
C1099  C     0.80075   0.80831   0.97116   0.00000  Uiso   1.00
C1100  C     0.86591   0.85836   0.69551   0.00000  Uiso   1.00
C1101  C     0.83186   0.91255   0.83312   0.00000  Uiso   1.00
C1102  C     0.73474   0.83431   0.82140   0.00000  Uiso   1.00
C1103  C     0.93193   0.83235   0.84526   0.00000  Uiso   1.00
C1104  C     0.67970   0.83899   0.81548   0.00000  Uiso   1.00
C1105  C     0.98696   0.82768   0.85118   0.00000  Uiso   1.00
C1106  C     0.86592   0.68709   0.80534   0.00000  Uiso   1.00
C1107  C     0.80075   0.97958   0.86133   0.00000  Uiso   1.00
C1108  C     0.86203   0.97775   0.80443   0.00000  Uiso   1.00
Cu1109 Cu    0.83333   0.83334   0.88022   0.00000  Uiso   1.00
Cu1110 Cu    0.83333   0.83333   0.78645   0.00000  Uiso   1.00
H1111  H     0.88540   0.96045   0.78294   0.00000  Uiso   1.00
H1112  H     0.75608   0.93416   0.87400   0.00000  Uiso   1.00
H1113  H     0.78127   0.70622   0.88372   0.00000  Uiso   1.00
H1114  H     0.77464   0.78824   0.70288   0.00000  Uiso   1.00
H1115  H     0.89202   0.87843   0.96378   0.00000  Uiso   1.00
H1116  H     0.77475   0.78818   0.94925   0.00000  Uiso   1.00
H1117  H     0.89192   0.87848   0.71741   0.00000  Uiso   1.00
H1118  H     0.68019   0.86644   0.75434   0.00000  Uiso   1.00
H1119  H     0.98648   0.80023   0.91233   0.00000  Uiso   1.00
H1120  H     0.91058   0.73250   0.79267   0.00000  Uiso   1.00
N1121  N     0.83335   0.83334   0.95069   0.00000  Uiso   1.00
N1122  N     0.83332   0.83332   0.71597   0.00000  Uiso   1.00
O1123  O     0.83333   0.77322   0.87291   0.00000  Uiso   1.00
O1124  O     0.67852   0.80960   0.89200   0.00000  Uiso   1.00
O1125  O     0.90018   0.70522   0.77900   0.00000  Uiso   1.00
O1126  O     0.76648   0.96145   0.88766   0.00000  Uiso   1.00
O1127  O     0.83334   0.89345   0.79375   0.00000  Uiso   1.00
O1128  O     0.83333   0.77321   0.79372   0.00000  Uiso   1.00
O1129  O     0.83334   0.89346   0.87294   0.00000  Uiso   1.00
O1130  O     0.75828   0.83334   0.86379   0.00000  Uiso   1.00
O1131  O     0.90839   0.83333   0.80288   0.00000  Uiso   1.00
O1132  O     0.75828   0.83333   0.78460   0.00000  Uiso   1.00
O1133  O     0.90839   0.83334   0.88207   0.00000  Uiso   1.00
O1134  O     0.98815   0.85707   0.77467   0.00000  Uiso   1.00
loop_
_geom_bond_atom_site_label_1
_geom_bond_atom_site_label_2
_geom_bond_distance
_geom_bond_site_symmetry_2
_ccdc_geom_bond_type
C1     C4      1.446   .     S
C1     O31     1.289   .     A
C1     O36     1.290   .     A
C2     C4      1.399   .     A
C2     H21     1.085   .     S
C2     C267    1.386   1_545 S
C3     C9      1.446   .     S
C3     C16     1.399   .     A
C3     C15     1.414   .     A
C4     C14     1.414   .     A
C5     N30     1.367   .     A
C5     H22     1.082   .     S
C5     C763    1.417   1_554 S
C6     H23     1.082   .     S
C6     N29     1.367   .     A
C6     C386    1.417   .     S
C7     N29     1.367   .     A
C7     H24     1.082   .     S
C7     C383    1.417   .     S
C8     N30     1.367   .     A
C8     H25     1.082   .     S
C8     C762    1.417   1_554 S
C9     O37     1.290   .     A
C9     O35     1.289   .     A
C10    O38     1.284   .     A
C10    C12     1.448   .     S
C10    O40     1.292   .     A
C11    O39     1.284   .     A
C11    C13     1.448   .     S
C11    O41     1.292   .     A
C12    C97     1.354   1_455 S
C12    O126    1.388   1_455 S
C13    C54     1.354   .     S
C13    O74     1.388   .     S
C14    O33     1.381   .     S
C14    C268    1.386   1_545 S
C15    O34     1.381   .     S
C15    C128    1.386   .     S
C16    H19     1.085   .     S
C16    C140    1.386   .     S
Cu17   N29     2.013   .     S
Cu17   Cu18    2.678   .     S
Cu17   O37     1.958   .     S
Cu17   O38     1.973   .     S
Cu17   O31     1.959   .     S
Cu17   O41     1.975   .     S
Cu18   O39     1.973   .     S
Cu18   N30     2.013   .     S
Cu18   O35     1.959   .     S
Cu18   O40     1.975   .     S
Cu18   O36     1.958   .     S
H20    O34     0.989   .     S
H26    O126    0.991   1_455 S
H27    O74     0.991   .     S
H28    O33     0.989   .     S
O32    H111    0.991   1_455 S
O32    C97     1.388   1_455 S
O42    H68     0.991   .     S
O42    C54     1.388   .     S
C43    C46     1.446   .     S
C43    O73     1.289   .     A
C43    O78     1.290   .     A
C44    C46     1.399   .     A
C44    H63     1.085   .     S
C44    C309    1.386   1_545 S
C45    C51     1.446   .     S
C45    C58     1.399   .     A
C45    C57     1.414   .     A
C46    C56     1.414   .     A
C47    N72     1.367   .     A
C47    H64     1.082   .     S
C47    C805    1.417   1_554 S
C48    H65     1.082   .     S
C48    N71     1.367   .     A
C48    C428    1.417   .     S
C49    N71     1.367   .     A
C49    H66     1.082   .     S
C49    C425    1.417   .     S
C50    N72     1.367   .     A
C50    H67     1.082   .     S
C50    C804    1.417   1_554 S
C51    O79     1.290   .     A
C51    O77     1.289   .     A
C52    O80     1.284   .     A
C52    C54     1.448   .     S
C52    O82     1.292   .     A
C53    O81     1.284   .     A
C53    C55     1.448   .     S
C53    O83     1.292   .     A
C55    C96     1.354   .     S
C55    O116    1.388   .     S
C56    O75     1.381   .     S
C56    C310    1.386   1_545 S
C57    O76     1.381   .     S
C57    C170    1.386   .     S
C58    H61     1.085   .     S
C58    C182    1.386   .     S
Cu59   N71     2.013   .     S
Cu59   Cu60    2.678   .     S
Cu59   O79     1.958   .     S
Cu59   O80     1.973   .     S
Cu59   O73     1.959   .     S
Cu59   O83     1.975   .     S
Cu60   O81     1.973   .     S
Cu60   N72     2.013   .     S
Cu60   O77     1.959   .     S
Cu60   O82     1.975   .     S
Cu60   O78     1.958   .     S
H62    O76     0.989   .     S
H69    O116    0.991   .     S
H70    O75     0.989   .     S
O84    H110    0.991   .     S
O84    C96     1.388   .     S
C85    C88     1.446   .     S
C85    O115    1.289   .     A
C85    O120    1.290   .     A
C86    C88     1.399   .     A
C86    H105    1.085   .     S
C86    C351    1.386   1_545 S
C87    C93     1.446   .     S
C87    C100    1.399   .     A
C87    C99     1.414   .     A
C88    C98     1.414   .     A
C89    N114    1.367   .     A
C89    H106    1.082   .     S
C89    C847    1.417   1_554 S
C90    H107    1.082   .     S
C90    N113    1.367   .     A
C90    C470    1.417   .     S
C91    N113    1.367   .     A
C91    H108    1.082   .     S
C91    C467    1.417   .     S
C92    N114    1.367   .     A
C92    H109    1.082   .     S
C92    C846    1.417   1_554 S
C93    O121    1.290   .     A
C93    O119    1.289   .     A
C94    O122    1.284   .     A
C94    C96     1.448   .     S
C94    O124    1.292   .     A
C95    O123    1.284   .     A
C95    C97     1.448   .     S
C95    O125    1.292   .     A
C97    C12     1.354   1_655 S
C97    O32     1.388   1_655 S
C98    O117    1.381   .     S
C98    C352    1.386   1_545 S
C99    O118    1.381   .     S
C99    C212    1.386   .     S
C100   H103    1.085   .     S
C100   C224    1.386   .     S
Cu101  N113    2.013   .     S
Cu101  Cu102   2.678   .     S
Cu101  O121    1.958   .     S
Cu101  O122    1.973   .     S
Cu101  O115    1.959   .     S
Cu101  O125    1.975   .     S
Cu102  O123    1.973   .     S
Cu102  N114    2.013   .     S
Cu102  O119    1.959   .     S
Cu102  O124    1.975   .     S
Cu102  O120    1.958   .     S
H104   O118    0.989   .     S
H111   O32     0.991   1_655 S
H112   O117    0.989   .     S
O126   H26     0.991   1_655 S
O126   C12     1.388   1_655 S
C127   C130    1.446   .     S
C127   O157    1.289   .     A
C127   O162    1.290   .     A
C128   C130    1.399   .     A
C128   H147    1.085   .     S
C129   C135    1.446   .     S
C129   C142    1.399   .     A
C129   C141    1.414   .     A
C130   C140    1.414   .     A
C131   N156    1.367   .     A
C131   H148    1.082   .     S
C131   C889    1.417   1_554 S
C132   H149    1.082   .     S
C132   N155    1.367   .     A
C132   C512    1.417   .     S
C133   N155    1.367   .     A
C133   H150    1.082   .     S
C133   C509    1.417   .     S
C134   N156    1.367   .     A
C134   H151    1.082   .     S
C134   C888    1.417   1_554 S
C135   O163    1.290   .     A
C135   O161    1.289   .     A
C136   O164    1.284   .     A
C136   C138    1.448   .     S
C136   O166    1.292   .     A
C137   O165    1.284   .     A
C137   C139    1.448   .     S
C137   O167    1.292   .     A
C138   C223    1.354   1_455 S
C138   O252    1.388   1_455 S
C139   C180    1.354   .     S
C139   O200    1.388   .     S
C140   O159    1.381   .     S
C141   O160    1.381   .     S
C141   C254    1.386   .     S
C142   H145    1.085   .     S
C142   C266    1.386   .     S
Cu143  N155    2.013   .     S
Cu143  Cu144   2.678   .     S
Cu143  O163    1.958   .     S
Cu143  O164    1.973   .     S
Cu143  O157    1.959   .     S
Cu143  O167    1.975   .     S
Cu144  O165    1.973   .     S
Cu144  N156    2.013   .     S
Cu144  O161    1.959   .     S
Cu144  O166    1.975   .     S
Cu144  O162    1.958   .     S
H146   O160    0.989   .     S
H152   O252    0.991   1_455 S
H153   O200    0.991   .     S
H154   O159    0.989   .     S
O158   H237    0.991   1_455 S
O158   C223    1.388   1_455 S
O168   H194    0.991   .     S
O168   C180    1.388   .     S
C169   C172    1.446   .     S
C169   O199    1.289   .     A
C169   O204    1.290   .     A
C170   C172    1.399   .     A
C170   H189    1.085   .     S
C171   C177    1.446   .     S
C171   C184    1.399   .     A
C171   C183    1.414   .     A
C172   C182    1.414   .     A
C173   N198    1.367   .     A
C173   H190    1.082   .     S
C173   C931    1.417   1_554 S
C174   H191    1.082   .     S
C174   N197    1.367   .     A
C174   C554    1.417   .     S
C175   N197    1.367   .     A
C175   H192    1.082   .     S
C175   C551    1.417   .     S
C176   N198    1.367   .     A
C176   H193    1.082   .     S
C176   C930    1.417   1_554 S
C177   O205    1.290   .     A
C177   O203    1.289   .     A
C178   O206    1.284   .     A
C178   C180    1.448   .     S
C178   O208    1.292   .     A
C179   O207    1.284   .     A
C179   C181    1.448   .     S
C179   O209    1.292   .     A
C181   C222    1.354   .     S
C181   O242    1.388   .     S
C182   O201    1.381   .     S
C183   O202    1.381   .     S
C183   C296    1.386   .     S
C184   H187    1.085   .     S
C184   C308    1.386   .     S
Cu185  N197    2.013   .     S
Cu185  Cu186   2.678   .     S
Cu185  O205    1.958   .     S
Cu185  O206    1.973   .     S
Cu185  O199    1.959   .     S
Cu185  O209    1.975   .     S
Cu186  O207    1.973   .     S
Cu186  N198    2.013   .     S
Cu186  O203    1.959   .     S
Cu186  O208    1.975   .     S
Cu186  O204    1.958   .     S
H188   O202    0.989   .     S
H195   O242    0.991   .     S
H196   O201    0.989   .     S
O210   H236    0.991   .     S
O210   C222    1.388   .     S
C211   C214    1.446   .     S
C211   O241    1.289   .     A
C211   O246    1.290   .     A
C212   C214    1.399   .     A
C212   H231    1.085   .     S
C213   C219    1.446   .     S
C213   C226    1.399   .     A
C213   C225    1.414   .     A
C214   C224    1.414   .     A
C215   N240    1.367   .     A
C215   H232    1.082   .     S
C215   C973    1.417   1_554 S
C216   H233    1.082   .     S
C216   N239    1.367   .     A
C216   C596    1.417   .     S
C217   N239    1.367   .     A
C217   H234    1.082   .     S
C217   C593    1.417   .     S
C218   N240    1.367   .     A
C218   H235    1.082   .     S
C218   C972    1.417   1_554 S
C219   O247    1.290   .     A
C219   O245    1.289   .     A
C220   O248    1.284   .     A
C220   C222    1.448   .     S
C220   O250    1.292   .     A
C221   O249    1.284   .     A
C221   C223    1.448   .     S
C221   O251    1.292   .     A
C223   C138    1.354   1_655 S
C223   O158    1.388   1_655 S
C224   O243    1.381   .     S
C225   O244    1.381   .     S
C225   C338    1.386   .     S
C226   H229    1.085   .     S
C226   C350    1.386   .     S
Cu227  N239    2.013   .     S
Cu227  Cu228   2.678   .     S
Cu227  O247    1.958   .     S
Cu227  O248    1.973   .     S
Cu227  O241    1.959   .     S
Cu227  O251    1.975   .     S
Cu228  O249    1.973   .     S
Cu228  N240    2.013   .     S
Cu228  O245    1.959   .     S
Cu228  O250    1.975   .     S
Cu228  O246    1.958   .     S
H230   O244    0.989   .     S
H237   O158    0.991   1_655 S
H238   O243    0.989   .     S
O252   H152    0.991   1_655 S
O252   C138    1.388   1_655 S
C253   C256    1.446   .     S
C253   O283    1.289   .     A
C253   O288    1.290   .     A
C254   C256    1.399   .     A
C254   H273    1.085   .     S
C255   C261    1.446   .     S
C255   C268    1.399   .     A
C255   C267    1.414   .     A
C256   C266    1.414   .     A
C257   N282    1.367   .     A
C257   H274    1.082   .     S
C257   C1015   1.417   1_554 S
C258   H275    1.082   .     S
C258   N281    1.367   .     A
C258   C638    1.417   .     S
C259   N281    1.367   .     A
C259   H276    1.082   .     S
C259   C635    1.417   .     S
C260   N282    1.367   .     A
C260   H277    1.082   .     S
C260   C1014   1.417   1_554 S
C261   O289    1.290   .     A
C261   O287    1.289   .     A
C262   O290    1.284   .     A
C262   C264    1.448   .     S
C262   O292    1.292   .     A
C263   O291    1.284   .     A
C263   C265    1.448   .     S
C263   O293    1.292   .     A
C264   C349    1.354   1_455 S
C264   O378    1.388   1_455 S
C265   C306    1.354   .     S
C265   O326    1.388   .     S
C266   O285    1.381   .     S
C267   O286    1.381   .     S
C267   C2      1.386   1_565 S
C268   H271    1.085   .     S
C268   C14     1.386   1_565 S
Cu269  N281    2.013   .     S
Cu269  Cu270   2.678   .     S
Cu269  O289    1.958   .     S
Cu269  O290    1.973   .     S
Cu269  O283    1.959   .     S
Cu269  O293    1.975   .     S
Cu270  O291    1.973   .     S
Cu270  N282    2.013   .     S
Cu270  O287    1.959   .     S
Cu270  O292    1.975   .     S
Cu270  O288    1.958   .     S
H272   O286    0.989   .     S
H278   O378    0.991   1_455 S
H279   O326    0.991   .     S
H280   O285    0.989   .     S
O284   H363    0.991   1_455 S
O284   C349    1.388   1_455 S
O294   H320    0.991   .     S
O294   C306    1.388   .     S
C295   C298    1.446   .     S
C295   O325    1.289   .     A
C295   O330    1.290   .     A
C296   C298    1.399   .     A
C296   H315    1.085   .     S
C297   C303    1.446   .     S
C297   C310    1.399   .     A
C297   C309    1.414   .     A
C298   C308    1.414   .     A
C299   N324    1.367   .     A
C299   H316    1.082   .     S
C299   C1057   1.417   1_554 S
C300   H317    1.082   .     S
C300   N323    1.367   .     A
C300   C680    1.417   .     S
C301   N323    1.367   .     A
C301   H318    1.082   .     S
C301   C677    1.417   .     S
C302   N324    1.367   .     A
C302   H319    1.082   .     S
C302   C1056   1.417   1_554 S
C303   O331    1.290   .     A
C303   O329    1.289   .     A
C304   O332    1.284   .     A
C304   C306    1.448   .     S
C304   O334    1.292   .     A
C305   O333    1.284   .     A
C305   C307    1.448   .     S
C305   O335    1.292   .     A
C307   C348    1.354   .     S
C307   O368    1.388   .     S
C308   O327    1.381   .     S
C309   O328    1.381   .     S
C309   C44     1.386   1_565 S
C310   H313    1.085   .     S
C310   C56     1.386   1_565 S
Cu311  N323    2.013   .     S
Cu311  Cu312   2.678   .     S
Cu311  O331    1.958   .     S
Cu311  O332    1.973   .     S
Cu311  O325    1.959   .     S
Cu311  O335    1.975   .     S
Cu312  O333    1.973   .     S
Cu312  N324    2.013   .     S
Cu312  O329    1.959   .     S
Cu312  O334    1.975   .     S
Cu312  O330    1.958   .     S
H314   O328    0.989   .     S
H321   O368    0.991   .     S
H322   O327    0.989   .     S
O336   H362    0.991   .     S
O336   C348    1.388   .     S
C337   C340    1.446   .     S
C337   O367    1.289   .     A
C337   O372    1.290   .     A
C338   C340    1.399   .     A
C338   H357    1.085   .     S
C339   C345    1.446   .     S
C339   C352    1.399   .     A
C339   C351    1.414   .     A
C340   C350    1.414   .     A
C341   N366    1.367   .     A
C341   H358    1.082   .     S
C341   C1099   1.417   1_554 S
C342   H359    1.082   .     S
C342   N365    1.367   .     A
C342   C722    1.417   .     S
C343   N365    1.367   .     A
C343   H360    1.082   .     S
C343   C719    1.417   .     S
C344   N366    1.367   .     A
C344   H361    1.082   .     S
C344   C1098   1.417   1_554 S
C345   O373    1.290   .     A
C345   O371    1.289   .     A
C346   O374    1.284   .     A
C346   C348    1.448   .     S
C346   O376    1.292   .     A
C347   O375    1.284   .     A
C347   C349    1.448   .     S
C347   O377    1.292   .     A
C349   C264    1.354   1_655 S
C349   O284    1.388   1_655 S
C350   O369    1.381   .     S
C351   O370    1.381   .     S
C351   C86     1.386   1_565 S
C352   H355    1.085   .     S
C352   C98     1.386   1_565 S
Cu353  N365    2.013   .     S
Cu353  Cu354   2.678   .     S
Cu353  O373    1.958   .     S
Cu353  O374    1.973   .     S
Cu353  O367    1.959   .     S
Cu353  O377    1.975   .     S
Cu354  O375    1.973   .     S
Cu354  N366    2.013   .     S
Cu354  O371    1.959   .     S
Cu354  O376    1.975   .     S
Cu354  O372    1.958   .     S
H356   O370    0.989   .     S
H363   O284    0.991   1_655 S
H364   O369    0.989   .     S
O378   H278    0.991   1_655 S
O378   C264    1.388   1_655 S
C379   C382    1.446   .     S
C379   O409    1.289   .     A
C379   O414    1.290   .     A
C380   C382    1.399   .     A
C380   H399    1.085   .     S
C380   C645    1.386   1_545 S
C381   C387    1.446   .     S
C381   C394    1.399   .     A
C381   C393    1.414   .     A
C382   C392    1.414   .     A
C383   N408    1.367   .     A
C383   H400    1.082   .     S
C384   H401    1.082   .     S
C384   N407    1.367   .     A
C384   C764    1.417   .     S
C385   N407    1.367   .     A
C385   H402    1.082   .     S
C385   C761    1.417   .     S
C386   N408    1.367   .     A
C386   H403    1.082   .     S
C387   O415    1.290   .     A
C387   O413    1.289   .     A
C388   O416    1.284   .     A
C388   C390    1.448   .     S
C388   O418    1.292   .     A
C389   O417    1.284   .     A
C389   C391    1.448   .     S
C389   O419    1.292   .     A
C390   C475    1.354   1_455 S
C390   O504    1.388   1_455 S
C391   C432    1.354   .     S
C391   O452    1.388   .     S
C392   O411    1.381   .     S
C392   C646    1.386   1_545 S
C393   O412    1.381   .     S
C393   C506    1.386   .     S
C394   H397    1.085   .     S
C394   C518    1.386   .     S
Cu395  N407    2.013   .     S
Cu395  Cu396   2.678   .     S
Cu395  O415    1.958   .     S
Cu395  O416    1.973   .     S
Cu395  O409    1.959   .     S
Cu395  O419    1.975   .     S
Cu396  O417    1.973   .     S
Cu396  N408    2.013   .     S
Cu396  O413    1.959   .     S
Cu396  O418    1.975   .     S
Cu396  O414    1.958   .     S
H398   O412    0.989   .     S
H404   O504    0.991   1_455 S
H405   O452    0.991   .     S
H406   O411    0.989   .     S
O410   H489    0.991   1_455 S
O410   C475    1.388   1_455 S
O420   H446    0.991   .     S
O420   C432    1.388   .     S
C421   C424    1.446   .     S
C421   O451    1.289   .     A
C421   O456    1.290   .     A
C422   C424    1.399   .     A
C422   H441    1.085   .     S
C422   C687    1.386   1_545 S
C423   C429    1.446   .     S
C423   C436    1.399   .     A
C423   C435    1.414   .     A
C424   C434    1.414   .     A
C425   N450    1.367   .     A
C425   H442    1.082   .     S
C426   H443    1.082   .     S
C426   N449    1.367   .     A
C426   C806    1.417   .     S
C427   N449    1.367   .     A
C427   H444    1.082   .     S
C427   C803    1.417   .     S
C428   N450    1.367   .     A
C428   H445    1.082   .     S
C429   O457    1.290   .     A
C429   O455    1.289   .     A
C430   O458    1.284   .     A
C430   C432    1.448   .     S
C430   O460    1.292   .     A
C431   O459    1.284   .     A
C431   C433    1.448   .     S
C431   O461    1.292   .     A
C433   C474    1.354   .     S
C433   O494    1.388   .     S
C434   O453    1.381   .     S
C434   C688    1.386   1_545 S
C435   O454    1.381   .     S
C435   C548    1.386   .     S
C436   H439    1.085   .     S
C436   C560    1.386   .     S
Cu437  N449    2.013   .     S
Cu437  Cu438   2.678   .     S
Cu437  O457    1.958   .     S
Cu437  O458    1.973   .     S
Cu437  O451    1.959   .     S
Cu437  O461    1.975   .     S
Cu438  O459    1.973   .     S
Cu438  N450    2.013   .     S
Cu438  O455    1.959   .     S
Cu438  O460    1.975   .     S
Cu438  O456    1.958   .     S
H440   O454    0.989   .     S
H447   O494    0.991   .     S
H448   O453    0.989   .     S
O462   H488    0.991   .     S
O462   C474    1.388   .     S
C463   C466    1.446   .     S
C463   O493    1.289   .     A
C463   O498    1.290   .     A
C464   C466    1.399   .     A
C464   H483    1.085   .     S
C464   C729    1.386   1_545 S
C465   C471    1.446   .     S
C465   C478    1.399   .     A
C465   C477    1.414   .     A
C466   C476    1.414   .     A
C467   N492    1.367   .     A
C467   H484    1.082   .     S
C468   H485    1.082   .     S
C468   N491    1.367   .     A
C468   C848    1.417   .     S
C469   N491    1.367   .     A
C469   H486    1.082   .     S
C469   C845    1.417   .     S
C470   N492    1.367   .     A
C470   H487    1.082   .     S
C471   O499    1.290   .     A
C471   O497    1.289   .     A
C472   O500    1.284   .     A
C472   C474    1.448   .     S
C472   O502    1.292   .     A
C473   O501    1.284   .     A
C473   C475    1.448   .     S
C473   O503    1.292   .     A
C475   C390    1.354   1_655 S
C475   O410    1.388   1_655 S
C476   O495    1.381   .     S
C476   C730    1.386   1_545 S
C477   O496    1.381   .     S
C477   C590    1.386   .     S
C478   H481    1.085   .     S
C478   C602    1.386   .     S
Cu479  N491    2.013   .     S
Cu479  Cu480   2.678   .     S
Cu479  O499    1.958   .     S
Cu479  O500    1.973   .     S
Cu479  O493    1.959   .     S
Cu479  O503    1.975   .     S
Cu480  O501    1.973   .     S
Cu480  N492    2.013   .     S
Cu480  O497    1.959   .     S
Cu480  O502    1.975   .     S
Cu480  O498    1.958   .     S
H482   O496    0.989   .     S
H489   O410    0.991   1_655 S
H490   O495    0.989   .     S
O504   H404    0.991   1_655 S
O504   C390    1.388   1_655 S
C505   C508    1.446   .     S
C505   O535    1.289   .     A
C505   O540    1.290   .     A
C506   C508    1.399   .     A
C506   H525    1.085   .     S
C507   C513    1.446   .     S
C507   C520    1.399   .     A
C507   C519    1.414   .     A
C508   C518    1.414   .     A
C509   N534    1.367   .     A
C509   H526    1.082   .     S
C510   H527    1.082   .     S
C510   N533    1.367   .     A
C510   C890    1.417   .     S
C511   N533    1.367   .     A
C511   H528    1.082   .     S
C511   C887    1.417   .     S
C512   N534    1.367   .     A
C512   H529    1.082   .     S
C513   O541    1.290   .     A
C513   O539    1.289   .     A
C514   O542    1.284   .     A
C514   C516    1.448   .     S
C514   O544    1.292   .     A
C515   O543    1.284   .     A
C515   C517    1.448   .     S
C515   O545    1.292   .     A
C516   C601    1.354   1_455 S
C516   O630    1.388   1_455 S
C517   C558    1.354   .     S
C517   O578    1.388   .     S
C518   O537    1.381   .     S
C519   O538    1.381   .     S
C519   C632    1.386   .     S
C520   H523    1.085   .     S
C520   C644    1.386   .     S
Cu521  N533    2.013   .     S
Cu521  Cu522   2.678   .     S
Cu521  O541    1.958   .     S
Cu521  O542    1.973   .     S
Cu521  O535    1.959   .     S
Cu521  O545    1.975   .     S
Cu522  O543    1.973   .     S
Cu522  N534    2.013   .     S
Cu522  O539    1.959   .     S
Cu522  O544    1.975   .     S
Cu522  O540    1.958   .     S
H524   O538    0.989   .     S
H530   O630    0.991   1_455 S
H531   O578    0.991   .     S
H532   O537    0.989   .     S
O536   H615    0.991   1_455 S
O536   C601    1.388   1_455 S
O546   H572    0.991   .     S
O546   C558    1.388   .     S
C547   C550    1.446   .     S
C547   O577    1.289   .     A
C547   O582    1.290   .     A
C548   C550    1.399   .     A
C548   H567    1.085   .     S
C549   C555    1.446   .     S
C549   C562    1.399   .     A
C549   C561    1.414   .     A
C550   C560    1.414   .     A
C551   N576    1.367   .     A
C551   H568    1.082   .     S
C552   H569    1.082   .     S
C552   N575    1.367   .     A
C552   C932    1.417   .     S
C553   N575    1.367   .     A
C553   H570    1.082   .     S
C553   C929    1.417   .     S
C554   N576    1.367   .     A
C554   H571    1.082   .     S
C555   O583    1.290   .     A
C555   O581    1.289   .     A
C556   O584    1.284   .     A
C556   C558    1.448   .     S
C556   O586    1.292   .     A
C557   O585    1.284   .     A
C557   C559    1.448   .     S
C557   O587    1.292   .     A
C559   C600    1.354   .     S
C559   O620    1.388   .     S
C560   O579    1.381   .     S
C561   O580    1.381   .     S
C561   C674    1.386   .     S
C562   H565    1.085   .     S
C562   C686    1.386   .     S
Cu563  N575    2.013   .     S
Cu563  Cu564   2.678   .     S
Cu563  O583    1.958   .     S
Cu563  O584    1.973   .     S
Cu563  O577    1.959   .     S
Cu563  O587    1.975   .     S
Cu564  O585    1.973   .     S
Cu564  N576    2.013   .     S
Cu564  O581    1.959   .     S
Cu564  O586    1.975   .     S
Cu564  O582    1.958   .     S
H566   O580    0.989   .     S
H573   O620    0.991   .     S
H574   O579    0.989   .     S
O588   H614    0.991   .     S
O588   C600    1.388   .     S
C589   C592    1.446   .     S
C589   O619    1.289   .     A
C589   O624    1.290   .     A
C590   C592    1.399   .     A
C590   H609    1.085   .     S
C591   C597    1.446   .     S
C591   C604    1.399   .     A
C591   C603    1.414   .     A
C592   C602    1.414   .     A
C593   N618    1.367   .     A
C593   H610    1.082   .     S
C594   H611    1.082   .     S
C594   N617    1.367   .     A
C594   C974    1.417   .     S
C595   N617    1.367   .     A
C595   H612    1.082   .     S
C595   C971    1.417   .     S
C596   N618    1.367   .     A
C596   H613    1.082   .     S
C597   O625    1.290   .     A
C597   O623    1.289   .     A
C598   O626    1.284   .     A
C598   C600    1.448   .     S
C598   O628    1.292   .     A
C599   O627    1.284   .     A
C599   C601    1.448   .     S
C599   O629    1.292   .     A
C601   C516    1.354   1_655 S
C601   O536    1.388   1_655 S
C602   O621    1.381   .     S
C603   O622    1.381   .     S
C603   C716    1.386   .     S
C604   H607    1.085   .     S
C604   C728    1.386   .     S
Cu605  N617    2.013   .     S
Cu605  Cu606   2.678   .     S
Cu605  O625    1.958   .     S
Cu605  O626    1.973   .     S
Cu605  O619    1.959   .     S
Cu605  O629    1.975   .     S
Cu606  O627    1.973   .     S
Cu606  N618    2.013   .     S
Cu606  O623    1.959   .     S
Cu606  O628    1.975   .     S
Cu606  O624    1.958   .     S
H608   O622    0.989   .     S
H615   O536    0.991   1_655 S
H616   O621    0.989   .     S
O630   H530    0.991   1_655 S
O630   C516    1.388   1_655 S
C631   C634    1.446   .     S
C631   O661    1.289   .     A
C631   O666    1.290   .     A
C632   C634    1.399   .     A
C632   H651    1.085   .     S
C633   C639    1.446   .     S
C633   C646    1.399   .     A
C633   C645    1.414   .     A
C634   C644    1.414   .     A
C635   N660    1.367   .     A
C635   H652    1.082   .     S
C636   H653    1.082   .     S
C636   N659    1.367   .     A
C636   C1016   1.417   .     S
C637   N659    1.367   .     A
C637   H654    1.082   .     S
C637   C1013   1.417   .     S
C638   N660    1.367   .     A
C638   H655    1.082   .     S
C639   O667    1.290   .     A
C639   O665    1.289   .     A
C640   O668    1.284   .     A
C640   C642    1.448   .     S
C640   O670    1.292   .     A
C641   O669    1.284   .     A
C641   C643    1.448   .     S
C641   O671    1.292   .     A
C642   C727    1.354   1_455 S
C642   O756    1.388   1_455 S
C643   C684    1.354   .     S
C643   O704    1.388   .     S
C644   O663    1.381   .     S
C645   O664    1.381   .     S
C645   C380    1.386   1_565 S
C646   H649    1.085   .     S
C646   C392    1.386   1_565 S
Cu647  N659    2.013   .     S
Cu647  Cu648   2.678   .     S
Cu647  O667    1.958   .     S
Cu647  O668    1.973   .     S
Cu647  O661    1.959   .     S
Cu647  O671    1.975   .     S
Cu648  O669    1.973   .     S
Cu648  N660    2.013   .     S
Cu648  O665    1.959   .     S
Cu648  O670    1.975   .     S
Cu648  O666    1.958   .     S
H650   O664    0.989   .     S
H656   O756    0.991   1_455 S
H657   O704    0.991   .     S
H658   O663    0.989   .     S
O662   H741    0.991   1_455 S
O662   C727    1.388   1_455 S
O672   H698    0.991   .     S
O672   C684    1.388   .     S
C673   C676    1.446   .     S
C673   O703    1.289   .     A
C673   O708    1.290   .     A
C674   C676    1.399   .     A
C674   H693    1.085   .     S
C675   C681    1.446   .     S
C675   C688    1.399   .     A
C675   C687    1.414   .     A
C676   C686    1.414   .     A
C677   N702    1.367   .     A
C677   H694    1.082   .     S
C678   H695    1.082   .     S
C678   N701    1.367   .     A
C678   C1058   1.417   .     S
C679   N701    1.367   .     A
C679   H696    1.082   .     S
C679   C1055   1.417   .     S
C680   N702    1.367   .     A
C680   H697    1.082   .     S
C681   O709    1.290   .     A
C681   O707    1.289   .     A
C682   O710    1.284   .     A
C682   C684    1.448   .     S
C682   O712    1.292   .     A
C683   O711    1.284   .     A
C683   C685    1.448   .     S
C683   O713    1.292   .     A
C685   C726    1.354   .     S
C685   O746    1.388   .     S
C686   O705    1.381   .     S
C687   O706    1.381   .     S
C687   C422    1.386   1_565 S
C688   H691    1.085   .     S
C688   C434    1.386   1_565 S
Cu689  N701    2.013   .     S
Cu689  Cu690   2.678   .     S
Cu689  O709    1.958   .     S
Cu689  O710    1.973   .     S
Cu689  O703    1.959   .     S
Cu689  O713    1.975   .     S
Cu690  O711    1.973   .     S
Cu690  N702    2.013   .     S
Cu690  O707    1.959   .     S
Cu690  O712    1.975   .     S
Cu690  O708    1.958   .     S
H692   O706    0.989   .     S
H699   O746    0.991   .     S
H700   O705    0.989   .     S
O714   H740    0.991   .     S
O714   C726    1.388   .     S
C715   C718    1.446   .     S
C715   O745    1.289   .     A
C715   O750    1.290   .     A
C716   C718    1.399   .     A
C716   H735    1.085   .     S
C717   C723    1.446   .     S
C717   C730    1.399   .     A
C717   C729    1.414   .     A
C718   C728    1.414   .     A
C719   N744    1.367   .     A
C719   H736    1.082   .     S
C720   H737    1.082   .     S
C720   N743    1.367   .     A
C720   C1100   1.417   .     S
C721   N743    1.367   .     A
C721   H738    1.082   .     S
C721   C1097   1.417   .     S
C722   N744    1.367   .     A
C722   H739    1.082   .     S
C723   O751    1.290   .     A
C723   O749    1.289   .     A
C724   O752    1.284   .     A
C724   C726    1.448   .     S
C724   O754    1.292   .     A
C725   O753    1.284   .     A
C725   C727    1.448   .     S
C725   O755    1.292   .     A
C727   C642    1.354   1_655 S
C727   O662    1.388   1_655 S
C728   O747    1.381   .     S
C729   O748    1.381   .     S
C729   C464    1.386   1_565 S
C730   H733    1.085   .     S
C730   C476    1.386   1_565 S
Cu731  N743    2.013   .     S
Cu731  Cu732   2.678   .     S
Cu731  O751    1.958   .     S
Cu731  O752    1.973   .     S
Cu731  O745    1.959   .     S
Cu731  O755    1.975   .     S
Cu732  O753    1.973   .     S
Cu732  N744    2.013   .     S
Cu732  O749    1.959   .     S
Cu732  O754    1.975   .     S
Cu732  O750    1.958   .     S
H734   O748    0.989   .     S
H741   O662    0.991   1_655 S
H742   O747    0.989   .     S
O756   H656    0.991   1_655 S
O756   C642    1.388   1_655 S
C757   C760    1.446   .     S
C757   O787    1.289   .     A
C757   O792    1.290   .     A
C758   C760    1.399   .     A
C758   H777    1.085   .     S
C758   C1023   1.386   1_545 S
C759   C765    1.446   .     S
C759   C772    1.399   .     A
C759   C771    1.414   .     A
C760   C770    1.414   .     A
C761   N786    1.367   .     A
C761   H778    1.082   .     S
C762   H779    1.082   .     S
C762   N785    1.367   .     A
C762   C8      1.417   1_556 S
C763   N785    1.367   .     A
C763   H780    1.082   .     S
C763   C5      1.417   1_556 S
C764   N786    1.367   .     A
C764   H781    1.082   .     S
C765   O793    1.290   .     A
C765   O791    1.289   .     A
C766   O794    1.284   .     A
C766   C768    1.448   .     S
C766   O796    1.292   .     A
C767   O795    1.284   .     A
C767   C769    1.448   .     S
C767   O797    1.292   .     A
C768   C853    1.354   1_455 S
C768   O882    1.388   1_455 S
C769   C810    1.354   .     S
C769   O830    1.388   .     S
C770   O789    1.381   .     S
C770   C1024   1.386   1_545 S
C771   O790    1.381   .     S
C771   C884    1.386   .     S
C772   H775    1.085   .     S
C772   C896    1.386   .     S
Cu773  N785    2.013   .     S
Cu773  Cu774   2.678   .     S
Cu773  O793    1.958   .     S
Cu773  O794    1.973   .     S
Cu773  O787    1.959   .     S
Cu773  O797    1.975   .     S
Cu774  O795    1.973   .     S
Cu774  N786    2.013   .     S
Cu774  O791    1.959   .     S
Cu774  O796    1.975   .     S
Cu774  O792    1.958   .     S
H776   O790    0.989   .     S
H782   O882    0.991   1_455 S
H783   O830    0.991   .     S
H784   O789    0.989   .     S
O788   H867    0.991   1_455 S
O788   C853    1.388   1_455 S
O798   H824    0.991   .     S
O798   C810    1.388   .     S
C799   C802    1.446   .     S
C799   O829    1.289   .     A
C799   O834    1.290   .     A
C800   C802    1.399   .     A
C800   H819    1.085   .     S
C800   C1065   1.386   1_545 S
C801   C807    1.446   .     S
C801   C814    1.399   .     A
C801   C813    1.414   .     A
C802   C812    1.414   .     A
C803   N828    1.367   .     A
C803   H820    1.082   .     S
C804   H821    1.082   .     S
C804   N827    1.367   .     A
C804   C50     1.417   1_556 S
C805   N827    1.367   .     A
C805   H822    1.082   .     S
C805   C47     1.417   1_556 S
C806   N828    1.367   .     A
C806   H823    1.082   .     S
C807   O835    1.290   .     A
C807   O833    1.289   .     A
C808   O836    1.284   .     A
C808   C810    1.448   .     S
C808   O838    1.292   .     A
C809   O837    1.284   .     A
C809   C811    1.448   .     S
C809   O839    1.292   .     A
C811   C852    1.354   .     S
C811   O872    1.388   .     S
C812   O831    1.381   .     S
C812   C1066   1.386   1_545 S
C813   O832    1.381   .     S
C813   C926    1.386   .     S
C814   H817    1.085   .     S
C814   C938    1.386   .     S
Cu815  N827    2.013   .     S
Cu815  Cu816   2.678   .     S
Cu815  O835    1.958   .     S
Cu815  O836    1.973   .     S
Cu815  O829    1.959   .     S
Cu815  O839    1.975   .     S
Cu816  O837    1.973   .     S
Cu816  N828    2.013   .     S
Cu816  O833    1.959   .     S
Cu816  O838    1.975   .     S
Cu816  O834    1.958   .     S
H818   O832    0.989   .     S
H825   O872    0.991   .     S
H826   O831    0.989   .     S
O840   H866    0.991   .     S
O840   C852    1.388   .     S
C841   C844    1.446   .     S
C841   O871    1.289   .     A
C841   O876    1.290   .     A
C842   C844    1.399   .     A
C842   H861    1.085   .     S
C842   C1107   1.386   1_545 S
C843   C849    1.446   .     S
C843   C856    1.399   .     A
C843   C855    1.414   .     A
C844   C854    1.414   .     A
C845   N870    1.367   .     A
C845   H862    1.082   .     S
C846   H863    1.082   .     S
C846   N869    1.367   .     A
C846   C92     1.417   1_556 S
C847   N869    1.367   .     A
C847   H864    1.082   .     S
C847   C89     1.417   1_556 S
C848   N870    1.367   .     A
C848   H865    1.082   .     S
C849   O877    1.290   .     A
C849   O875    1.289   .     A
C850   O878    1.284   .     A
C850   C852    1.448   .     S
C850   O880    1.292   .     A
C851   O879    1.284   .     A
C851   C853    1.448   .     S
C851   O881    1.292   .     A
C853   C768    1.354   1_655 S
C853   O788    1.388   1_655 S
C854   O873    1.381   .     S
C854   C1108   1.386   1_545 S
C855   O874    1.381   .     S
C855   C968    1.386   .     S
C856   H859    1.085   .     S
C856   C980    1.386   .     S
Cu857  N869    2.013   .     S
Cu857  Cu858   2.678   .     S
Cu857  O877    1.958   .     S
Cu857  O878    1.973   .     S
Cu857  O871    1.959   .     S
Cu857  O881    1.975   .     S
Cu858  O879    1.973   .     S
Cu858  N870    2.013   .     S
Cu858  O875    1.959   .     S
Cu858  O880    1.975   .     S
Cu858  O876    1.958   .     S
H860   O874    0.989   .     S
H867   O788    0.991   1_655 S
H868   O873    0.989   .     S
O882   H782    0.991   1_655 S
O882   C768    1.388   1_655 S
C883   C886    1.446   .     S
C883   O913    1.289   .     A
C883   O918    1.290   .     A
C884   C886    1.399   .     A
C884   H903    1.085   .     S
C885   C891    1.446   .     S
C885   C898    1.399   .     A
C885   C897    1.414   .     A
C886   C896    1.414   .     A
C887   N912    1.367   .     A
C887   H904    1.082   .     S
C888   H905    1.082   .     S
C888   N911    1.367   .     A
C888   C134    1.417   1_556 S
C889   N911    1.367   .     A
C889   H906    1.082   .     S
C889   C131    1.417   1_556 S
C890   N912    1.367   .     A
C890   H907    1.082   .     S
C891   O919    1.290   .     A
C891   O917    1.289   .     A
C892   O920    1.284   .     A
C892   C894    1.448   .     S
C892   O922    1.292   .     A
C893   O921    1.284   .     A
C893   C895    1.448   .     S
C893   O923    1.292   .     A
C894   C979    1.354   1_455 S
C894   O1008   1.388   1_455 S
C895   C936    1.354   .     S
C895   O956    1.388   .     S
C896   O915    1.381   .     S
C897   O916    1.381   .     S
C897   C1010   1.386   .     S
C898   H901    1.085   .     S
C898   C1022   1.386   .     S
Cu899  N911    2.013   .     S
Cu899  Cu900   2.678   .     S
Cu899  O919    1.958   .     S
Cu899  O920    1.973   .     S
Cu899  O913    1.959   .     S
Cu899  O923    1.975   .     S
Cu900  O921    1.973   .     S
Cu900  N912    2.013   .     S
Cu900  O917    1.959   .     S
Cu900  O922    1.975   .     S
Cu900  O918    1.958   .     S
H902   O916    0.989   .     S
H908   O1008   0.991   1_455 S
H909   O956    0.991   .     S
H910   O915    0.989   .     S
O914   H993    0.991   1_455 S
O914   C979    1.388   1_455 S
O924   H950    0.991   .     S
O924   C936    1.388   .     S
C925   C928    1.446   .     S
C925   O955    1.289   .     A
C925   O960    1.290   .     A
C926   C928    1.399   .     A
C926   H945    1.085   .     S
C927   C933    1.446   .     S
C927   C940    1.399   .     A
C927   C939    1.414   .     A
C928   C938    1.414   .     A
C929   N954    1.367   .     A
C929   H946    1.082   .     S
C930   H947    1.082   .     S
C930   N953    1.367   .     A
C930   C176    1.417   1_556 S
C931   N953    1.367   .     A
C931   H948    1.082   .     S
C931   C173    1.417   1_556 S
C932   N954    1.367   .     A
C932   H949    1.082   .     S
C933   O961    1.290   .     A
C933   O959    1.289   .     A
C934   O962    1.284   .     A
C934   C936    1.448   .     S
C934   O964    1.292   .     A
C935   O963    1.284   .     A
C935   C937    1.448   .     S
C935   O965    1.292   .     A
C937   C978    1.354   .     S
C937   O998    1.388   .     S
C938   O957    1.381   .     S
C939   O958    1.381   .     S
C939   C1052   1.386   .     S
C940   H943    1.085   .     S
C940   C1064   1.386   .     S
Cu941  N953    2.013   .     S
Cu941  Cu942   2.678   .     S
Cu941  O961    1.958   .     S
Cu941  O962    1.973   .     S
Cu941  O955    1.959   .     S
Cu941  O965    1.975   .     S
Cu942  O963    1.973   .     S
Cu942  N954    2.013   .     S
Cu942  O959    1.959   .     S
Cu942  O964    1.975   .     S
Cu942  O960    1.958   .     S
H944   O958    0.989   .     S
H951   O998    0.991   .     S
H952   O957    0.989   .     S
O966   H992    0.991   .     S
O966   C978    1.388   .     S
C967   C970    1.446   .     S
C967   O997    1.289   .     A
C967   O1002   1.290   .     A
C968   C970    1.399   .     A
C968   H987    1.085   .     S
C969   C975    1.446   .     S
C969   C982    1.399   .     A
C969   C981    1.414   .     A
C970   C980    1.414   .     A
C971   N996    1.367   .     A
C971   H988    1.082   .     S
C972   H989    1.082   .     S
C972   N995    1.367   .     A
C972   C218    1.417   1_556 S
C973   N995    1.367   .     A
C973   H990    1.082   .     S
C973   C215    1.417   1_556 S
C974   N996    1.367   .     A
C974   H991    1.082   .     S
C975   O1003   1.290   .     A
C975   O1001   1.289   .     A
C976   O1004   1.284   .     A
C976   C978    1.448   .     S
C976   O1006   1.292   .     A
C977   O1005   1.284   .     A
C977   C979    1.448   .     S
C977   O1007   1.292   .     A
C979   C894    1.354   1_655 S
C979   O914    1.388   1_655 S
C980   O999    1.381   .     S
C981   O1000   1.381   .     S
C981   C1094   1.386   .     S
C982   H985    1.085   .     S
C982   C1106   1.386   .     S
Cu983  N995    2.013   .     S
Cu983  Cu984   2.678   .     S
Cu983  O1003   1.958   .     S
Cu983  O1004   1.973   .     S
Cu983  O997    1.959   .     S
Cu983  O1007   1.975   .     S
Cu984  O1005   1.973   .     S
Cu984  N996    2.013   .     S
Cu984  O1001   1.959   .     S
Cu984  O1006   1.975   .     S
Cu984  O1002   1.958   .     S
H986   O1000   0.989   .     S
H993   O914    0.991   1_655 S
H994   O999    0.989   .     S
O1008  H908    0.991   1_655 S
O1008  C894    1.388   1_655 S
C1009  C1012   1.446   .     S
C1009  O1039   1.289   .     A
C1009  O1044   1.290   .     A
C1010  C1012   1.399   .     A
C1010  H1029   1.085   .     S
C1011  C1017   1.446   .     S
C1011  C1024   1.399   .     A
C1011  C1023   1.414   .     A
C1012  C1022   1.414   .     A
C1013  N1038   1.367   .     A
C1013  H1030   1.082   .     S
C1014  H1031   1.082   .     S
C1014  N1037   1.367   .     A
C1014  C260    1.417   1_556 S
C1015  N1037   1.367   .     A
C1015  H1032   1.082   .     S
C1015  C257    1.417   1_556 S
C1016  N1038   1.367   .     A
C1016  H1033   1.082   .     S
C1017  O1045   1.290   .     A
C1017  O1043   1.289   .     A
C1018  O1046   1.284   .     A
C1018  C1020   1.448   .     S
C1018  O1048   1.292   .     A
C1019  O1047   1.284   .     A
C1019  C1021   1.448   .     S
C1019  O1049   1.292   .     A
C1020  C1105   1.354   1_455 S
C1020  O1134   1.388   1_455 S
C1021  C1062   1.354   .     S
C1021  O1082   1.388   .     S
C1022  O1041   1.381   .     S
C1023  O1042   1.381   .     S
C1023  C758    1.386   1_565 S
C1024  H1027   1.085   .     S
C1024  C770    1.386   1_565 S
Cu1025 N1037   2.013   .     S
Cu1025 Cu1026  2.678   .     S
Cu1025 O1045   1.958   .     S
Cu1025 O1046   1.973   .     S
Cu1025 O1039   1.959   .     S
Cu1025 O1049   1.975   .     S
Cu1026 O1047   1.973   .     S
Cu1026 N1038   2.013   .     S
Cu1026 O1043   1.959   .     S
Cu1026 O1048   1.975   .     S
Cu1026 O1044   1.958   .     S
H1028  O1042   0.989   .     S
H1034  O1134   0.991   1_455 S
H1035  O1082   0.991   .     S
H1036  O1041   0.989   .     S
O1040  H1119   0.991   1_455 S
O1040  C1105   1.388   1_455 S
O1050  H1076   0.991   .     S
O1050  C1062   1.388   .     S
C1051  C1054   1.446   .     S
C1051  O1081   1.289   .     A
C1051  O1086   1.290   .     A
C1052  C1054   1.399   .     A
C1052  H1071   1.085   .     S
C1053  C1059   1.446   .     S
C1053  C1066   1.399   .     A
C1053  C1065   1.414   .     A
C1054  C1064   1.414   .     A
C1055  N1080   1.367   .     A
C1055  H1072   1.082   .     S
C1056  H1073   1.082   .     S
C1056  N1079   1.367   .     A
C1056  C302    1.417   1_556 S
C1057  N1079   1.367   .     A
C1057  H1074   1.082   .     S
C1057  C299    1.417   1_556 S
C1058  N1080   1.367   .     A
C1058  H1075   1.082   .     S
C1059  O1087   1.290   .     A
C1059  O1085   1.289   .     A
C1060  O1088   1.284   .     A
C1060  C1062   1.448   .     S
C1060  O1090   1.292   .     A
C1061  O1089   1.284   .     A
C1061  C1063   1.448   .     S
C1061  O1091   1.292   .     A
C1063  C1104   1.354   .     S
C1063  O1124   1.388   .     S
C1064  O1083   1.381   .     S
C1065  O1084   1.381   .     S
C1065  C800    1.386   1_565 S
C1066  H1069   1.085   .     S
C1066  C812    1.386   1_565 S
Cu1067 N1079   2.013   .     S
Cu1067 Cu1068  2.678   .     S
Cu1067 O1087   1.958   .     S
Cu1067 O1088   1.973   .     S
Cu1067 O1081   1.959   .     S
Cu1067 O1091   1.975   .     S
Cu1068 O1089   1.973   .     S
Cu1068 N1080   2.013   .     S
Cu1068 O1085   1.959   .     S
Cu1068 O1090   1.975   .     S
Cu1068 O1086   1.958   .     S
H1070  O1084   0.989   .     S
H1077  O1124   0.991   .     S
H1078  O1083   0.989   .     S
O1092  H1118   0.991   .     S
O1092  C1104   1.388   .     S
C1093  C1096   1.446   .     S
C1093  O1123   1.289   .     A
C1093  O1128   1.290   .     A
C1094  C1096   1.399   .     A
C1094  H1113   1.085   .     S
C1095  C1101   1.446   .     S
C1095  C1108   1.399   .     A
C1095  C1107   1.414   .     A
C1096  C1106   1.414   .     A
C1097  N1122   1.367   .     A
C1097  H1114   1.082   .     S
C1098  H1115   1.082   .     S
C1098  N1121   1.367   .     A
C1098  C344    1.417   1_556 S
C1099  N1121   1.367   .     A
C1099  H1116   1.082   .     S
C1099  C341    1.417   1_556 S
C1100  N1122   1.367   .     A
C1100  H1117   1.082   .     S
C1101  O1129   1.290   .     A
C1101  O1127   1.289   .     A
C1102  O1130   1.284   .     A
C1102  C1104   1.448   .     S
C1102  O1132   1.292   .     A
C1103  O1131   1.284   .     A
C1103  C1105   1.448   .     S
C1103  O1133   1.292   .     A
C1105  C1020   1.354   1_655 S
C1105  O1040   1.388   1_655 S
C1106  O1125   1.381   .     S
C1107  O1126   1.381   .     S
C1107  C842    1.386   1_565 S
C1108  H1111   1.085   .     S
C1108  C854    1.386   1_565 S
Cu1109 N1121   2.013   .     S
Cu1109 Cu1110  2.678   .     S
Cu1109 O1129   1.958   .     S
Cu1109 O1130   1.973   .     S
Cu1109 O1123   1.959   .     S
Cu1109 O1133   1.975   .     S
Cu1110 O1131   1.973   .     S
Cu1110 N1122   2.013   .     S
Cu1110 O1127   1.959   .     S
Cu1110 O1132   1.975   .     S
Cu1110 O1128   1.958   .     S
H1112  O1126   0.989   .     S
H1119  O1040   0.991   1_655 S
H1120  O1125   0.989   .     S
O1134  H1034   0.991   1_655 S
O1134  C1020   1.388   1_655 S
