data_str_m3_o1_o10_pcu_sym.1
_audit_creation_date              2020-01-03
_audit_creation_method            'Materials Studio'
_symmetry_space_group_name_H-M    'P1'
_symmetry_Int_Tables_number       1
_symmetry_cell_setting            triclinic
loop_
_symmetry_equiv_pos_as_xyz
  x,y,z
_cell_length_a                    25.7814
_cell_length_b                    32.1851
_cell_length_c                    29.5397
_cell_angle_alpha                 89.9999
_cell_angle_beta                  98.6559
_cell_angle_gamma                 90.1163
loop_
_atom_site_label
_atom_site_type_symbol
_atom_site_fract_x
_atom_site_fract_y
_atom_site_fract_z
_atom_site_U_iso_or_equiv
_atom_site_adp_type
_atom_site_occupancy
C1     C     0.16663   0.08662   0.16665   0.00000  Uiso   1.00
C2     C     0.16593   0.02128   0.20785   0.00000  Uiso   1.00
C3     C     0.16671   0.29087   0.16668   0.00000  Uiso   1.00
C4     C     0.16662   0.04247   0.16665   0.00000  Uiso   1.00
C5     C     0.19823   0.19333   0.02811   0.00000  Uiso   1.00
C6     C     0.13510   0.14000   0.30522   0.00000  Uiso   1.00
C7     C     0.19821   0.19332   0.31349   0.00000  Uiso   1.00
C8     C     0.13512   0.14001   0.01985   0.00000  Uiso   1.00
C9     C     0.16670   0.24671   0.16669   0.00000  Uiso   1.00
C10    C     0.06703   0.16666   0.15469   0.00000  Uiso   1.00
C11    C     0.26630   0.16667   0.17865   0.00000  Uiso   1.00
C12    C     0.01199   0.16670   0.14824   0.00000  Uiso   1.00
C13    C     0.32134   0.16664   0.18509   0.00000  Uiso   1.00
C14    C     0.16734   0.02127   0.12546   0.00000  Uiso   1.00
C15    C     0.16599   0.31206   0.20787   0.00000  Uiso   1.00
C16    C     0.16740   0.31205   0.12548   0.00000  Uiso   1.00
H17    H     0.32469   0.16679   0.11328   0.00000  Uiso   1.00
H18    H     0.10990   0.11869   0.03470   0.00000  Uiso   1.00
H19    H     0.00864   0.16655   0.22005   0.00000  Uiso   1.00
H20    H     0.16789   0.03740   0.09333   0.00000  Uiso   1.00
H21    H     0.16545   0.29593   0.24000   0.00000  Uiso   1.00
H22    H     0.16801   0.29592   0.09337   0.00000  Uiso   1.00
H23    H     0.16533   0.03742   0.23997   0.00000  Uiso   1.00
H24    H     0.22348   0.21465   0.04958   0.00000  Uiso   1.00
H25    H     0.10986   0.11868   0.28376   0.00000  Uiso   1.00
H26    H     0.22343   0.21464   0.29863   0.00000  Uiso   1.00
N27    N     0.16665   0.16666   0.28573   0.00000  Uiso   1.00
N28    N     0.16668   0.16668   0.04760   0.00000  Uiso   1.00
O29    O     0.16666   0.10558   0.20487   0.00000  Uiso   1.00
O30    O     0.16667   0.22775   0.12846   0.00000  Uiso   1.00
O31    O     0.16666   0.10559   0.12843   0.00000  Uiso   1.00
O32    O     0.16667   0.22774   0.20490   0.00000  Uiso   1.00
O33    O     0.09058   0.16666   0.19595   0.00000  Uiso   1.00
O34    O     0.24275   0.16667   0.13739   0.00000  Uiso   1.00
O35    O     0.09058   0.16667   0.11950   0.00000  Uiso   1.00
O36    O     0.24275   0.16666   0.21383   0.00000  Uiso   1.00
Zn37   Zn    0.16667   0.16666   0.21771   0.00000  Uiso   1.00
Zn38   Zn    0.16667   0.16667   0.11563   0.00000  Uiso   1.00
C39    C     0.49997   0.08662   0.16665   0.00000  Uiso   1.00
C40    C     0.49926   0.02128   0.20785   0.00000  Uiso   1.00
C41    C     0.50005   0.29087   0.16668   0.00000  Uiso   1.00
C42    C     0.49995   0.04247   0.16665   0.00000  Uiso   1.00
C43    C     0.53156   0.19333   0.02811   0.00000  Uiso   1.00
C44    C     0.46844   0.14000   0.30522   0.00000  Uiso   1.00
C45    C     0.53154   0.19332   0.31349   0.00000  Uiso   1.00
C46    C     0.46846   0.14001   0.01985   0.00000  Uiso   1.00
C47    C     0.50003   0.24671   0.16669   0.00000  Uiso   1.00
C48    C     0.40036   0.16666   0.15469   0.00000  Uiso   1.00
C49    C     0.59964   0.16667   0.17865   0.00000  Uiso   1.00
C50    C     0.34532   0.16670   0.14824   0.00000  Uiso   1.00
C51    C     0.65468   0.16664   0.18509   0.00000  Uiso   1.00
C52    C     0.50068   0.02127   0.12546   0.00000  Uiso   1.00
C53    C     0.49933   0.31206   0.20787   0.00000  Uiso   1.00
C54    C     0.50074   0.31205   0.12548   0.00000  Uiso   1.00
H55    H     0.65802   0.16679   0.11328   0.00000  Uiso   1.00
H56    H     0.44323   0.11869   0.03470   0.00000  Uiso   1.00
H57    H     0.34198   0.16655   0.22005   0.00000  Uiso   1.00
H58    H     0.50122   0.03740   0.09333   0.00000  Uiso   1.00
H59    H     0.49878   0.29593   0.24000   0.00000  Uiso   1.00
H60    H     0.50134   0.29592   0.09337   0.00000  Uiso   1.00
H61    H     0.49866   0.03742   0.23997   0.00000  Uiso   1.00
H62    H     0.55681   0.21465   0.04958   0.00000  Uiso   1.00
H63    H     0.44319   0.11868   0.28376   0.00000  Uiso   1.00
H64    H     0.55677   0.21464   0.29863   0.00000  Uiso   1.00
N65    N     0.49999   0.16666   0.28573   0.00000  Uiso   1.00
N66    N     0.50001   0.16668   0.04760   0.00000  Uiso   1.00
O67    O     0.50000   0.10558   0.20487   0.00000  Uiso   1.00
O68    O     0.50000   0.22775   0.12846   0.00000  Uiso   1.00
O69    O     0.50000   0.10559   0.12843   0.00000  Uiso   1.00
O70    O     0.50000   0.22774   0.20490   0.00000  Uiso   1.00
O71    O     0.42392   0.16666   0.19595   0.00000  Uiso   1.00
O72    O     0.57608   0.16667   0.13739   0.00000  Uiso   1.00
O73    O     0.42392   0.16667   0.11950   0.00000  Uiso   1.00
O74    O     0.57608   0.16666   0.21383   0.00000  Uiso   1.00
Zn75   Zn    0.50000   0.16666   0.21771   0.00000  Uiso   1.00
Zn76   Zn    0.50000   0.16667   0.11563   0.00000  Uiso   1.00
C77    C     0.83330   0.08662   0.16665   0.00000  Uiso   1.00
C78    C     0.83260   0.02128   0.20785   0.00000  Uiso   1.00
C79    C     0.83338   0.29087   0.16668   0.00000  Uiso   1.00
C80    C     0.83329   0.04247   0.16665   0.00000  Uiso   1.00
C81    C     0.86490   0.19333   0.02811   0.00000  Uiso   1.00
C82    C     0.80177   0.14000   0.30522   0.00000  Uiso   1.00
C83    C     0.86488   0.19332   0.31349   0.00000  Uiso   1.00
C84    C     0.80179   0.14001   0.01985   0.00000  Uiso   1.00
C85    C     0.83337   0.24671   0.16669   0.00000  Uiso   1.00
C86    C     0.73370   0.16666   0.15469   0.00000  Uiso   1.00
C87    C     0.93297   0.16667   0.17865   0.00000  Uiso   1.00
C88    C     0.67866   0.16670   0.14824   0.00000  Uiso   1.00
C89    C     0.98801   0.16664   0.18509   0.00000  Uiso   1.00
C90    C     0.83401   0.02127   0.12546   0.00000  Uiso   1.00
C91    C     0.83266   0.31206   0.20787   0.00000  Uiso   1.00
C92    C     0.83407   0.31205   0.12548   0.00000  Uiso   1.00
H93    H     0.99136   0.16679   0.11328   0.00000  Uiso   1.00
H94    H     0.77657   0.11869   0.03470   0.00000  Uiso   1.00
H95    H     0.67531   0.16655   0.22005   0.00000  Uiso   1.00
H96    H     0.83455   0.03740   0.09333   0.00000  Uiso   1.00
H97    H     0.83211   0.29593   0.24000   0.00000  Uiso   1.00
H98    H     0.83467   0.29592   0.09337   0.00000  Uiso   1.00
H99    H     0.83199   0.03742   0.23997   0.00000  Uiso   1.00
H100   H     0.89014   0.21465   0.04958   0.00000  Uiso   1.00
H101   H     0.77652   0.11868   0.28376   0.00000  Uiso   1.00
H102   H     0.89010   0.21464   0.29863   0.00000  Uiso   1.00
N103   N     0.83332   0.16666   0.28573   0.00000  Uiso   1.00
N104   N     0.83335   0.16668   0.04760   0.00000  Uiso   1.00
O105   O     0.83333   0.10558   0.20487   0.00000  Uiso   1.00
O106   O     0.83334   0.22775   0.12846   0.00000  Uiso   1.00
O107   O     0.83333   0.10559   0.12843   0.00000  Uiso   1.00
O108   O     0.83334   0.22774   0.20490   0.00000  Uiso   1.00
O109   O     0.75725   0.16666   0.19595   0.00000  Uiso   1.00
O110   O     0.90942   0.16667   0.13739   0.00000  Uiso   1.00
O111   O     0.75725   0.16667   0.11950   0.00000  Uiso   1.00
O112   O     0.90942   0.16666   0.21383   0.00000  Uiso   1.00
Zn113  Zn    0.83333   0.16666   0.21771   0.00000  Uiso   1.00
Zn114  Zn    0.83333   0.16667   0.11563   0.00000  Uiso   1.00
C115   C     0.16663   0.41996   0.16665   0.00000  Uiso   1.00
C116   C     0.16593   0.35461   0.20785   0.00000  Uiso   1.00
C117   C     0.16671   0.62420   0.16668   0.00000  Uiso   1.00
C118   C     0.16662   0.37580   0.16665   0.00000  Uiso   1.00
C119   C     0.19823   0.52667   0.02811   0.00000  Uiso   1.00
C120   C     0.13510   0.47334   0.30522   0.00000  Uiso   1.00
C121   C     0.19821   0.52666   0.31349   0.00000  Uiso   1.00
C122   C     0.13512   0.47334   0.01985   0.00000  Uiso   1.00
C123   C     0.16670   0.58004   0.16669   0.00000  Uiso   1.00
C124   C     0.06703   0.49999   0.15469   0.00000  Uiso   1.00
C125   C     0.26630   0.50001   0.17865   0.00000  Uiso   1.00
C126   C     0.01199   0.50003   0.14824   0.00000  Uiso   1.00
C127   C     0.32134   0.49997   0.18509   0.00000  Uiso   1.00
C128   C     0.16734   0.35461   0.12546   0.00000  Uiso   1.00
C129   C     0.16599   0.64539   0.20787   0.00000  Uiso   1.00
C130   C     0.16740   0.64539   0.12548   0.00000  Uiso   1.00
H131   H     0.32469   0.50012   0.11328   0.00000  Uiso   1.00
H132   H     0.10990   0.45203   0.03470   0.00000  Uiso   1.00
H133   H     0.00864   0.49988   0.22005   0.00000  Uiso   1.00
H134   H     0.16789   0.37074   0.09333   0.00000  Uiso   1.00
H135   H     0.16545   0.62926   0.24000   0.00000  Uiso   1.00
H136   H     0.16801   0.62925   0.09337   0.00000  Uiso   1.00
H137   H     0.16533   0.37075   0.23997   0.00000  Uiso   1.00
H138   H     0.22348   0.54798   0.04958   0.00000  Uiso   1.00
H139   H     0.10986   0.45202   0.28376   0.00000  Uiso   1.00
H140   H     0.22343   0.54798   0.29863   0.00000  Uiso   1.00
N141   N     0.16665   0.49999   0.28573   0.00000  Uiso   1.00
N142   N     0.16668   0.50001   0.04760   0.00000  Uiso   1.00
O143   O     0.16666   0.43892   0.20487   0.00000  Uiso   1.00
O144   O     0.16667   0.56108   0.12846   0.00000  Uiso   1.00
O145   O     0.16666   0.43893   0.12843   0.00000  Uiso   1.00
O146   O     0.16667   0.56107   0.20490   0.00000  Uiso   1.00
O147   O     0.09058   0.50000   0.19595   0.00000  Uiso   1.00
O148   O     0.24275   0.50000   0.13739   0.00000  Uiso   1.00
O149   O     0.09058   0.50000   0.11950   0.00000  Uiso   1.00
O150   O     0.24275   0.50000   0.21383   0.00000  Uiso   1.00
Zn151  Zn    0.16667   0.49999   0.21771   0.00000  Uiso   1.00
Zn152  Zn    0.16667   0.50001   0.11563   0.00000  Uiso   1.00
C153   C     0.49997   0.41996   0.16665   0.00000  Uiso   1.00
C154   C     0.49926   0.35461   0.20785   0.00000  Uiso   1.00
C155   C     0.50005   0.62420   0.16668   0.00000  Uiso   1.00
C156   C     0.49995   0.37580   0.16665   0.00000  Uiso   1.00
C157   C     0.53156   0.52667   0.02811   0.00000  Uiso   1.00
C158   C     0.46844   0.47334   0.30522   0.00000  Uiso   1.00
C159   C     0.53154   0.52666   0.31349   0.00000  Uiso   1.00
C160   C     0.46846   0.47334   0.01985   0.00000  Uiso   1.00
C161   C     0.50003   0.58004   0.16669   0.00000  Uiso   1.00
C162   C     0.40036   0.49999   0.15469   0.00000  Uiso   1.00
C163   C     0.59964   0.50001   0.17865   0.00000  Uiso   1.00
C164   C     0.34532   0.50003   0.14824   0.00000  Uiso   1.00
C165   C     0.65468   0.49997   0.18509   0.00000  Uiso   1.00
C166   C     0.50068   0.35461   0.12546   0.00000  Uiso   1.00
C167   C     0.49933   0.64539   0.20787   0.00000  Uiso   1.00
C168   C     0.50074   0.64539   0.12548   0.00000  Uiso   1.00
H169   H     0.65802   0.50012   0.11328   0.00000  Uiso   1.00
H170   H     0.44323   0.45203   0.03470   0.00000  Uiso   1.00
H171   H     0.34198   0.49988   0.22005   0.00000  Uiso   1.00
H172   H     0.50122   0.37074   0.09333   0.00000  Uiso   1.00
H173   H     0.49878   0.62926   0.24000   0.00000  Uiso   1.00
H174   H     0.50134   0.62925   0.09337   0.00000  Uiso   1.00
H175   H     0.49866   0.37075   0.23997   0.00000  Uiso   1.00
H176   H     0.55681   0.54798   0.04958   0.00000  Uiso   1.00
H177   H     0.44319   0.45202   0.28376   0.00000  Uiso   1.00
H178   H     0.55677   0.54798   0.29863   0.00000  Uiso   1.00
N179   N     0.49999   0.49999   0.28573   0.00000  Uiso   1.00
N180   N     0.50001   0.50001   0.04760   0.00000  Uiso   1.00
O181   O     0.50000   0.43892   0.20487   0.00000  Uiso   1.00
O182   O     0.50000   0.56108   0.12846   0.00000  Uiso   1.00
O183   O     0.50000   0.43893   0.12843   0.00000  Uiso   1.00
O184   O     0.50000   0.56107   0.20490   0.00000  Uiso   1.00
O185   O     0.42392   0.50000   0.19595   0.00000  Uiso   1.00
O186   O     0.57608   0.50000   0.13739   0.00000  Uiso   1.00
O187   O     0.42392   0.50000   0.11950   0.00000  Uiso   1.00
O188   O     0.57608   0.50000   0.21383   0.00000  Uiso   1.00
Zn189  Zn    0.50000   0.49999   0.21771   0.00000  Uiso   1.00
Zn190  Zn    0.50000   0.50001   0.11563   0.00000  Uiso   1.00
C191   C     0.83330   0.41996   0.16665   0.00000  Uiso   1.00
C192   C     0.83260   0.35461   0.20785   0.00000  Uiso   1.00
C193   C     0.83338   0.62420   0.16668   0.00000  Uiso   1.00
C194   C     0.83329   0.37580   0.16665   0.00000  Uiso   1.00
C195   C     0.86490   0.52667   0.02811   0.00000  Uiso   1.00
C196   C     0.80177   0.47334   0.30522   0.00000  Uiso   1.00
C197   C     0.86488   0.52666   0.31349   0.00000  Uiso   1.00
C198   C     0.80179   0.47334   0.01985   0.00000  Uiso   1.00
C199   C     0.83337   0.58004   0.16669   0.00000  Uiso   1.00
C200   C     0.73370   0.49999   0.15469   0.00000  Uiso   1.00
C201   C     0.93297   0.50001   0.17865   0.00000  Uiso   1.00
C202   C     0.67866   0.50003   0.14824   0.00000  Uiso   1.00
C203   C     0.98801   0.49997   0.18509   0.00000  Uiso   1.00
C204   C     0.83401   0.35461   0.12546   0.00000  Uiso   1.00
C205   C     0.83266   0.64539   0.20787   0.00000  Uiso   1.00
C206   C     0.83407   0.64539   0.12548   0.00000  Uiso   1.00
H207   H     0.99136   0.50012   0.11328   0.00000  Uiso   1.00
H208   H     0.77657   0.45203   0.03470   0.00000  Uiso   1.00
H209   H     0.67531   0.49988   0.22005   0.00000  Uiso   1.00
H210   H     0.83455   0.37074   0.09333   0.00000  Uiso   1.00
H211   H     0.83211   0.62926   0.24000   0.00000  Uiso   1.00
H212   H     0.83467   0.62925   0.09337   0.00000  Uiso   1.00
H213   H     0.83199   0.37075   0.23997   0.00000  Uiso   1.00
H214   H     0.89014   0.54798   0.04958   0.00000  Uiso   1.00
H215   H     0.77652   0.45202   0.28376   0.00000  Uiso   1.00
H216   H     0.89010   0.54798   0.29863   0.00000  Uiso   1.00
N217   N     0.83332   0.49999   0.28573   0.00000  Uiso   1.00
N218   N     0.83335   0.50001   0.04760   0.00000  Uiso   1.00
O219   O     0.83333   0.43892   0.20487   0.00000  Uiso   1.00
O220   O     0.83334   0.56108   0.12846   0.00000  Uiso   1.00
O221   O     0.83333   0.43893   0.12843   0.00000  Uiso   1.00
O222   O     0.83334   0.56107   0.20490   0.00000  Uiso   1.00
O223   O     0.75725   0.50000   0.19595   0.00000  Uiso   1.00
O224   O     0.90942   0.50000   0.13739   0.00000  Uiso   1.00
O225   O     0.75725   0.50000   0.11950   0.00000  Uiso   1.00
O226   O     0.90942   0.50000   0.21383   0.00000  Uiso   1.00
Zn227  Zn    0.83333   0.49999   0.21771   0.00000  Uiso   1.00
Zn228  Zn    0.83333   0.50001   0.11563   0.00000  Uiso   1.00
C229   C     0.16663   0.75329   0.16665   0.00000  Uiso   1.00
C230   C     0.16593   0.68795   0.20785   0.00000  Uiso   1.00
C231   C     0.16671   0.95753   0.16668   0.00000  Uiso   1.00
C232   C     0.16662   0.70913   0.16665   0.00000  Uiso   1.00
C233   C     0.19823   0.86000   0.02811   0.00000  Uiso   1.00
C234   C     0.13510   0.80667   0.30522   0.00000  Uiso   1.00
C235   C     0.19821   0.85999   0.31349   0.00000  Uiso   1.00
C236   C     0.13512   0.80668   0.01985   0.00000  Uiso   1.00
C237   C     0.16670   0.91338   0.16669   0.00000  Uiso   1.00
C238   C     0.06703   0.83333   0.15469   0.00000  Uiso   1.00
C239   C     0.26630   0.83334   0.17865   0.00000  Uiso   1.00
C240   C     0.01199   0.83336   0.14824   0.00000  Uiso   1.00
C241   C     0.32134   0.83330   0.18509   0.00000  Uiso   1.00
C242   C     0.16734   0.68794   0.12546   0.00000  Uiso   1.00
C243   C     0.16599   0.97873   0.20787   0.00000  Uiso   1.00
C244   C     0.16740   0.97872   0.12548   0.00000  Uiso   1.00
H245   H     0.32469   0.83345   0.11328   0.00000  Uiso   1.00
H246   H     0.10990   0.78536   0.03470   0.00000  Uiso   1.00
H247   H     0.00864   0.83321   0.22005   0.00000  Uiso   1.00
H248   H     0.16789   0.70407   0.09333   0.00000  Uiso   1.00
H249   H     0.16545   0.96260   0.24000   0.00000  Uiso   1.00
H250   H     0.16801   0.96258   0.09337   0.00000  Uiso   1.00
H251   H     0.16533   0.70408   0.23997   0.00000  Uiso   1.00
H252   H     0.22348   0.88132   0.04958   0.00000  Uiso   1.00
H253   H     0.10986   0.78535   0.28376   0.00000  Uiso   1.00
H254   H     0.22343   0.88131   0.29863   0.00000  Uiso   1.00
N255   N     0.16665   0.83332   0.28573   0.00000  Uiso   1.00
N256   N     0.16668   0.83334   0.04760   0.00000  Uiso   1.00
O257   O     0.16666   0.77225   0.20487   0.00000  Uiso   1.00
O258   O     0.16667   0.89442   0.12846   0.00000  Uiso   1.00
O259   O     0.16666   0.77226   0.12843   0.00000  Uiso   1.00
O260   O     0.16667   0.89441   0.20490   0.00000  Uiso   1.00
O261   O     0.09058   0.83333   0.19595   0.00000  Uiso   1.00
O262   O     0.24275   0.83334   0.13739   0.00000  Uiso   1.00
O263   O     0.09058   0.83334   0.11950   0.00000  Uiso   1.00
O264   O     0.24275   0.83333   0.21383   0.00000  Uiso   1.00
Zn265  Zn    0.16667   0.83333   0.21771   0.00000  Uiso   1.00
Zn266  Zn    0.16667   0.83334   0.11563   0.00000  Uiso   1.00
C267   C     0.49997   0.75329   0.16665   0.00000  Uiso   1.00
C268   C     0.49926   0.68795   0.20785   0.00000  Uiso   1.00
C269   C     0.50005   0.95753   0.16668   0.00000  Uiso   1.00
C270   C     0.49995   0.70913   0.16665   0.00000  Uiso   1.00
C271   C     0.53156   0.86000   0.02811   0.00000  Uiso   1.00
C272   C     0.46844   0.80667   0.30522   0.00000  Uiso   1.00
C273   C     0.53154   0.85999   0.31349   0.00000  Uiso   1.00
C274   C     0.46846   0.80668   0.01985   0.00000  Uiso   1.00
C275   C     0.50003   0.91338   0.16669   0.00000  Uiso   1.00
C276   C     0.40036   0.83333   0.15469   0.00000  Uiso   1.00
C277   C     0.59964   0.83334   0.17865   0.00000  Uiso   1.00
C278   C     0.34532   0.83336   0.14824   0.00000  Uiso   1.00
C279   C     0.65468   0.83330   0.18509   0.00000  Uiso   1.00
C280   C     0.50068   0.68794   0.12546   0.00000  Uiso   1.00
C281   C     0.49933   0.97873   0.20787   0.00000  Uiso   1.00
C282   C     0.50074   0.97872   0.12548   0.00000  Uiso   1.00
H283   H     0.65802   0.83345   0.11328   0.00000  Uiso   1.00
H284   H     0.44323   0.78536   0.03470   0.00000  Uiso   1.00
H285   H     0.34198   0.83321   0.22005   0.00000  Uiso   1.00
H286   H     0.50122   0.70407   0.09333   0.00000  Uiso   1.00
H287   H     0.49878   0.96260   0.24000   0.00000  Uiso   1.00
H288   H     0.50134   0.96258   0.09337   0.00000  Uiso   1.00
H289   H     0.49866   0.70408   0.23997   0.00000  Uiso   1.00
H290   H     0.55681   0.88132   0.04958   0.00000  Uiso   1.00
H291   H     0.44319   0.78535   0.28376   0.00000  Uiso   1.00
H292   H     0.55677   0.88131   0.29863   0.00000  Uiso   1.00
N293   N     0.49999   0.83332   0.28573   0.00000  Uiso   1.00
N294   N     0.50001   0.83334   0.04760   0.00000  Uiso   1.00
O295   O     0.50000   0.77225   0.20487   0.00000  Uiso   1.00
O296   O     0.50000   0.89442   0.12846   0.00000  Uiso   1.00
O297   O     0.50000   0.77226   0.12843   0.00000  Uiso   1.00
O298   O     0.50000   0.89441   0.20490   0.00000  Uiso   1.00
O299   O     0.42392   0.83333   0.19595   0.00000  Uiso   1.00
O300   O     0.57608   0.83334   0.13739   0.00000  Uiso   1.00
O301   O     0.42392   0.83334   0.11950   0.00000  Uiso   1.00
O302   O     0.57608   0.83333   0.21383   0.00000  Uiso   1.00
Zn303  Zn    0.50000   0.83333   0.21771   0.00000  Uiso   1.00
Zn304  Zn    0.50000   0.83334   0.11563   0.00000  Uiso   1.00
C305   C     0.83330   0.75329   0.16665   0.00000  Uiso   1.00
C306   C     0.83260   0.68795   0.20785   0.00000  Uiso   1.00
C307   C     0.83338   0.95753   0.16668   0.00000  Uiso   1.00
C308   C     0.83329   0.70913   0.16665   0.00000  Uiso   1.00
C309   C     0.86490   0.86000   0.02811   0.00000  Uiso   1.00
C310   C     0.80177   0.80667   0.30522   0.00000  Uiso   1.00
C311   C     0.86488   0.85999   0.31349   0.00000  Uiso   1.00
C312   C     0.80179   0.80668   0.01985   0.00000  Uiso   1.00
C313   C     0.83337   0.91338   0.16669   0.00000  Uiso   1.00
C314   C     0.73370   0.83333   0.15469   0.00000  Uiso   1.00
C315   C     0.93297   0.83334   0.17865   0.00000  Uiso   1.00
C316   C     0.67866   0.83336   0.14824   0.00000  Uiso   1.00
C317   C     0.98801   0.83330   0.18509   0.00000  Uiso   1.00
C318   C     0.83401   0.68794   0.12546   0.00000  Uiso   1.00
C319   C     0.83266   0.97873   0.20787   0.00000  Uiso   1.00
C320   C     0.83407   0.97872   0.12548   0.00000  Uiso   1.00
H321   H     0.99136   0.83345   0.11328   0.00000  Uiso   1.00
H322   H     0.77657   0.78536   0.03470   0.00000  Uiso   1.00
H323   H     0.67531   0.83321   0.22005   0.00000  Uiso   1.00
H324   H     0.83455   0.70407   0.09333   0.00000  Uiso   1.00
H325   H     0.83211   0.96260   0.24000   0.00000  Uiso   1.00
H326   H     0.83467   0.96258   0.09337   0.00000  Uiso   1.00
H327   H     0.83199   0.70408   0.23997   0.00000  Uiso   1.00
H328   H     0.89014   0.88132   0.04958   0.00000  Uiso   1.00
H329   H     0.77652   0.78535   0.28376   0.00000  Uiso   1.00
H330   H     0.89010   0.88131   0.29863   0.00000  Uiso   1.00
N331   N     0.83332   0.83332   0.28573   0.00000  Uiso   1.00
N332   N     0.83335   0.83334   0.04760   0.00000  Uiso   1.00
O333   O     0.83333   0.77225   0.20487   0.00000  Uiso   1.00
O334   O     0.83334   0.89442   0.12846   0.00000  Uiso   1.00
O335   O     0.83333   0.77226   0.12843   0.00000  Uiso   1.00
O336   O     0.83334   0.89441   0.20490   0.00000  Uiso   1.00
O337   O     0.75725   0.83333   0.19595   0.00000  Uiso   1.00
O338   O     0.90942   0.83334   0.13739   0.00000  Uiso   1.00
O339   O     0.75725   0.83334   0.11950   0.00000  Uiso   1.00
O340   O     0.90942   0.83333   0.21383   0.00000  Uiso   1.00
Zn341  Zn    0.83333   0.83333   0.21771   0.00000  Uiso   1.00
Zn342  Zn    0.83333   0.83334   0.11563   0.00000  Uiso   1.00
C343   C     0.16663   0.08662   0.49998   0.00000  Uiso   1.00
C344   C     0.16593   0.02128   0.54119   0.00000  Uiso   1.00
C345   C     0.16671   0.29087   0.50002   0.00000  Uiso   1.00
C346   C     0.16662   0.04247   0.49998   0.00000  Uiso   1.00
C347   C     0.19823   0.19333   0.36144   0.00000  Uiso   1.00
C348   C     0.13510   0.14000   0.63856   0.00000  Uiso   1.00
C349   C     0.19821   0.19332   0.64682   0.00000  Uiso   1.00
C350   C     0.13512   0.14001   0.35318   0.00000  Uiso   1.00
C351   C     0.16670   0.24671   0.50002   0.00000  Uiso   1.00
C352   C     0.06703   0.16666   0.48802   0.00000  Uiso   1.00
C353   C     0.26630   0.16667   0.51198   0.00000  Uiso   1.00
C354   C     0.01199   0.16670   0.48157   0.00000  Uiso   1.00
C355   C     0.32134   0.16664   0.51843   0.00000  Uiso   1.00
C356   C     0.16734   0.02127   0.45879   0.00000  Uiso   1.00
C357   C     0.16599   0.31206   0.54121   0.00000  Uiso   1.00
C358   C     0.16740   0.31205   0.45881   0.00000  Uiso   1.00
H359   H     0.32469   0.16679   0.44662   0.00000  Uiso   1.00
H360   H     0.10990   0.11869   0.36804   0.00000  Uiso   1.00
H361   H     0.00864   0.16655   0.55338   0.00000  Uiso   1.00
H362   H     0.16789   0.03740   0.42667   0.00000  Uiso   1.00
H363   H     0.16545   0.29593   0.57333   0.00000  Uiso   1.00
H364   H     0.16801   0.29592   0.42670   0.00000  Uiso   1.00
H365   H     0.16533   0.03742   0.57330   0.00000  Uiso   1.00
H366   H     0.22348   0.21465   0.38291   0.00000  Uiso   1.00
H367   H     0.10986   0.11868   0.61709   0.00000  Uiso   1.00
H368   H     0.22343   0.21464   0.63196   0.00000  Uiso   1.00
N369   N     0.16665   0.16666   0.61907   0.00000  Uiso   1.00
N370   N     0.16668   0.16668   0.38093   0.00000  Uiso   1.00
O371   O     0.16666   0.10558   0.53821   0.00000  Uiso   1.00
O372   O     0.16667   0.22775   0.46179   0.00000  Uiso   1.00
O373   O     0.16666   0.10559   0.46176   0.00000  Uiso   1.00
O374   O     0.16667   0.22774   0.53824   0.00000  Uiso   1.00
O375   O     0.09058   0.16666   0.52928   0.00000  Uiso   1.00
O376   O     0.24275   0.16667   0.47072   0.00000  Uiso   1.00
O377   O     0.09058   0.16667   0.45284   0.00000  Uiso   1.00
O378   O     0.24275   0.16666   0.54716   0.00000  Uiso   1.00
Zn379  Zn    0.16667   0.16666   0.55104   0.00000  Uiso   1.00
Zn380  Zn    0.16667   0.16667   0.44896   0.00000  Uiso   1.00
C381   C     0.49997   0.08662   0.49998   0.00000  Uiso   1.00
C382   C     0.49926   0.02128   0.54119   0.00000  Uiso   1.00
C383   C     0.50005   0.29087   0.50002   0.00000  Uiso   1.00
C384   C     0.49995   0.04247   0.49998   0.00000  Uiso   1.00
C385   C     0.53156   0.19333   0.36144   0.00000  Uiso   1.00
C386   C     0.46844   0.14000   0.63856   0.00000  Uiso   1.00
C387   C     0.53154   0.19332   0.64682   0.00000  Uiso   1.00
C388   C     0.46846   0.14001   0.35318   0.00000  Uiso   1.00
C389   C     0.50003   0.24671   0.50002   0.00000  Uiso   1.00
C390   C     0.40036   0.16666   0.48802   0.00000  Uiso   1.00
C391   C     0.59964   0.16667   0.51198   0.00000  Uiso   1.00
C392   C     0.34532   0.16670   0.48157   0.00000  Uiso   1.00
C393   C     0.65468   0.16664   0.51843   0.00000  Uiso   1.00
C394   C     0.50068   0.02127   0.45879   0.00000  Uiso   1.00
C395   C     0.49933   0.31206   0.54121   0.00000  Uiso   1.00
C396   C     0.50074   0.31205   0.45881   0.00000  Uiso   1.00
H397   H     0.65802   0.16679   0.44662   0.00000  Uiso   1.00
H398   H     0.44323   0.11869   0.36804   0.00000  Uiso   1.00
H399   H     0.34198   0.16655   0.55338   0.00000  Uiso   1.00
H400   H     0.50122   0.03740   0.42667   0.00000  Uiso   1.00
H401   H     0.49878   0.29593   0.57333   0.00000  Uiso   1.00
H402   H     0.50134   0.29592   0.42670   0.00000  Uiso   1.00
H403   H     0.49866   0.03742   0.57330   0.00000  Uiso   1.00
H404   H     0.55681   0.21465   0.38291   0.00000  Uiso   1.00
H405   H     0.44319   0.11868   0.61709   0.00000  Uiso   1.00
H406   H     0.55677   0.21464   0.63196   0.00000  Uiso   1.00
N407   N     0.49999   0.16666   0.61907   0.00000  Uiso   1.00
N408   N     0.50001   0.16668   0.38093   0.00000  Uiso   1.00
O409   O     0.50000   0.10558   0.53821   0.00000  Uiso   1.00
O410   O     0.50000   0.22775   0.46179   0.00000  Uiso   1.00
O411   O     0.50000   0.10559   0.46176   0.00000  Uiso   1.00
O412   O     0.50000   0.22774   0.53824   0.00000  Uiso   1.00
O413   O     0.42392   0.16666   0.52928   0.00000  Uiso   1.00
O414   O     0.57608   0.16667   0.47072   0.00000  Uiso   1.00
O415   O     0.42392   0.16667   0.45284   0.00000  Uiso   1.00
O416   O     0.57608   0.16666   0.54716   0.00000  Uiso   1.00
Zn417  Zn    0.50000   0.16666   0.55104   0.00000  Uiso   1.00
Zn418  Zn    0.50000   0.16667   0.44896   0.00000  Uiso   1.00
C419   C     0.83330   0.08662   0.49998   0.00000  Uiso   1.00
C420   C     0.83260   0.02128   0.54119   0.00000  Uiso   1.00
C421   C     0.83338   0.29087   0.50002   0.00000  Uiso   1.00
C422   C     0.83329   0.04247   0.49998   0.00000  Uiso   1.00
C423   C     0.86490   0.19333   0.36144   0.00000  Uiso   1.00
C424   C     0.80177   0.14000   0.63856   0.00000  Uiso   1.00
C425   C     0.86488   0.19332   0.64682   0.00000  Uiso   1.00
C426   C     0.80179   0.14001   0.35318   0.00000  Uiso   1.00
C427   C     0.83337   0.24671   0.50002   0.00000  Uiso   1.00
C428   C     0.73370   0.16666   0.48802   0.00000  Uiso   1.00
C429   C     0.93297   0.16667   0.51198   0.00000  Uiso   1.00
C430   C     0.67866   0.16670   0.48157   0.00000  Uiso   1.00
C431   C     0.98801   0.16664   0.51843   0.00000  Uiso   1.00
C432   C     0.83401   0.02127   0.45879   0.00000  Uiso   1.00
C433   C     0.83266   0.31206   0.54121   0.00000  Uiso   1.00
C434   C     0.83407   0.31205   0.45881   0.00000  Uiso   1.00
H435   H     0.99136   0.16679   0.44662   0.00000  Uiso   1.00
H436   H     0.77657   0.11869   0.36804   0.00000  Uiso   1.00
H437   H     0.67531   0.16655   0.55338   0.00000  Uiso   1.00
H438   H     0.83455   0.03740   0.42667   0.00000  Uiso   1.00
H439   H     0.83211   0.29593   0.57333   0.00000  Uiso   1.00
H440   H     0.83467   0.29592   0.42670   0.00000  Uiso   1.00
H441   H     0.83199   0.03742   0.57330   0.00000  Uiso   1.00
H442   H     0.89014   0.21465   0.38291   0.00000  Uiso   1.00
H443   H     0.77652   0.11868   0.61709   0.00000  Uiso   1.00
H444   H     0.89010   0.21464   0.63196   0.00000  Uiso   1.00
N445   N     0.83332   0.16666   0.61907   0.00000  Uiso   1.00
N446   N     0.83335   0.16668   0.38093   0.00000  Uiso   1.00
O447   O     0.83333   0.10558   0.53821   0.00000  Uiso   1.00
O448   O     0.83334   0.22775   0.46179   0.00000  Uiso   1.00
O449   O     0.83333   0.10559   0.46176   0.00000  Uiso   1.00
O450   O     0.83334   0.22774   0.53824   0.00000  Uiso   1.00
O451   O     0.75725   0.16666   0.52928   0.00000  Uiso   1.00
O452   O     0.90942   0.16667   0.47072   0.00000  Uiso   1.00
O453   O     0.75725   0.16667   0.45284   0.00000  Uiso   1.00
O454   O     0.90942   0.16666   0.54716   0.00000  Uiso   1.00
Zn455  Zn    0.83333   0.16666   0.55104   0.00000  Uiso   1.00
Zn456  Zn    0.83333   0.16667   0.44896   0.00000  Uiso   1.00
C457   C     0.16663   0.41996   0.49998   0.00000  Uiso   1.00
C458   C     0.16593   0.35461   0.54119   0.00000  Uiso   1.00
C459   C     0.16671   0.62420   0.50002   0.00000  Uiso   1.00
C460   C     0.16662   0.37580   0.49998   0.00000  Uiso   1.00
C461   C     0.19823   0.52667   0.36144   0.00000  Uiso   1.00
C462   C     0.13510   0.47334   0.63856   0.00000  Uiso   1.00
C463   C     0.19821   0.52666   0.64682   0.00000  Uiso   1.00
C464   C     0.13512   0.47334   0.35318   0.00000  Uiso   1.00
C465   C     0.16670   0.58004   0.50002   0.00000  Uiso   1.00
C466   C     0.06703   0.49999   0.48802   0.00000  Uiso   1.00
C467   C     0.26630   0.50001   0.51198   0.00000  Uiso   1.00
C468   C     0.01199   0.50003   0.48157   0.00000  Uiso   1.00
C469   C     0.32134   0.49997   0.51843   0.00000  Uiso   1.00
C470   C     0.16734   0.35461   0.45879   0.00000  Uiso   1.00
C471   C     0.16599   0.64539   0.54121   0.00000  Uiso   1.00
C472   C     0.16740   0.64539   0.45881   0.00000  Uiso   1.00
H473   H     0.32469   0.50012   0.44662   0.00000  Uiso   1.00
H474   H     0.10990   0.45203   0.36804   0.00000  Uiso   1.00
H475   H     0.00864   0.49988   0.55338   0.00000  Uiso   1.00
H476   H     0.16789   0.37074   0.42667   0.00000  Uiso   1.00
H477   H     0.16545   0.62926   0.57333   0.00000  Uiso   1.00
H478   H     0.16801   0.62925   0.42670   0.00000  Uiso   1.00
H479   H     0.16533   0.37075   0.57330   0.00000  Uiso   1.00
H480   H     0.22348   0.54798   0.38291   0.00000  Uiso   1.00
H481   H     0.10986   0.45202   0.61709   0.00000  Uiso   1.00
H482   H     0.22343   0.54798   0.63196   0.00000  Uiso   1.00
N483   N     0.16665   0.49999   0.61907   0.00000  Uiso   1.00
N484   N     0.16668   0.50001   0.38093   0.00000  Uiso   1.00
O485   O     0.16666   0.43892   0.53821   0.00000  Uiso   1.00
O486   O     0.16667   0.56108   0.46179   0.00000  Uiso   1.00
O487   O     0.16666   0.43893   0.46176   0.00000  Uiso   1.00
O488   O     0.16667   0.56107   0.53824   0.00000  Uiso   1.00
O489   O     0.09058   0.50000   0.52928   0.00000  Uiso   1.00
O490   O     0.24275   0.50000   0.47072   0.00000  Uiso   1.00
O491   O     0.09058   0.50000   0.45284   0.00000  Uiso   1.00
O492   O     0.24275   0.50000   0.54716   0.00000  Uiso   1.00
Zn493  Zn    0.16667   0.49999   0.55104   0.00000  Uiso   1.00
Zn494  Zn    0.16667   0.50001   0.44896   0.00000  Uiso   1.00
C495   C     0.49997   0.41996   0.49998   0.00000  Uiso   1.00
C496   C     0.49926   0.35461   0.54119   0.00000  Uiso   1.00
C497   C     0.50005   0.62420   0.50002   0.00000  Uiso   1.00
C498   C     0.49995   0.37580   0.49998   0.00000  Uiso   1.00
C499   C     0.53156   0.52667   0.36144   0.00000  Uiso   1.00
C500   C     0.46844   0.47334   0.63856   0.00000  Uiso   1.00
C501   C     0.53154   0.52666   0.64682   0.00000  Uiso   1.00
C502   C     0.46846   0.47334   0.35318   0.00000  Uiso   1.00
C503   C     0.50003   0.58004   0.50002   0.00000  Uiso   1.00
C504   C     0.40036   0.49999   0.48802   0.00000  Uiso   1.00
C505   C     0.59964   0.50001   0.51198   0.00000  Uiso   1.00
C506   C     0.34532   0.50003   0.48157   0.00000  Uiso   1.00
C507   C     0.65468   0.49997   0.51843   0.00000  Uiso   1.00
C508   C     0.50068   0.35461   0.45879   0.00000  Uiso   1.00
C509   C     0.49933   0.64539   0.54121   0.00000  Uiso   1.00
C510   C     0.50074   0.64539   0.45881   0.00000  Uiso   1.00
H511   H     0.65802   0.50012   0.44662   0.00000  Uiso   1.00
H512   H     0.44323   0.45203   0.36804   0.00000  Uiso   1.00
H513   H     0.34198   0.49988   0.55338   0.00000  Uiso   1.00
H514   H     0.50122   0.37074   0.42667   0.00000  Uiso   1.00
H515   H     0.49878   0.62926   0.57333   0.00000  Uiso   1.00
H516   H     0.50134   0.62925   0.42670   0.00000  Uiso   1.00
H517   H     0.49866   0.37075   0.57330   0.00000  Uiso   1.00
H518   H     0.55681   0.54798   0.38291   0.00000  Uiso   1.00
H519   H     0.44319   0.45202   0.61709   0.00000  Uiso   1.00
H520   H     0.55677   0.54798   0.63196   0.00000  Uiso   1.00
N521   N     0.49999   0.49999   0.61907   0.00000  Uiso   1.00
N522   N     0.50001   0.50001   0.38093   0.00000  Uiso   1.00
O523   O     0.50000   0.43892   0.53821   0.00000  Uiso   1.00
O524   O     0.50000   0.56108   0.46179   0.00000  Uiso   1.00
O525   O     0.50000   0.43893   0.46176   0.00000  Uiso   1.00
O526   O     0.50000   0.56107   0.53824   0.00000  Uiso   1.00
O527   O     0.42392   0.50000   0.52928   0.00000  Uiso   1.00
O528   O     0.57608   0.50000   0.47072   0.00000  Uiso   1.00
O529   O     0.42392   0.50000   0.45284   0.00000  Uiso   1.00
O530   O     0.57608   0.50000   0.54716   0.00000  Uiso   1.00
Zn531  Zn    0.50000   0.49999   0.55104   0.00000  Uiso   1.00
Zn532  Zn    0.50000   0.50001   0.44896   0.00000  Uiso   1.00
C533   C     0.83330   0.41996   0.49998   0.00000  Uiso   1.00
C534   C     0.83260   0.35461   0.54119   0.00000  Uiso   1.00
C535   C     0.83338   0.62420   0.50002   0.00000  Uiso   1.00
C536   C     0.83329   0.37580   0.49998   0.00000  Uiso   1.00
C537   C     0.86490   0.52667   0.36144   0.00000  Uiso   1.00
C538   C     0.80177   0.47334   0.63856   0.00000  Uiso   1.00
C539   C     0.86488   0.52666   0.64682   0.00000  Uiso   1.00
C540   C     0.80179   0.47334   0.35318   0.00000  Uiso   1.00
C541   C     0.83337   0.58004   0.50002   0.00000  Uiso   1.00
C542   C     0.73370   0.49999   0.48802   0.00000  Uiso   1.00
C543   C     0.93297   0.50001   0.51198   0.00000  Uiso   1.00
C544   C     0.67866   0.50003   0.48157   0.00000  Uiso   1.00
C545   C     0.98801   0.49997   0.51843   0.00000  Uiso   1.00
C546   C     0.83401   0.35461   0.45879   0.00000  Uiso   1.00
C547   C     0.83266   0.64539   0.54121   0.00000  Uiso   1.00
C548   C     0.83407   0.64539   0.45881   0.00000  Uiso   1.00
H549   H     0.99136   0.50012   0.44662   0.00000  Uiso   1.00
H550   H     0.77657   0.45203   0.36804   0.00000  Uiso   1.00
H551   H     0.67531   0.49988   0.55338   0.00000  Uiso   1.00
H552   H     0.83455   0.37074   0.42667   0.00000  Uiso   1.00
H553   H     0.83211   0.62926   0.57333   0.00000  Uiso   1.00
H554   H     0.83467   0.62925   0.42670   0.00000  Uiso   1.00
H555   H     0.83199   0.37075   0.57330   0.00000  Uiso   1.00
H556   H     0.89014   0.54798   0.38291   0.00000  Uiso   1.00
H557   H     0.77652   0.45202   0.61709   0.00000  Uiso   1.00
H558   H     0.89010   0.54798   0.63196   0.00000  Uiso   1.00
N559   N     0.83332   0.49999   0.61907   0.00000  Uiso   1.00
N560   N     0.83335   0.50001   0.38093   0.00000  Uiso   1.00
O561   O     0.83333   0.43892   0.53821   0.00000  Uiso   1.00
O562   O     0.83334   0.56108   0.46179   0.00000  Uiso   1.00
O563   O     0.83333   0.43893   0.46176   0.00000  Uiso   1.00
O564   O     0.83334   0.56107   0.53824   0.00000  Uiso   1.00
O565   O     0.75725   0.50000   0.52928   0.00000  Uiso   1.00
O566   O     0.90942   0.50000   0.47072   0.00000  Uiso   1.00
O567   O     0.75725   0.50000   0.45284   0.00000  Uiso   1.00
O568   O     0.90942   0.50000   0.54716   0.00000  Uiso   1.00
Zn569  Zn    0.83333   0.49999   0.55104   0.00000  Uiso   1.00
Zn570  Zn    0.83333   0.50001   0.44896   0.00000  Uiso   1.00
C571   C     0.16663   0.75329   0.49998   0.00000  Uiso   1.00
C572   C     0.16593   0.68795   0.54119   0.00000  Uiso   1.00
C573   C     0.16671   0.95753   0.50002   0.00000  Uiso   1.00
C574   C     0.16662   0.70913   0.49998   0.00000  Uiso   1.00
C575   C     0.19823   0.86000   0.36144   0.00000  Uiso   1.00
C576   C     0.13510   0.80667   0.63856   0.00000  Uiso   1.00
C577   C     0.19821   0.85999   0.64682   0.00000  Uiso   1.00
C578   C     0.13512   0.80668   0.35318   0.00000  Uiso   1.00
C579   C     0.16670   0.91338   0.50002   0.00000  Uiso   1.00
C580   C     0.06703   0.83333   0.48802   0.00000  Uiso   1.00
C581   C     0.26630   0.83334   0.51198   0.00000  Uiso   1.00
C582   C     0.01199   0.83336   0.48157   0.00000  Uiso   1.00
C583   C     0.32134   0.83330   0.51843   0.00000  Uiso   1.00
C584   C     0.16734   0.68794   0.45879   0.00000  Uiso   1.00
C585   C     0.16599   0.97873   0.54121   0.00000  Uiso   1.00
C586   C     0.16740   0.97872   0.45881   0.00000  Uiso   1.00
H587   H     0.32469   0.83345   0.44662   0.00000  Uiso   1.00
H588   H     0.10990   0.78536   0.36804   0.00000  Uiso   1.00
H589   H     0.00864   0.83321   0.55338   0.00000  Uiso   1.00
H590   H     0.16789   0.70407   0.42667   0.00000  Uiso   1.00
H591   H     0.16545   0.96260   0.57333   0.00000  Uiso   1.00
H592   H     0.16801   0.96258   0.42670   0.00000  Uiso   1.00
H593   H     0.16533   0.70408   0.57330   0.00000  Uiso   1.00
H594   H     0.22348   0.88132   0.38291   0.00000  Uiso   1.00
H595   H     0.10986   0.78535   0.61709   0.00000  Uiso   1.00
H596   H     0.22343   0.88131   0.63196   0.00000  Uiso   1.00
N597   N     0.16665   0.83332   0.61907   0.00000  Uiso   1.00
N598   N     0.16668   0.83334   0.38093   0.00000  Uiso   1.00
O599   O     0.16666   0.77225   0.53821   0.00000  Uiso   1.00
O600   O     0.16667   0.89442   0.46179   0.00000  Uiso   1.00
O601   O     0.16666   0.77226   0.46176   0.00000  Uiso   1.00
O602   O     0.16667   0.89441   0.53824   0.00000  Uiso   1.00
O603   O     0.09058   0.83333   0.52928   0.00000  Uiso   1.00
O604   O     0.24275   0.83334   0.47072   0.00000  Uiso   1.00
O605   O     0.09058   0.83334   0.45284   0.00000  Uiso   1.00
O606   O     0.24275   0.83333   0.54716   0.00000  Uiso   1.00
Zn607  Zn    0.16667   0.83333   0.55104   0.00000  Uiso   1.00
Zn608  Zn    0.16667   0.83334   0.44896   0.00000  Uiso   1.00
C609   C     0.49997   0.75329   0.49998   0.00000  Uiso   1.00
C610   C     0.49926   0.68795   0.54119   0.00000  Uiso   1.00
C611   C     0.50005   0.95753   0.50002   0.00000  Uiso   1.00
C612   C     0.49995   0.70913   0.49998   0.00000  Uiso   1.00
C613   C     0.53156   0.86000   0.36144   0.00000  Uiso   1.00
C614   C     0.46844   0.80667   0.63856   0.00000  Uiso   1.00
C615   C     0.53154   0.85999   0.64682   0.00000  Uiso   1.00
C616   C     0.46846   0.80668   0.35318   0.00000  Uiso   1.00
C617   C     0.50003   0.91338   0.50002   0.00000  Uiso   1.00
C618   C     0.40036   0.83333   0.48802   0.00000  Uiso   1.00
C619   C     0.59964   0.83334   0.51198   0.00000  Uiso   1.00
C620   C     0.34532   0.83336   0.48157   0.00000  Uiso   1.00
C621   C     0.65468   0.83330   0.51843   0.00000  Uiso   1.00
C622   C     0.50068   0.68794   0.45879   0.00000  Uiso   1.00
C623   C     0.49933   0.97873   0.54121   0.00000  Uiso   1.00
C624   C     0.50074   0.97872   0.45881   0.00000  Uiso   1.00
H625   H     0.65802   0.83345   0.44662   0.00000  Uiso   1.00
H626   H     0.44323   0.78536   0.36804   0.00000  Uiso   1.00
H627   H     0.34198   0.83321   0.55338   0.00000  Uiso   1.00
H628   H     0.50122   0.70407   0.42667   0.00000  Uiso   1.00
H629   H     0.49878   0.96260   0.57333   0.00000  Uiso   1.00
H630   H     0.50134   0.96258   0.42670   0.00000  Uiso   1.00
H631   H     0.49866   0.70408   0.57330   0.00000  Uiso   1.00
H632   H     0.55681   0.88132   0.38291   0.00000  Uiso   1.00
H633   H     0.44319   0.78535   0.61709   0.00000  Uiso   1.00
H634   H     0.55677   0.88131   0.63196   0.00000  Uiso   1.00
N635   N     0.49999   0.83332   0.61907   0.00000  Uiso   1.00
N636   N     0.50001   0.83334   0.38093   0.00000  Uiso   1.00
O637   O     0.50000   0.77225   0.53821   0.00000  Uiso   1.00
O638   O     0.50000   0.89442   0.46179   0.00000  Uiso   1.00
O639   O     0.50000   0.77226   0.46176   0.00000  Uiso   1.00
O640   O     0.50000   0.89441   0.53824   0.00000  Uiso   1.00
O641   O     0.42392   0.83333   0.52928   0.00000  Uiso   1.00
O642   O     0.57608   0.83334   0.47072   0.00000  Uiso   1.00
O643   O     0.42392   0.83334   0.45284   0.00000  Uiso   1.00
O644   O     0.57608   0.83333   0.54716   0.00000  Uiso   1.00
Zn645  Zn    0.50000   0.83333   0.55104   0.00000  Uiso   1.00
Zn646  Zn    0.50000   0.83334   0.44896   0.00000  Uiso   1.00
C647   C     0.83330   0.75329   0.49998   0.00000  Uiso   1.00
C648   C     0.83260   0.68795   0.54119   0.00000  Uiso   1.00
C649   C     0.83338   0.95753   0.50002   0.00000  Uiso   1.00
C650   C     0.83329   0.70913   0.49998   0.00000  Uiso   1.00
C651   C     0.86490   0.86000   0.36144   0.00000  Uiso   1.00
C652   C     0.80177   0.80667   0.63856   0.00000  Uiso   1.00
C653   C     0.86488   0.85999   0.64682   0.00000  Uiso   1.00
C654   C     0.80179   0.80668   0.35318   0.00000  Uiso   1.00
C655   C     0.83337   0.91338   0.50002   0.00000  Uiso   1.00
C656   C     0.73370   0.83333   0.48802   0.00000  Uiso   1.00
C657   C     0.93297   0.83334   0.51198   0.00000  Uiso   1.00
C658   C     0.67866   0.83336   0.48157   0.00000  Uiso   1.00
C659   C     0.98801   0.83330   0.51843   0.00000  Uiso   1.00
C660   C     0.83401   0.68794   0.45879   0.00000  Uiso   1.00
C661   C     0.83266   0.97873   0.54121   0.00000  Uiso   1.00
C662   C     0.83407   0.97872   0.45881   0.00000  Uiso   1.00
H663   H     0.99136   0.83345   0.44662   0.00000  Uiso   1.00
H664   H     0.77657   0.78536   0.36804   0.00000  Uiso   1.00
H665   H     0.67531   0.83321   0.55338   0.00000  Uiso   1.00
H666   H     0.83455   0.70407   0.42667   0.00000  Uiso   1.00
H667   H     0.83211   0.96260   0.57333   0.00000  Uiso   1.00
H668   H     0.83467   0.96258   0.42670   0.00000  Uiso   1.00
H669   H     0.83199   0.70408   0.57330   0.00000  Uiso   1.00
H670   H     0.89014   0.88132   0.38291   0.00000  Uiso   1.00
H671   H     0.77652   0.78535   0.61709   0.00000  Uiso   1.00
H672   H     0.89010   0.88131   0.63196   0.00000  Uiso   1.00
N673   N     0.83332   0.83332   0.61907   0.00000  Uiso   1.00
N674   N     0.83335   0.83334   0.38093   0.00000  Uiso   1.00
O675   O     0.83333   0.77225   0.53821   0.00000  Uiso   1.00
O676   O     0.83334   0.89442   0.46179   0.00000  Uiso   1.00
O677   O     0.83333   0.77226   0.46176   0.00000  Uiso   1.00
O678   O     0.83334   0.89441   0.53824   0.00000  Uiso   1.00
O679   O     0.75725   0.83333   0.52928   0.00000  Uiso   1.00
O680   O     0.90942   0.83334   0.47072   0.00000  Uiso   1.00
O681   O     0.75725   0.83334   0.45284   0.00000  Uiso   1.00
O682   O     0.90942   0.83333   0.54716   0.00000  Uiso   1.00
Zn683  Zn    0.83333   0.83333   0.55104   0.00000  Uiso   1.00
Zn684  Zn    0.83333   0.83334   0.44896   0.00000  Uiso   1.00
C685   C     0.16663   0.08662   0.83331   0.00000  Uiso   1.00
C686   C     0.16593   0.02128   0.87452   0.00000  Uiso   1.00
C687   C     0.16671   0.29087   0.83335   0.00000  Uiso   1.00
C688   C     0.16662   0.04247   0.83332   0.00000  Uiso   1.00
C689   C     0.19823   0.19333   0.69478   0.00000  Uiso   1.00
C690   C     0.13510   0.14000   0.97189   0.00000  Uiso   1.00
C691   C     0.19821   0.19332   0.98016   0.00000  Uiso   1.00
C692   C     0.13512   0.14001   0.68651   0.00000  Uiso   1.00
C693   C     0.16670   0.24671   0.83335   0.00000  Uiso   1.00
C694   C     0.06703   0.16666   0.82136   0.00000  Uiso   1.00
C695   C     0.26630   0.16667   0.84531   0.00000  Uiso   1.00
C696   C     0.01199   0.16670   0.81491   0.00000  Uiso   1.00
C697   C     0.32134   0.16664   0.85176   0.00000  Uiso   1.00
C698   C     0.16734   0.02127   0.79213   0.00000  Uiso   1.00
C699   C     0.16599   0.31206   0.87454   0.00000  Uiso   1.00
C700   C     0.16740   0.31205   0.79215   0.00000  Uiso   1.00
H701   H     0.32469   0.16679   0.77995   0.00000  Uiso   1.00
H702   H     0.10990   0.11869   0.70137   0.00000  Uiso   1.00
H703   H     0.00864   0.16655   0.88672   0.00000  Uiso   1.00
H704   H     0.16789   0.03740   0.76000   0.00000  Uiso   1.00
H705   H     0.16545   0.29593   0.90667   0.00000  Uiso   1.00
H706   H     0.16801   0.29592   0.76003   0.00000  Uiso   1.00
H707   H     0.16533   0.03742   0.90663   0.00000  Uiso   1.00
H708   H     0.22348   0.21465   0.71624   0.00000  Uiso   1.00
H709   H     0.10986   0.11868   0.95042   0.00000  Uiso   1.00
H710   H     0.22343   0.21464   0.96530   0.00000  Uiso   1.00
N711   N     0.16665   0.16666   0.95240   0.00000  Uiso   1.00
N712   N     0.16668   0.16668   0.71427   0.00000  Uiso   1.00
O713   O     0.16666   0.10558   0.87154   0.00000  Uiso   1.00
O714   O     0.16667   0.22775   0.79513   0.00000  Uiso   1.00
O715   O     0.16666   0.10559   0.79510   0.00000  Uiso   1.00
O716   O     0.16667   0.22774   0.87157   0.00000  Uiso   1.00
O717   O     0.09058   0.16666   0.86261   0.00000  Uiso   1.00
O718   O     0.24275   0.16667   0.80405   0.00000  Uiso   1.00
O719   O     0.09058   0.16667   0.78617   0.00000  Uiso   1.00
O720   O     0.24275   0.16666   0.88050   0.00000  Uiso   1.00
Zn721  Zn    0.16667   0.16666   0.88437   0.00000  Uiso   1.00
Zn722  Zn    0.16667   0.16667   0.78229   0.00000  Uiso   1.00
C723   C     0.49997   0.08662   0.83331   0.00000  Uiso   1.00
C724   C     0.49926   0.02128   0.87452   0.00000  Uiso   1.00
C725   C     0.50005   0.29087   0.83335   0.00000  Uiso   1.00
C726   C     0.49995   0.04247   0.83332   0.00000  Uiso   1.00
C727   C     0.53156   0.19333   0.69478   0.00000  Uiso   1.00
C728   C     0.46844   0.14000   0.97189   0.00000  Uiso   1.00
C729   C     0.53154   0.19332   0.98016   0.00000  Uiso   1.00
C730   C     0.46846   0.14001   0.68651   0.00000  Uiso   1.00
C731   C     0.50003   0.24671   0.83335   0.00000  Uiso   1.00
C732   C     0.40036   0.16666   0.82136   0.00000  Uiso   1.00
C733   C     0.59964   0.16667   0.84531   0.00000  Uiso   1.00
C734   C     0.34532   0.16670   0.81491   0.00000  Uiso   1.00
C735   C     0.65468   0.16664   0.85176   0.00000  Uiso   1.00
C736   C     0.50068   0.02127   0.79213   0.00000  Uiso   1.00
C737   C     0.49933   0.31206   0.87454   0.00000  Uiso   1.00
C738   C     0.50074   0.31205   0.79215   0.00000  Uiso   1.00
H739   H     0.65802   0.16679   0.77995   0.00000  Uiso   1.00
H740   H     0.44323   0.11869   0.70137   0.00000  Uiso   1.00
H741   H     0.34198   0.16655   0.88672   0.00000  Uiso   1.00
H742   H     0.50122   0.03740   0.76000   0.00000  Uiso   1.00
H743   H     0.49878   0.29593   0.90667   0.00000  Uiso   1.00
H744   H     0.50134   0.29592   0.76003   0.00000  Uiso   1.00
H745   H     0.49866   0.03742   0.90663   0.00000  Uiso   1.00
H746   H     0.55681   0.21465   0.71624   0.00000  Uiso   1.00
H747   H     0.44319   0.11868   0.95042   0.00000  Uiso   1.00
H748   H     0.55677   0.21464   0.96530   0.00000  Uiso   1.00
N749   N     0.49999   0.16666   0.95240   0.00000  Uiso   1.00
N750   N     0.50001   0.16668   0.71427   0.00000  Uiso   1.00
O751   O     0.50000   0.10558   0.87154   0.00000  Uiso   1.00
O752   O     0.50000   0.22775   0.79513   0.00000  Uiso   1.00
O753   O     0.50000   0.10559   0.79510   0.00000  Uiso   1.00
O754   O     0.50000   0.22774   0.87157   0.00000  Uiso   1.00
O755   O     0.42392   0.16666   0.86261   0.00000  Uiso   1.00
O756   O     0.57608   0.16667   0.80405   0.00000  Uiso   1.00
O757   O     0.42392   0.16667   0.78617   0.00000  Uiso   1.00
O758   O     0.57608   0.16666   0.88050   0.00000  Uiso   1.00
Zn759  Zn    0.50000   0.16666   0.88437   0.00000  Uiso   1.00
Zn760  Zn    0.50000   0.16667   0.78229   0.00000  Uiso   1.00
C761   C     0.83330   0.08662   0.83331   0.00000  Uiso   1.00
C762   C     0.83260   0.02128   0.87452   0.00000  Uiso   1.00
C763   C     0.83338   0.29087   0.83335   0.00000  Uiso   1.00
C764   C     0.83329   0.04247   0.83332   0.00000  Uiso   1.00
C765   C     0.86490   0.19333   0.69478   0.00000  Uiso   1.00
C766   C     0.80177   0.14000   0.97189   0.00000  Uiso   1.00
C767   C     0.86488   0.19332   0.98016   0.00000  Uiso   1.00
C768   C     0.80179   0.14001   0.68651   0.00000  Uiso   1.00
C769   C     0.83337   0.24671   0.83335   0.00000  Uiso   1.00
C770   C     0.73370   0.16666   0.82136   0.00000  Uiso   1.00
C771   C     0.93297   0.16667   0.84531   0.00000  Uiso   1.00
C772   C     0.67866   0.16670   0.81491   0.00000  Uiso   1.00
C773   C     0.98801   0.16664   0.85176   0.00000  Uiso   1.00
C774   C     0.83401   0.02127   0.79213   0.00000  Uiso   1.00
C775   C     0.83266   0.31206   0.87454   0.00000  Uiso   1.00
C776   C     0.83407   0.31205   0.79215   0.00000  Uiso   1.00
H777   H     0.99136   0.16679   0.77995   0.00000  Uiso   1.00
H778   H     0.77657   0.11869   0.70137   0.00000  Uiso   1.00
H779   H     0.67531   0.16655   0.88672   0.00000  Uiso   1.00
H780   H     0.83455   0.03740   0.76000   0.00000  Uiso   1.00
H781   H     0.83211   0.29593   0.90667   0.00000  Uiso   1.00
H782   H     0.83467   0.29592   0.76003   0.00000  Uiso   1.00
H783   H     0.83199   0.03742   0.90663   0.00000  Uiso   1.00
H784   H     0.89014   0.21465   0.71624   0.00000  Uiso   1.00
H785   H     0.77652   0.11868   0.95042   0.00000  Uiso   1.00
H786   H     0.89010   0.21464   0.96530   0.00000  Uiso   1.00
N787   N     0.83332   0.16666   0.95240   0.00000  Uiso   1.00
N788   N     0.83335   0.16668   0.71427   0.00000  Uiso   1.00
O789   O     0.83333   0.10558   0.87154   0.00000  Uiso   1.00
O790   O     0.83334   0.22775   0.79513   0.00000  Uiso   1.00
O791   O     0.83333   0.10559   0.79510   0.00000  Uiso   1.00
O792   O     0.83334   0.22774   0.87157   0.00000  Uiso   1.00
O793   O     0.75725   0.16666   0.86261   0.00000  Uiso   1.00
O794   O     0.90942   0.16667   0.80405   0.00000  Uiso   1.00
O795   O     0.75725   0.16667   0.78617   0.00000  Uiso   1.00
O796   O     0.90942   0.16666   0.88050   0.00000  Uiso   1.00
Zn797  Zn    0.83333   0.16666   0.88437   0.00000  Uiso   1.00
Zn798  Zn    0.83333   0.16667   0.78229   0.00000  Uiso   1.00
C799   C     0.16663   0.41996   0.83331   0.00000  Uiso   1.00
C800   C     0.16593   0.35461   0.87452   0.00000  Uiso   1.00
C801   C     0.16671   0.62420   0.83335   0.00000  Uiso   1.00
C802   C     0.16662   0.37580   0.83332   0.00000  Uiso   1.00
C803   C     0.19823   0.52667   0.69478   0.00000  Uiso   1.00
C804   C     0.13510   0.47334   0.97189   0.00000  Uiso   1.00
C805   C     0.19821   0.52666   0.98016   0.00000  Uiso   1.00
C806   C     0.13512   0.47334   0.68651   0.00000  Uiso   1.00
C807   C     0.16670   0.58004   0.83335   0.00000  Uiso   1.00
C808   C     0.06703   0.49999   0.82136   0.00000  Uiso   1.00
C809   C     0.26630   0.50001   0.84531   0.00000  Uiso   1.00
C810   C     0.01199   0.50003   0.81491   0.00000  Uiso   1.00
C811   C     0.32134   0.49997   0.85176   0.00000  Uiso   1.00
C812   C     0.16734   0.35461   0.79213   0.00000  Uiso   1.00
C813   C     0.16599   0.64539   0.87454   0.00000  Uiso   1.00
C814   C     0.16740   0.64539   0.79215   0.00000  Uiso   1.00
H815   H     0.32469   0.50012   0.77995   0.00000  Uiso   1.00
H816   H     0.10990   0.45203   0.70137   0.00000  Uiso   1.00
H817   H     0.00864   0.49988   0.88672   0.00000  Uiso   1.00
H818   H     0.16789   0.37074   0.76000   0.00000  Uiso   1.00
H819   H     0.16545   0.62926   0.90667   0.00000  Uiso   1.00
H820   H     0.16801   0.62925   0.76003   0.00000  Uiso   1.00
H821   H     0.16533   0.37075   0.90663   0.00000  Uiso   1.00
H822   H     0.22348   0.54798   0.71624   0.00000  Uiso   1.00
H823   H     0.10986   0.45202   0.95042   0.00000  Uiso   1.00
H824   H     0.22343   0.54798   0.96530   0.00000  Uiso   1.00
N825   N     0.16665   0.49999   0.95240   0.00000  Uiso   1.00
N826   N     0.16668   0.50001   0.71427   0.00000  Uiso   1.00
O827   O     0.16666   0.43892   0.87154   0.00000  Uiso   1.00
O828   O     0.16667   0.56108   0.79513   0.00000  Uiso   1.00
O829   O     0.16666   0.43893   0.79510   0.00000  Uiso   1.00
O830   O     0.16667   0.56107   0.87157   0.00000  Uiso   1.00
O831   O     0.09058   0.50000   0.86261   0.00000  Uiso   1.00
O832   O     0.24275   0.50000   0.80405   0.00000  Uiso   1.00
O833   O     0.09058   0.50000   0.78617   0.00000  Uiso   1.00
O834   O     0.24275   0.50000   0.88050   0.00000  Uiso   1.00
Zn835  Zn    0.16667   0.49999   0.88437   0.00000  Uiso   1.00
Zn836  Zn    0.16667   0.50001   0.78229   0.00000  Uiso   1.00
C837   C     0.49997   0.41996   0.83331   0.00000  Uiso   1.00
C838   C     0.49926   0.35461   0.87452   0.00000  Uiso   1.00
C839   C     0.50005   0.62420   0.83335   0.00000  Uiso   1.00
C840   C     0.49995   0.37580   0.83332   0.00000  Uiso   1.00
C841   C     0.53156   0.52667   0.69478   0.00000  Uiso   1.00
C842   C     0.46844   0.47334   0.97189   0.00000  Uiso   1.00
C843   C     0.53154   0.52666   0.98016   0.00000  Uiso   1.00
C844   C     0.46846   0.47334   0.68651   0.00000  Uiso   1.00
C845   C     0.50003   0.58004   0.83335   0.00000  Uiso   1.00
C846   C     0.40036   0.49999   0.82136   0.00000  Uiso   1.00
C847   C     0.59964   0.50001   0.84531   0.00000  Uiso   1.00
C848   C     0.34532   0.50003   0.81491   0.00000  Uiso   1.00
C849   C     0.65468   0.49997   0.85176   0.00000  Uiso   1.00
C850   C     0.50068   0.35461   0.79213   0.00000  Uiso   1.00
C851   C     0.49933   0.64539   0.87454   0.00000  Uiso   1.00
C852   C     0.50074   0.64539   0.79215   0.00000  Uiso   1.00
H853   H     0.65802   0.50012   0.77995   0.00000  Uiso   1.00
H854   H     0.44323   0.45203   0.70137   0.00000  Uiso   1.00
H855   H     0.34198   0.49988   0.88672   0.00000  Uiso   1.00
H856   H     0.50122   0.37074   0.76000   0.00000  Uiso   1.00
H857   H     0.49878   0.62926   0.90667   0.00000  Uiso   1.00
H858   H     0.50134   0.62925   0.76003   0.00000  Uiso   1.00
H859   H     0.49866   0.37075   0.90663   0.00000  Uiso   1.00
H860   H     0.55681   0.54798   0.71624   0.00000  Uiso   1.00
H861   H     0.44319   0.45202   0.95042   0.00000  Uiso   1.00
H862   H     0.55677   0.54798   0.96530   0.00000  Uiso   1.00
N863   N     0.49999   0.49999   0.95240   0.00000  Uiso   1.00
N864   N     0.50001   0.50001   0.71427   0.00000  Uiso   1.00
O865   O     0.50000   0.43892   0.87154   0.00000  Uiso   1.00
O866   O     0.50000   0.56108   0.79513   0.00000  Uiso   1.00
O867   O     0.50000   0.43893   0.79510   0.00000  Uiso   1.00
O868   O     0.50000   0.56107   0.87157   0.00000  Uiso   1.00
O869   O     0.42392   0.50000   0.86261   0.00000  Uiso   1.00
O870   O     0.57608   0.50000   0.80405   0.00000  Uiso   1.00
O871   O     0.42392   0.50000   0.78617   0.00000  Uiso   1.00
O872   O     0.57608   0.50000   0.88050   0.00000  Uiso   1.00
Zn873  Zn    0.50000   0.49999   0.88437   0.00000  Uiso   1.00
Zn874  Zn    0.50000   0.50001   0.78229   0.00000  Uiso   1.00
C875   C     0.83330   0.41996   0.83331   0.00000  Uiso   1.00
C876   C     0.83260   0.35461   0.87452   0.00000  Uiso   1.00
C877   C     0.83338   0.62420   0.83335   0.00000  Uiso   1.00
C878   C     0.83329   0.37580   0.83332   0.00000  Uiso   1.00
C879   C     0.86490   0.52667   0.69478   0.00000  Uiso   1.00
C880   C     0.80177   0.47334   0.97189   0.00000  Uiso   1.00
C881   C     0.86488   0.52666   0.98016   0.00000  Uiso   1.00
C882   C     0.80179   0.47334   0.68651   0.00000  Uiso   1.00
C883   C     0.83337   0.58004   0.83335   0.00000  Uiso   1.00
C884   C     0.73370   0.49999   0.82136   0.00000  Uiso   1.00
C885   C     0.93297   0.50001   0.84531   0.00000  Uiso   1.00
C886   C     0.67866   0.50003   0.81491   0.00000  Uiso   1.00
C887   C     0.98801   0.49997   0.85176   0.00000  Uiso   1.00
C888   C     0.83401   0.35461   0.79213   0.00000  Uiso   1.00
C889   C     0.83266   0.64539   0.87454   0.00000  Uiso   1.00
C890   C     0.83407   0.64539   0.79215   0.00000  Uiso   1.00
H891   H     0.99136   0.50012   0.77995   0.00000  Uiso   1.00
H892   H     0.77657   0.45203   0.70137   0.00000  Uiso   1.00
H893   H     0.67531   0.49988   0.88672   0.00000  Uiso   1.00
H894   H     0.83455   0.37074   0.76000   0.00000  Uiso   1.00
H895   H     0.83211   0.62926   0.90667   0.00000  Uiso   1.00
H896   H     0.83467   0.62925   0.76003   0.00000  Uiso   1.00
H897   H     0.83199   0.37075   0.90663   0.00000  Uiso   1.00
H898   H     0.89014   0.54798   0.71624   0.00000  Uiso   1.00
H899   H     0.77652   0.45202   0.95042   0.00000  Uiso   1.00
H900   H     0.89010   0.54798   0.96530   0.00000  Uiso   1.00
N901   N     0.83332   0.49999   0.95240   0.00000  Uiso   1.00
N902   N     0.83335   0.50001   0.71427   0.00000  Uiso   1.00
O903   O     0.83333   0.43892   0.87154   0.00000  Uiso   1.00
O904   O     0.83334   0.56108   0.79513   0.00000  Uiso   1.00
O905   O     0.83333   0.43893   0.79510   0.00000  Uiso   1.00
O906   O     0.83334   0.56107   0.87157   0.00000  Uiso   1.00
O907   O     0.75725   0.50000   0.86261   0.00000  Uiso   1.00
O908   O     0.90942   0.50000   0.80405   0.00000  Uiso   1.00
O909   O     0.75725   0.50000   0.78617   0.00000  Uiso   1.00
O910   O     0.90942   0.50000   0.88050   0.00000  Uiso   1.00
Zn911  Zn    0.83333   0.49999   0.88437   0.00000  Uiso   1.00
Zn912  Zn    0.83333   0.50001   0.78229   0.00000  Uiso   1.00
C913   C     0.16663   0.75329   0.83331   0.00000  Uiso   1.00
C914   C     0.16593   0.68795   0.87452   0.00000  Uiso   1.00
C915   C     0.16671   0.95753   0.83335   0.00000  Uiso   1.00
C916   C     0.16662   0.70913   0.83332   0.00000  Uiso   1.00
C917   C     0.19823   0.86000   0.69478   0.00000  Uiso   1.00
C918   C     0.13510   0.80667   0.97189   0.00000  Uiso   1.00
C919   C     0.19821   0.85999   0.98016   0.00000  Uiso   1.00
C920   C     0.13512   0.80668   0.68651   0.00000  Uiso   1.00
C921   C     0.16670   0.91338   0.83335   0.00000  Uiso   1.00
C922   C     0.06703   0.83333   0.82136   0.00000  Uiso   1.00
C923   C     0.26630   0.83334   0.84531   0.00000  Uiso   1.00
C924   C     0.01199   0.83336   0.81491   0.00000  Uiso   1.00
C925   C     0.32134   0.83330   0.85176   0.00000  Uiso   1.00
C926   C     0.16734   0.68794   0.79213   0.00000  Uiso   1.00
C927   C     0.16599   0.97873   0.87454   0.00000  Uiso   1.00
C928   C     0.16740   0.97872   0.79215   0.00000  Uiso   1.00
H929   H     0.32469   0.83345   0.77995   0.00000  Uiso   1.00
H930   H     0.10990   0.78536   0.70137   0.00000  Uiso   1.00
H931   H     0.00864   0.83321   0.88672   0.00000  Uiso   1.00
H932   H     0.16789   0.70407   0.76000   0.00000  Uiso   1.00
H933   H     0.16545   0.96260   0.90667   0.00000  Uiso   1.00
H934   H     0.16801   0.96258   0.76003   0.00000  Uiso   1.00
H935   H     0.16533   0.70408   0.90663   0.00000  Uiso   1.00
H936   H     0.22348   0.88132   0.71624   0.00000  Uiso   1.00
H937   H     0.10986   0.78535   0.95042   0.00000  Uiso   1.00
H938   H     0.22343   0.88131   0.96530   0.00000  Uiso   1.00
N939   N     0.16665   0.83332   0.95240   0.00000  Uiso   1.00
N940   N     0.16668   0.83334   0.71427   0.00000  Uiso   1.00
O941   O     0.16666   0.77225   0.87154   0.00000  Uiso   1.00
O942   O     0.16667   0.89442   0.79513   0.00000  Uiso   1.00
O943   O     0.16666   0.77226   0.79510   0.00000  Uiso   1.00
O944   O     0.16667   0.89441   0.87157   0.00000  Uiso   1.00
O945   O     0.09058   0.83333   0.86261   0.00000  Uiso   1.00
O946   O     0.24275   0.83334   0.80405   0.00000  Uiso   1.00
O947   O     0.09058   0.83334   0.78617   0.00000  Uiso   1.00
O948   O     0.24275   0.83333   0.88050   0.00000  Uiso   1.00
Zn949  Zn    0.16667   0.83333   0.88437   0.00000  Uiso   1.00
Zn950  Zn    0.16667   0.83334   0.78229   0.00000  Uiso   1.00
C951   C     0.49997   0.75329   0.83331   0.00000  Uiso   1.00
C952   C     0.49926   0.68795   0.87452   0.00000  Uiso   1.00
C953   C     0.50005   0.95753   0.83335   0.00000  Uiso   1.00
C954   C     0.49995   0.70913   0.83332   0.00000  Uiso   1.00
C955   C     0.53156   0.86000   0.69478   0.00000  Uiso   1.00
C956   C     0.46844   0.80667   0.97189   0.00000  Uiso   1.00
C957   C     0.53154   0.85999   0.98016   0.00000  Uiso   1.00
C958   C     0.46846   0.80668   0.68651   0.00000  Uiso   1.00
C959   C     0.50003   0.91338   0.83335   0.00000  Uiso   1.00
C960   C     0.40036   0.83333   0.82136   0.00000  Uiso   1.00
C961   C     0.59964   0.83334   0.84531   0.00000  Uiso   1.00
C962   C     0.34532   0.83336   0.81491   0.00000  Uiso   1.00
C963   C     0.65468   0.83330   0.85176   0.00000  Uiso   1.00
C964   C     0.50068   0.68794   0.79213   0.00000  Uiso   1.00
C965   C     0.49933   0.97873   0.87454   0.00000  Uiso   1.00
C966   C     0.50074   0.97872   0.79215   0.00000  Uiso   1.00
H967   H     0.65802   0.83345   0.77995   0.00000  Uiso   1.00
H968   H     0.44323   0.78536   0.70137   0.00000  Uiso   1.00
H969   H     0.34198   0.83321   0.88672   0.00000  Uiso   1.00
H970   H     0.50122   0.70407   0.76000   0.00000  Uiso   1.00
H971   H     0.49878   0.96260   0.90667   0.00000  Uiso   1.00
H972   H     0.50134   0.96258   0.76003   0.00000  Uiso   1.00
H973   H     0.49866   0.70408   0.90663   0.00000  Uiso   1.00
H974   H     0.55681   0.88132   0.71624   0.00000  Uiso   1.00
H975   H     0.44319   0.78535   0.95042   0.00000  Uiso   1.00
H976   H     0.55677   0.88131   0.96530   0.00000  Uiso   1.00
N977   N     0.49999   0.83332   0.95240   0.00000  Uiso   1.00
N978   N     0.50001   0.83334   0.71427   0.00000  Uiso   1.00
O979   O     0.50000   0.77225   0.87154   0.00000  Uiso   1.00
O980   O     0.50000   0.89442   0.79513   0.00000  Uiso   1.00
O981   O     0.50000   0.77226   0.79510   0.00000  Uiso   1.00
O982   O     0.50000   0.89441   0.87157   0.00000  Uiso   1.00
O983   O     0.42392   0.83333   0.86261   0.00000  Uiso   1.00
O984   O     0.57608   0.83334   0.80405   0.00000  Uiso   1.00
O985   O     0.42392   0.83334   0.78617   0.00000  Uiso   1.00
O986   O     0.57608   0.83333   0.88050   0.00000  Uiso   1.00
Zn987  Zn    0.50000   0.83333   0.88437   0.00000  Uiso   1.00
Zn988  Zn    0.50000   0.83334   0.78229   0.00000  Uiso   1.00
C989   C     0.83330   0.75329   0.83331   0.00000  Uiso   1.00
C990   C     0.83260   0.68795   0.87452   0.00000  Uiso   1.00
C991   C     0.83338   0.95753   0.83335   0.00000  Uiso   1.00
C992   C     0.83329   0.70913   0.83332   0.00000  Uiso   1.00
C993   C     0.86490   0.86000   0.69478   0.00000  Uiso   1.00
C994   C     0.80177   0.80667   0.97189   0.00000  Uiso   1.00
C995   C     0.86488   0.85999   0.98016   0.00000  Uiso   1.00
C996   C     0.80179   0.80668   0.68651   0.00000  Uiso   1.00
C997   C     0.83337   0.91338   0.83335   0.00000  Uiso   1.00
C998   C     0.73370   0.83333   0.82136   0.00000  Uiso   1.00
C999   C     0.93297   0.83334   0.84531   0.00000  Uiso   1.00
C1000  C     0.67866   0.83336   0.81491   0.00000  Uiso   1.00
C1001  C     0.98801   0.83330   0.85176   0.00000  Uiso   1.00
C1002  C     0.83401   0.68794   0.79213   0.00000  Uiso   1.00
C1003  C     0.83266   0.97873   0.87454   0.00000  Uiso   1.00
C1004  C     0.83407   0.97872   0.79215   0.00000  Uiso   1.00
H1005  H     0.99136   0.83345   0.77995   0.00000  Uiso   1.00
H1006  H     0.77657   0.78536   0.70137   0.00000  Uiso   1.00
H1007  H     0.67531   0.83321   0.88672   0.00000  Uiso   1.00
H1008  H     0.83455   0.70407   0.76000   0.00000  Uiso   1.00
H1009  H     0.83211   0.96260   0.90667   0.00000  Uiso   1.00
H1010  H     0.83467   0.96258   0.76003   0.00000  Uiso   1.00
H1011  H     0.83199   0.70408   0.90663   0.00000  Uiso   1.00
H1012  H     0.89014   0.88132   0.71624   0.00000  Uiso   1.00
H1013  H     0.77652   0.78535   0.95042   0.00000  Uiso   1.00
H1014  H     0.89010   0.88131   0.96530   0.00000  Uiso   1.00
N1015  N     0.83332   0.83332   0.95240   0.00000  Uiso   1.00
N1016  N     0.83335   0.83334   0.71427   0.00000  Uiso   1.00
O1017  O     0.83333   0.77225   0.87154   0.00000  Uiso   1.00
O1018  O     0.83334   0.89442   0.79513   0.00000  Uiso   1.00
O1019  O     0.83333   0.77226   0.79510   0.00000  Uiso   1.00
O1020  O     0.83334   0.89441   0.87157   0.00000  Uiso   1.00
O1021  O     0.75725   0.83333   0.86261   0.00000  Uiso   1.00
O1022  O     0.90942   0.83334   0.80405   0.00000  Uiso   1.00
O1023  O     0.75725   0.83334   0.78617   0.00000  Uiso   1.00
O1024  O     0.90942   0.83333   0.88050   0.00000  Uiso   1.00
Zn1025 Zn    0.83333   0.83333   0.88437   0.00000  Uiso   1.00
Zn1026 Zn    0.83333   0.83334   0.78229   0.00000  Uiso   1.00
loop_
_geom_bond_atom_site_label_1
_geom_bond_atom_site_label_2
_geom_bond_distance
_geom_bond_site_symmetry_2
_ccdc_geom_bond_type
C1     C4      1.421   .     S
C1     O29     1.283   .     A
C1     O31     1.284   .     A
C2     C4      1.398   .     A
C2     H23     1.084   .     S
C2     C243    1.370   1_545 S
C3     C9      1.421   .     S
C3     C15     1.397   .     A
C3     C16     1.398   .     A
C4     C14     1.397   .     A
C5     N28     1.366   .     A
C5     H24     1.082   .     S
C5     C691    1.417   1_554 S
C6     N27     1.366   .     A
C6     H25     1.082   .     S
C6     C350    1.417   .     S
C7     N27     1.366   .     A
C7     H26     1.082   .     S
C7     C347    1.417   .     S
C8     N28     1.366   .     A
C8     H18     1.082   .     S
C8     C690    1.417   1_554 S
C9     O30     1.283   .     A
C9     O32     1.284   .     A
C10    O35     1.280   .     A
C10    C12     1.403   .     S
C10    O33     1.277   .     A
C11    C13     1.403   .     S
C11    O36     1.280   .     A
C11    O34     1.277   .     A
C12    C89     1.330   1_455 S
C12    H93     1.088   1_455 S
C13    C50     1.330   .     S
C13    H57     1.088   .     S
C14    H20     1.084   .     S
C14    C244    1.370   1_545 S
C15    H21     1.084   .     S
C15    C116    1.370   .     S
C16    H22     1.084   .     S
C16    C128    1.370   .     S
H17    C50     1.088   .     S
H19    C89     1.088   1_455 S
N27    Zn37    2.010   .     S
N28    Zn38    2.010   .     S
O29    Zn37    2.002   .     S
O30    Zn38    2.002   .     S
O31    Zn38    2.002   .     S
O32    Zn37    2.002   .     S
O33    Zn37    1.970   .     S
O34    Zn38    1.970   .     S
O35    Zn38    1.982   .     S
O36    Zn37    1.982   .     S
C39    C42     1.421   .     S
C39    O67     1.283   .     A
C39    O69     1.284   .     A
C40    C42     1.398   .     A
C40    H61     1.084   .     S
C40    C281    1.370   1_545 S
C41    C47     1.421   .     S
C41    C53     1.397   .     A
C41    C54     1.398   .     A
C42    C52     1.397   .     A
C43    N66     1.366   .     A
C43    H62     1.082   .     S
C43    C729    1.417   1_554 S
C44    N65     1.366   .     A
C44    H63     1.082   .     S
C44    C388    1.417   .     S
C45    N65     1.366   .     A
C45    H64     1.082   .     S
C45    C385    1.417   .     S
C46    N66     1.366   .     A
C46    H56     1.082   .     S
C46    C728    1.417   1_554 S
C47    O68     1.283   .     A
C47    O70     1.284   .     A
C48    O73     1.280   .     A
C48    C50     1.403   .     S
C48    O71     1.277   .     A
C49    C51     1.403   .     S
C49    O74     1.280   .     A
C49    O72     1.277   .     A
C51    C88     1.330   .     S
C51    H95     1.088   .     S
C52    H58     1.084   .     S
C52    C282    1.370   1_545 S
C53    H59     1.084   .     S
C53    C154    1.370   .     S
C54    H60     1.084   .     S
C54    C166    1.370   .     S
H55    C88     1.088   .     S
N65    Zn75    2.010   .     S
N66    Zn76    2.010   .     S
O67    Zn75    2.002   .     S
O68    Zn76    2.002   .     S
O69    Zn76    2.002   .     S
O70    Zn75    2.002   .     S
O71    Zn75    1.970   .     S
O72    Zn76    1.970   .     S
O73    Zn76    1.982   .     S
O74    Zn75    1.982   .     S
C77    C80     1.421   .     S
C77    O105    1.283   .     A
C77    O107    1.284   .     A
C78    C80     1.398   .     A
C78    H99     1.084   .     S
C78    C319    1.370   1_545 S
C79    C85     1.421   .     S
C79    C91     1.397   .     A
C79    C92     1.398   .     A
C80    C90     1.397   .     A
C81    N104    1.366   .     A
C81    H100    1.082   .     S
C81    C767    1.417   1_554 S
C82    N103    1.366   .     A
C82    H101    1.082   .     S
C82    C426    1.417   .     S
C83    N103    1.366   .     A
C83    H102    1.082   .     S
C83    C423    1.417   .     S
C84    N104    1.366   .     A
C84    H94     1.082   .     S
C84    C766    1.417   1_554 S
C85    O106    1.283   .     A
C85    O108    1.284   .     A
C86    O111    1.280   .     A
C86    C88     1.403   .     S
C86    O109    1.277   .     A
C87    C89     1.403   .     S
C87    O112    1.280   .     A
C87    O110    1.277   .     A
C89    C12     1.330   1_655 S
C89    H19     1.088   1_655 S
C90    H96     1.084   .     S
C90    C320    1.370   1_545 S
C91    H97     1.084   .     S
C91    C192    1.370   .     S
C92    H98     1.084   .     S
C92    C204    1.370   .     S
H93    C12     1.088   1_655 S
N103   Zn113   2.010   .     S
N104   Zn114   2.010   .     S
O105   Zn113   2.002   .     S
O106   Zn114   2.002   .     S
O107   Zn114   2.002   .     S
O108   Zn113   2.002   .     S
O109   Zn113   1.970   .     S
O110   Zn114   1.970   .     S
O111   Zn114   1.982   .     S
O112   Zn113   1.982   .     S
C115   C118    1.421   .     S
C115   O143    1.283   .     A
C115   O145    1.284   .     A
C116   C118    1.398   .     A
C116   H137    1.084   .     S
C117   C123    1.421   .     S
C117   C129    1.397   .     A
C117   C130    1.398   .     A
C118   C128    1.397   .     A
C119   N142    1.366   .     A
C119   H138    1.082   .     S
C119   C805    1.417   1_554 S
C120   N141    1.366   .     A
C120   H139    1.082   .     S
C120   C464    1.417   .     S
C121   N141    1.366   .     A
C121   H140    1.082   .     S
C121   C461    1.417   .     S
C122   N142    1.366   .     A
C122   H132    1.082   .     S
C122   C804    1.417   1_554 S
C123   O144    1.283   .     A
C123   O146    1.284   .     A
C124   O149    1.280   .     A
C124   C126    1.403   .     S
C124   O147    1.277   .     A
C125   C127    1.403   .     S
C125   O150    1.280   .     A
C125   O148    1.277   .     A
C126   C203    1.330   1_455 S
C126   H207    1.088   1_455 S
C127   C164    1.330   .     S
C127   H171    1.088   .     S
C128   H134    1.084   .     S
C129   H135    1.084   .     S
C129   C230    1.370   .     S
C130   H136    1.084   .     S
C130   C242    1.370   .     S
H131   C164    1.088   .     S
H133   C203    1.088   1_455 S
N141   Zn151   2.010   .     S
N142   Zn152   2.010   .     S
O143   Zn151   2.002   .     S
O144   Zn152   2.002   .     S
O145   Zn152   2.002   .     S
O146   Zn151   2.002   .     S
O147   Zn151   1.970   .     S
O148   Zn152   1.970   .     S
O149   Zn152   1.982   .     S
O150   Zn151   1.982   .     S
C153   C156    1.421   .     S
C153   O181    1.283   .     A
C153   O183    1.284   .     A
C154   C156    1.398   .     A
C154   H175    1.084   .     S
C155   C161    1.421   .     S
C155   C167    1.397   .     A
C155   C168    1.398   .     A
C156   C166    1.397   .     A
C157   N180    1.366   .     A
C157   H176    1.082   .     S
C157   C843    1.417   1_554 S
C158   N179    1.366   .     A
C158   H177    1.082   .     S
C158   C502    1.417   .     S
C159   N179    1.366   .     A
C159   H178    1.082   .     S
C159   C499    1.417   .     S
C160   N180    1.366   .     A
C160   H170    1.082   .     S
C160   C842    1.417   1_554 S
C161   O182    1.283   .     A
C161   O184    1.284   .     A
C162   O187    1.280   .     A
C162   C164    1.403   .     S
C162   O185    1.277   .     A
C163   C165    1.403   .     S
C163   O188    1.280   .     A
C163   O186    1.277   .     A
C165   C202    1.330   .     S
C165   H209    1.088   .     S
C166   H172    1.084   .     S
C167   H173    1.084   .     S
C167   C268    1.370   .     S
C168   H174    1.084   .     S
C168   C280    1.370   .     S
H169   C202    1.088   .     S
N179   Zn189   2.010   .     S
N180   Zn190   2.010   .     S
O181   Zn189   2.002   .     S
O182   Zn190   2.002   .     S
O183   Zn190   2.002   .     S
O184   Zn189   2.002   .     S
O185   Zn189   1.970   .     S
O186   Zn190   1.970   .     S
O187   Zn190   1.982   .     S
O188   Zn189   1.982   .     S
C191   C194    1.421   .     S
C191   O219    1.283   .     A
C191   O221    1.284   .     A
C192   C194    1.398   .     A
C192   H213    1.084   .     S
C193   C199    1.421   .     S
C193   C205    1.397   .     A
C193   C206    1.398   .     A
C194   C204    1.397   .     A
C195   N218    1.366   .     A
C195   H214    1.082   .     S
C195   C881    1.417   1_554 S
C196   N217    1.366   .     A
C196   H215    1.082   .     S
C196   C540    1.417   .     S
C197   N217    1.366   .     A
C197   H216    1.082   .     S
C197   C537    1.417   .     S
C198   N218    1.366   .     A
C198   H208    1.082   .     S
C198   C880    1.417   1_554 S
C199   O220    1.283   .     A
C199   O222    1.284   .     A
C200   O225    1.280   .     A
C200   C202    1.403   .     S
C200   O223    1.277   .     A
C201   C203    1.403   .     S
C201   O226    1.280   .     A
C201   O224    1.277   .     A
C203   C126    1.330   1_655 S
C203   H133    1.088   1_655 S
C204   H210    1.084   .     S
C205   H211    1.084   .     S
C205   C306    1.370   .     S
C206   H212    1.084   .     S
C206   C318    1.370   .     S
H207   C126    1.088   1_655 S
N217   Zn227   2.010   .     S
N218   Zn228   2.010   .     S
O219   Zn227   2.002   .     S
O220   Zn228   2.002   .     S
O221   Zn228   2.002   .     S
O222   Zn227   2.002   .     S
O223   Zn227   1.970   .     S
O224   Zn228   1.970   .     S
O225   Zn228   1.982   .     S
O226   Zn227   1.982   .     S
C229   C232    1.421   .     S
C229   O257    1.283   .     A
C229   O259    1.284   .     A
C230   C232    1.398   .     A
C230   H251    1.084   .     S
C231   C237    1.421   .     S
C231   C243    1.397   .     A
C231   C244    1.398   .     A
C232   C242    1.397   .     A
C233   N256    1.366   .     A
C233   H252    1.082   .     S
C233   C919    1.417   1_554 S
C234   N255    1.366   .     A
C234   H253    1.082   .     S
C234   C578    1.417   .     S
C235   N255    1.366   .     A
C235   H254    1.082   .     S
C235   C575    1.417   .     S
C236   N256    1.366   .     A
C236   H246    1.082   .     S
C236   C918    1.417   1_554 S
C237   O258    1.283   .     A
C237   O260    1.284   .     A
C238   O263    1.280   .     A
C238   C240    1.403   .     S
C238   O261    1.277   .     A
C239   C241    1.403   .     S
C239   O264    1.280   .     A
C239   O262    1.277   .     A
C240   C317    1.330   1_455 S
C240   H321    1.088   1_455 S
C241   C278    1.330   .     S
C241   H285    1.088   .     S
C242   H248    1.084   .     S
C243   H249    1.084   .     S
C243   C2      1.370   1_565 S
C244   H250    1.084   .     S
C244   C14     1.370   1_565 S
H245   C278    1.088   .     S
H247   C317    1.088   1_455 S
N255   Zn265   2.010   .     S
N256   Zn266   2.010   .     S
O257   Zn265   2.002   .     S
O258   Zn266   2.002   .     S
O259   Zn266   2.002   .     S
O260   Zn265   2.002   .     S
O261   Zn265   1.970   .     S
O262   Zn266   1.970   .     S
O263   Zn266   1.982   .     S
O264   Zn265   1.982   .     S
C267   C270    1.421   .     S
C267   O295    1.283   .     A
C267   O297    1.284   .     A
C268   C270    1.398   .     A
C268   H289    1.084   .     S
C269   C275    1.421   .     S
C269   C281    1.397   .     A
C269   C282    1.398   .     A
C270   C280    1.397   .     A
C271   N294    1.366   .     A
C271   H290    1.082   .     S
C271   C957    1.417   1_554 S
C272   N293    1.366   .     A
C272   H291    1.082   .     S
C272   C616    1.417   .     S
C273   N293    1.366   .     A
C273   H292    1.082   .     S
C273   C613    1.417   .     S
C274   N294    1.366   .     A
C274   H284    1.082   .     S
C274   C956    1.417   1_554 S
C275   O296    1.283   .     A
C275   O298    1.284   .     A
C276   O301    1.280   .     A
C276   C278    1.403   .     S
C276   O299    1.277   .     A
C277   C279    1.403   .     S
C277   O302    1.280   .     A
C277   O300    1.277   .     A
C279   C316    1.330   .     S
C279   H323    1.088   .     S
C280   H286    1.084   .     S
C281   H287    1.084   .     S
C281   C40     1.370   1_565 S
C282   H288    1.084   .     S
C282   C52     1.370   1_565 S
H283   C316    1.088   .     S
N293   Zn303   2.010   .     S
N294   Zn304   2.010   .     S
O295   Zn303   2.002   .     S
O296   Zn304   2.002   .     S
O297   Zn304   2.002   .     S
O298   Zn303   2.002   .     S
O299   Zn303   1.970   .     S
O300   Zn304   1.970   .     S
O301   Zn304   1.982   .     S
O302   Zn303   1.982   .     S
C305   C308    1.421   .     S
C305   O333    1.283   .     A
C305   O335    1.284   .     A
C306   C308    1.398   .     A
C306   H327    1.084   .     S
C307   C313    1.421   .     S
C307   C319    1.397   .     A
C307   C320    1.398   .     A
C308   C318    1.397   .     A
C309   N332    1.366   .     A
C309   H328    1.082   .     S
C309   C995    1.417   1_554 S
C310   N331    1.366   .     A
C310   H329    1.082   .     S
C310   C654    1.417   .     S
C311   N331    1.366   .     A
C311   H330    1.082   .     S
C311   C651    1.417   .     S
C312   N332    1.366   .     A
C312   H322    1.082   .     S
C312   C994    1.417   1_554 S
C313   O334    1.283   .     A
C313   O336    1.284   .     A
C314   O339    1.280   .     A
C314   C316    1.403   .     S
C314   O337    1.277   .     A
C315   C317    1.403   .     S
C315   O340    1.280   .     A
C315   O338    1.277   .     A
C317   C240    1.330   1_655 S
C317   H247    1.088   1_655 S
C318   H324    1.084   .     S
C319   H325    1.084   .     S
C319   C78     1.370   1_565 S
C320   H326    1.084   .     S
C320   C90     1.370   1_565 S
H321   C240    1.088   1_655 S
N331   Zn341   2.010   .     S
N332   Zn342   2.010   .     S
O333   Zn341   2.002   .     S
O334   Zn342   2.002   .     S
O335   Zn342   2.002   .     S
O336   Zn341   2.002   .     S
O337   Zn341   1.970   .     S
O338   Zn342   1.970   .     S
O339   Zn342   1.982   .     S
O340   Zn341   1.982   .     S
C343   C346    1.421   .     S
C343   O371    1.283   .     A
C343   O373    1.284   .     A
C344   C346    1.398   .     A
C344   H365    1.084   .     S
C344   C585    1.370   1_545 S
C345   C351    1.421   .     S
C345   C357    1.397   .     A
C345   C358    1.398   .     A
C346   C356    1.397   .     A
C347   N370    1.366   .     A
C347   H366    1.082   .     S
C348   N369    1.366   .     A
C348   H367    1.082   .     S
C348   C692    1.417   .     S
C349   N369    1.366   .     A
C349   H368    1.082   .     S
C349   C689    1.417   .     S
C350   N370    1.366   .     A
C350   H360    1.082   .     S
C351   O372    1.283   .     A
C351   O374    1.284   .     A
C352   O377    1.280   .     A
C352   C354    1.403   .     S
C352   O375    1.277   .     A
C353   C355    1.403   .     S
C353   O378    1.280   .     A
C353   O376    1.277   .     A
C354   C431    1.330   1_455 S
C354   H435    1.088   1_455 S
C355   C392    1.330   .     S
C355   H399    1.088   .     S
C356   H362    1.084   .     S
C356   C586    1.370   1_545 S
C357   H363    1.084   .     S
C357   C458    1.370   .     S
C358   H364    1.084   .     S
C358   C470    1.370   .     S
H359   C392    1.088   .     S
H361   C431    1.088   1_455 S
N369   Zn379   2.010   .     S
N370   Zn380   2.010   .     S
O371   Zn379   2.002   .     S
O372   Zn380   2.002   .     S
O373   Zn380   2.002   .     S
O374   Zn379   2.002   .     S
O375   Zn379   1.970   .     S
O376   Zn380   1.970   .     S
O377   Zn380   1.982   .     S
O378   Zn379   1.982   .     S
C381   C384    1.421   .     S
C381   O409    1.283   .     A
C381   O411    1.284   .     A
C382   C384    1.398   .     A
C382   H403    1.084   .     S
C382   C623    1.370   1_545 S
C383   C389    1.421   .     S
C383   C395    1.397   .     A
C383   C396    1.398   .     A
C384   C394    1.397   .     A
C385   N408    1.366   .     A
C385   H404    1.082   .     S
C386   N407    1.366   .     A
C386   H405    1.082   .     S
C386   C730    1.417   .     S
C387   N407    1.366   .     A
C387   H406    1.082   .     S
C387   C727    1.417   .     S
C388   N408    1.366   .     A
C388   H398    1.082   .     S
C389   O410    1.283   .     A
C389   O412    1.284   .     A
C390   O415    1.280   .     A
C390   C392    1.403   .     S
C390   O413    1.277   .     A
C391   C393    1.403   .     S
C391   O416    1.280   .     A
C391   O414    1.277   .     A
C393   C430    1.330   .     S
C393   H437    1.088   .     S
C394   H400    1.084   .     S
C394   C624    1.370   1_545 S
C395   H401    1.084   .     S
C395   C496    1.370   .     S
C396   H402    1.084   .     S
C396   C508    1.370   .     S
H397   C430    1.088   .     S
N407   Zn417   2.010   .     S
N408   Zn418   2.010   .     S
O409   Zn417   2.002   .     S
O410   Zn418   2.002   .     S
O411   Zn418   2.002   .     S
O412   Zn417   2.002   .     S
O413   Zn417   1.970   .     S
O414   Zn418   1.970   .     S
O415   Zn418   1.982   .     S
O416   Zn417   1.982   .     S
C419   C422    1.421   .     S
C419   O447    1.283   .     A
C419   O449    1.284   .     A
C420   C422    1.398   .     A
C420   H441    1.084   .     S
C420   C661    1.370   1_545 S
C421   C427    1.421   .     S
C421   C433    1.397   .     A
C421   C434    1.398   .     A
C422   C432    1.397   .     A
C423   N446    1.366   .     A
C423   H442    1.082   .     S
C424   N445    1.366   .     A
C424   H443    1.082   .     S
C424   C768    1.417   .     S
C425   N445    1.366   .     A
C425   H444    1.082   .     S
C425   C765    1.417   .     S
C426   N446    1.366   .     A
C426   H436    1.082   .     S
C427   O448    1.283   .     A
C427   O450    1.284   .     A
C428   O453    1.280   .     A
C428   C430    1.403   .     S
C428   O451    1.277   .     A
C429   C431    1.403   .     S
C429   O454    1.280   .     A
C429   O452    1.277   .     A
C431   C354    1.330   1_655 S
C431   H361    1.088   1_655 S
C432   H438    1.084   .     S
C432   C662    1.370   1_545 S
C433   H439    1.084   .     S
C433   C534    1.370   .     S
C434   H440    1.084   .     S
C434   C546    1.370   .     S
H435   C354    1.088   1_655 S
N445   Zn455   2.010   .     S
N446   Zn456   2.010   .     S
O447   Zn455   2.002   .     S
O448   Zn456   2.002   .     S
O449   Zn456   2.002   .     S
O450   Zn455   2.002   .     S
O451   Zn455   1.970   .     S
O452   Zn456   1.970   .     S
O453   Zn456   1.982   .     S
O454   Zn455   1.982   .     S
C457   C460    1.421   .     S
C457   O485    1.283   .     A
C457   O487    1.284   .     A
C458   C460    1.398   .     A
C458   H479    1.084   .     S
C459   C465    1.421   .     S
C459   C471    1.397   .     A
C459   C472    1.398   .     A
C460   C470    1.397   .     A
C461   N484    1.366   .     A
C461   H480    1.082   .     S
C462   N483    1.366   .     A
C462   H481    1.082   .     S
C462   C806    1.417   .     S
C463   N483    1.366   .     A
C463   H482    1.082   .     S
C463   C803    1.417   .     S
C464   N484    1.366   .     A
C464   H474    1.082   .     S
C465   O486    1.283   .     A
C465   O488    1.284   .     A
C466   O491    1.280   .     A
C466   C468    1.403   .     S
C466   O489    1.277   .     A
C467   C469    1.403   .     S
C467   O492    1.280   .     A
C467   O490    1.277   .     A
C468   C545    1.330   1_455 S
C468   H549    1.088   1_455 S
C469   C506    1.330   .     S
C469   H513    1.088   .     S
C470   H476    1.084   .     S
C471   H477    1.084   .     S
C471   C572    1.370   .     S
C472   H478    1.084   .     S
C472   C584    1.370   .     S
H473   C506    1.088   .     S
H475   C545    1.088   1_455 S
N483   Zn493   2.010   .     S
N484   Zn494   2.010   .     S
O485   Zn493   2.002   .     S
O486   Zn494   2.002   .     S
O487   Zn494   2.002   .     S
O488   Zn493   2.002   .     S
O489   Zn493   1.970   .     S
O490   Zn494   1.970   .     S
O491   Zn494   1.982   .     S
O492   Zn493   1.982   .     S
C495   C498    1.421   .     S
C495   O523    1.283   .     A
C495   O525    1.284   .     A
C496   C498    1.398   .     A
C496   H517    1.084   .     S
C497   C503    1.421   .     S
C497   C509    1.397   .     A
C497   C510    1.398   .     A
C498   C508    1.397   .     A
C499   N522    1.366   .     A
C499   H518    1.082   .     S
C500   N521    1.366   .     A
C500   H519    1.082   .     S
C500   C844    1.417   .     S
C501   N521    1.366   .     A
C501   H520    1.082   .     S
C501   C841    1.417   .     S
C502   N522    1.366   .     A
C502   H512    1.082   .     S
C503   O524    1.283   .     A
C503   O526    1.284   .     A
C504   O529    1.280   .     A
C504   C506    1.403   .     S
C504   O527    1.277   .     A
C505   C507    1.403   .     S
C505   O530    1.280   .     A
C505   O528    1.277   .     A
C507   C544    1.330   .     S
C507   H551    1.088   .     S
C508   H514    1.084   .     S
C509   H515    1.084   .     S
C509   C610    1.370   .     S
C510   H516    1.084   .     S
C510   C622    1.370   .     S
H511   C544    1.088   .     S
N521   Zn531   2.010   .     S
N522   Zn532   2.010   .     S
O523   Zn531   2.002   .     S
O524   Zn532   2.002   .     S
O525   Zn532   2.002   .     S
O526   Zn531   2.002   .     S
O527   Zn531   1.970   .     S
O528   Zn532   1.970   .     S
O529   Zn532   1.982   .     S
O530   Zn531   1.982   .     S
C533   C536    1.421   .     S
C533   O561    1.283   .     A
C533   O563    1.284   .     A
C534   C536    1.398   .     A
C534   H555    1.084   .     S
C535   C541    1.421   .     S
C535   C547    1.397   .     A
C535   C548    1.398   .     A
C536   C546    1.397   .     A
C537   N560    1.366   .     A
C537   H556    1.082   .     S
C538   N559    1.366   .     A
C538   H557    1.082   .     S
C538   C882    1.417   .     S
C539   N559    1.366   .     A
C539   H558    1.082   .     S
C539   C879    1.417   .     S
C540   N560    1.366   .     A
C540   H550    1.082   .     S
C541   O562    1.283   .     A
C541   O564    1.284   .     A
C542   O567    1.280   .     A
C542   C544    1.403   .     S
C542   O565    1.277   .     A
C543   C545    1.403   .     S
C543   O568    1.280   .     A
C543   O566    1.277   .     A
C545   C468    1.330   1_655 S
C545   H475    1.088   1_655 S
C546   H552    1.084   .     S
C547   H553    1.084   .     S
C547   C648    1.370   .     S
C548   H554    1.084   .     S
C548   C660    1.370   .     S
H549   C468    1.088   1_655 S
N559   Zn569   2.010   .     S
N560   Zn570   2.010   .     S
O561   Zn569   2.002   .     S
O562   Zn570   2.002   .     S
O563   Zn570   2.002   .     S
O564   Zn569   2.002   .     S
O565   Zn569   1.970   .     S
O566   Zn570   1.970   .     S
O567   Zn570   1.982   .     S
O568   Zn569   1.982   .     S
C571   C574    1.421   .     S
C571   O599    1.283   .     A
C571   O601    1.284   .     A
C572   C574    1.398   .     A
C572   H593    1.084   .     S
C573   C579    1.421   .     S
C573   C585    1.397   .     A
C573   C586    1.398   .     A
C574   C584    1.397   .     A
C575   N598    1.366   .     A
C575   H594    1.082   .     S
C576   N597    1.366   .     A
C576   H595    1.082   .     S
C576   C920    1.417   .     S
C577   N597    1.366   .     A
C577   H596    1.082   .     S
C577   C917    1.417   .     S
C578   N598    1.366   .     A
C578   H588    1.082   .     S
C579   O600    1.283   .     A
C579   O602    1.284   .     A
C580   O605    1.280   .     A
C580   C582    1.403   .     S
C580   O603    1.277   .     A
C581   C583    1.403   .     S
C581   O606    1.280   .     A
C581   O604    1.277   .     A
C582   C659    1.330   1_455 S
C582   H663    1.088   1_455 S
C583   C620    1.330   .     S
C583   H627    1.088   .     S
C584   H590    1.084   .     S
C585   H591    1.084   .     S
C585   C344    1.370   1_565 S
C586   H592    1.084   .     S
C586   C356    1.370   1_565 S
H587   C620    1.088   .     S
H589   C659    1.088   1_455 S
N597   Zn607   2.010   .     S
N598   Zn608   2.010   .     S
O599   Zn607   2.002   .     S
O600   Zn608   2.002   .     S
O601   Zn608   2.002   .     S
O602   Zn607   2.002   .     S
O603   Zn607   1.970   .     S
O604   Zn608   1.970   .     S
O605   Zn608   1.982   .     S
O606   Zn607   1.982   .     S
C609   C612    1.421   .     S
C609   O637    1.283   .     A
C609   O639    1.284   .     A
C610   C612    1.398   .     A
C610   H631    1.084   .     S
C611   C617    1.421   .     S
C611   C623    1.397   .     A
C611   C624    1.398   .     A
C612   C622    1.397   .     A
C613   N636    1.366   .     A
C613   H632    1.082   .     S
C614   N635    1.366   .     A
C614   H633    1.082   .     S
C614   C958    1.417   .     S
C615   N635    1.366   .     A
C615   H634    1.082   .     S
C615   C955    1.417   .     S
C616   N636    1.366   .     A
C616   H626    1.082   .     S
C617   O638    1.283   .     A
C617   O640    1.284   .     A
C618   O643    1.280   .     A
C618   C620    1.403   .     S
C618   O641    1.277   .     A
C619   C621    1.403   .     S
C619   O644    1.280   .     A
C619   O642    1.277   .     A
C621   C658    1.330   .     S
C621   H665    1.088   .     S
C622   H628    1.084   .     S
C623   H629    1.084   .     S
C623   C382    1.370   1_565 S
C624   H630    1.084   .     S
C624   C394    1.370   1_565 S
H625   C658    1.088   .     S
N635   Zn645   2.010   .     S
N636   Zn646   2.010   .     S
O637   Zn645   2.002   .     S
O638   Zn646   2.002   .     S
O639   Zn646   2.002   .     S
O640   Zn645   2.002   .     S
O641   Zn645   1.970   .     S
O642   Zn646   1.970   .     S
O643   Zn646   1.982   .     S
O644   Zn645   1.982   .     S
C647   C650    1.421   .     S
C647   O675    1.283   .     A
C647   O677    1.284   .     A
C648   C650    1.398   .     A
C648   H669    1.084   .     S
C649   C655    1.421   .     S
C649   C661    1.397   .     A
C649   C662    1.398   .     A
C650   C660    1.397   .     A
C651   N674    1.366   .     A
C651   H670    1.082   .     S
C652   N673    1.366   .     A
C652   H671    1.082   .     S
C652   C996    1.417   .     S
C653   N673    1.366   .     A
C653   H672    1.082   .     S
C653   C993    1.417   .     S
C654   N674    1.366   .     A
C654   H664    1.082   .     S
C655   O676    1.283   .     A
C655   O678    1.284   .     A
C656   O681    1.280   .     A
C656   C658    1.403   .     S
C656   O679    1.277   .     A
C657   C659    1.403   .     S
C657   O682    1.280   .     A
C657   O680    1.277   .     A
C659   C582    1.330   1_655 S
C659   H589    1.088   1_655 S
C660   H666    1.084   .     S
C661   H667    1.084   .     S
C661   C420    1.370   1_565 S
C662   H668    1.084   .     S
C662   C432    1.370   1_565 S
H663   C582    1.088   1_655 S
N673   Zn683   2.010   .     S
N674   Zn684   2.010   .     S
O675   Zn683   2.002   .     S
O676   Zn684   2.002   .     S
O677   Zn684   2.002   .     S
O678   Zn683   2.002   .     S
O679   Zn683   1.970   .     S
O680   Zn684   1.970   .     S
O681   Zn684   1.982   .     S
O682   Zn683   1.982   .     S
C685   C688    1.421   .     S
C685   O713    1.283   .     A
C685   O715    1.284   .     A
C686   C688    1.398   .     A
C686   H707    1.084   .     S
C686   C927    1.370   1_545 S
C687   C693    1.421   .     S
C687   C699    1.397   .     A
C687   C700    1.398   .     A
C688   C698    1.397   .     A
C689   N712    1.366   .     A
C689   H708    1.082   .     S
C690   N711    1.366   .     A
C690   H709    1.082   .     S
C690   C8      1.417   1_556 S
C691   N711    1.366   .     A
C691   H710    1.082   .     S
C691   C5      1.417   1_556 S
C692   N712    1.366   .     A
C692   H702    1.082   .     S
C693   O714    1.283   .     A
C693   O716    1.284   .     A
C694   O719    1.280   .     A
C694   C696    1.403   .     S
C694   O717    1.277   .     A
C695   C697    1.403   .     S
C695   O720    1.280   .     A
C695   O718    1.277   .     A
C696   C773    1.330   1_455 S
C696   H777    1.088   1_455 S
C697   C734    1.330   .     S
C697   H741    1.088   .     S
C698   H704    1.084   .     S
C698   C928    1.370   1_545 S
C699   H705    1.084   .     S
C699   C800    1.370   .     S
C700   H706    1.084   .     S
C700   C812    1.370   .     S
H701   C734    1.088   .     S
H703   C773    1.088   1_455 S
N711   Zn721   2.010   .     S
N712   Zn722   2.010   .     S
O713   Zn721   2.002   .     S
O714   Zn722   2.002   .     S
O715   Zn722   2.002   .     S
O716   Zn721   2.002   .     S
O717   Zn721   1.970   .     S
O718   Zn722   1.970   .     S
O719   Zn722   1.982   .     S
O720   Zn721   1.982   .     S
C723   C726    1.421   .     S
C723   O751    1.283   .     A
C723   O753    1.284   .     A
C724   C726    1.398   .     A
C724   H745    1.084   .     S
C724   C965    1.370   1_545 S
C725   C731    1.421   .     S
C725   C737    1.397   .     A
C725   C738    1.398   .     A
C726   C736    1.397   .     A
C727   N750    1.366   .     A
C727   H746    1.082   .     S
C728   N749    1.366   .     A
C728   H747    1.082   .     S
C728   C46     1.417   1_556 S
C729   N749    1.366   .     A
C729   H748    1.082   .     S
C729   C43     1.417   1_556 S
C730   N750    1.366   .     A
C730   H740    1.082   .     S
C731   O752    1.283   .     A
C731   O754    1.284   .     A
C732   O757    1.280   .     A
C732   C734    1.403   .     S
C732   O755    1.277   .     A
C733   C735    1.403   .     S
C733   O758    1.280   .     A
C733   O756    1.277   .     A
C735   C772    1.330   .     S
C735   H779    1.088   .     S
C736   H742    1.084   .     S
C736   C966    1.370   1_545 S
C737   H743    1.084   .     S
C737   C838    1.370   .     S
C738   H744    1.084   .     S
C738   C850    1.370   .     S
H739   C772    1.088   .     S
N749   Zn759   2.010   .     S
N750   Zn760   2.010   .     S
O751   Zn759   2.002   .     S
O752   Zn760   2.002   .     S
O753   Zn760   2.002   .     S
O754   Zn759   2.002   .     S
O755   Zn759   1.970   .     S
O756   Zn760   1.970   .     S
O757   Zn760   1.982   .     S
O758   Zn759   1.982   .     S
C761   C764    1.421   .     S
C761   O789    1.283   .     A
C761   O791    1.284   .     A
C762   C764    1.398   .     A
C762   H783    1.084   .     S
C762   C1003   1.370   1_545 S
C763   C769    1.421   .     S
C763   C775    1.397   .     A
C763   C776    1.398   .     A
C764   C774    1.397   .     A
C765   N788    1.366   .     A
C765   H784    1.082   .     S
C766   N787    1.366   .     A
C766   H785    1.082   .     S
C766   C84     1.417   1_556 S
C767   N787    1.366   .     A
C767   H786    1.082   .     S
C767   C81     1.417   1_556 S
C768   N788    1.366   .     A
C768   H778    1.082   .     S
C769   O790    1.283   .     A
C769   O792    1.284   .     A
C770   O795    1.280   .     A
C770   C772    1.403   .     S
C770   O793    1.277   .     A
C771   C773    1.403   .     S
C771   O796    1.280   .     A
C771   O794    1.277   .     A
C773   C696    1.330   1_655 S
C773   H703    1.088   1_655 S
C774   H780    1.084   .     S
C774   C1004   1.370   1_545 S
C775   H781    1.084   .     S
C775   C876    1.370   .     S
C776   H782    1.084   .     S
C776   C888    1.370   .     S
H777   C696    1.088   1_655 S
N787   Zn797   2.010   .     S
N788   Zn798   2.010   .     S
O789   Zn797   2.002   .     S
O790   Zn798   2.002   .     S
O791   Zn798   2.002   .     S
O792   Zn797   2.002   .     S
O793   Zn797   1.970   .     S
O794   Zn798   1.970   .     S
O795   Zn798   1.982   .     S
O796   Zn797   1.982   .     S
C799   C802    1.421   .     S
C799   O827    1.283   .     A
C799   O829    1.284   .     A
C800   C802    1.398   .     A
C800   H821    1.084   .     S
C801   C807    1.421   .     S
C801   C813    1.397   .     A
C801   C814    1.398   .     A
C802   C812    1.397   .     A
C803   N826    1.366   .     A
C803   H822    1.082   .     S
C804   N825    1.366   .     A
C804   H823    1.082   .     S
C804   C122    1.417   1_556 S
C805   N825    1.366   .     A
C805   H824    1.082   .     S
C805   C119    1.417   1_556 S
C806   N826    1.366   .     A
C806   H816    1.082   .     S
C807   O828    1.283   .     A
C807   O830    1.284   .     A
C808   O833    1.280   .     A
C808   C810    1.403   .     S
C808   O831    1.277   .     A
C809   C811    1.403   .     S
C809   O834    1.280   .     A
C809   O832    1.277   .     A
C810   C887    1.330   1_455 S
C810   H891    1.088   1_455 S
C811   C848    1.330   .     S
C811   H855    1.088   .     S
C812   H818    1.084   .     S
C813   H819    1.084   .     S
C813   C914    1.370   .     S
C814   H820    1.084   .     S
C814   C926    1.370   .     S
H815   C848    1.088   .     S
H817   C887    1.088   1_455 S
N825   Zn835   2.010   .     S
N826   Zn836   2.010   .     S
O827   Zn835   2.002   .     S
O828   Zn836   2.002   .     S
O829   Zn836   2.002   .     S
O830   Zn835   2.002   .     S
O831   Zn835   1.970   .     S
O832   Zn836   1.970   .     S
O833   Zn836   1.982   .     S
O834   Zn835   1.982   .     S
C837   C840    1.421   .     S
C837   O865    1.283   .     A
C837   O867    1.284   .     A
C838   C840    1.398   .     A
C838   H859    1.084   .     S
C839   C845    1.421   .     S
C839   C851    1.397   .     A
C839   C852    1.398   .     A
C840   C850    1.397   .     A
C841   N864    1.366   .     A
C841   H860    1.082   .     S
C842   N863    1.366   .     A
C842   H861    1.082   .     S
C842   C160    1.417   1_556 S
C843   N863    1.366   .     A
C843   H862    1.082   .     S
C843   C157    1.417   1_556 S
C844   N864    1.366   .     A
C844   H854    1.082   .     S
C845   O866    1.283   .     A
C845   O868    1.284   .     A
C846   O871    1.280   .     A
C846   C848    1.403   .     S
C846   O869    1.277   .     A
C847   C849    1.403   .     S
C847   O872    1.280   .     A
C847   O870    1.277   .     A
C849   C886    1.330   .     S
C849   H893    1.088   .     S
C850   H856    1.084   .     S
C851   H857    1.084   .     S
C851   C952    1.370   .     S
C852   H858    1.084   .     S
C852   C964    1.370   .     S
H853   C886    1.088   .     S
N863   Zn873   2.010   .     S
N864   Zn874   2.010   .     S
O865   Zn873   2.002   .     S
O866   Zn874   2.002   .     S
O867   Zn874   2.002   .     S
O868   Zn873   2.002   .     S
O869   Zn873   1.970   .     S
O870   Zn874   1.970   .     S
O871   Zn874   1.982   .     S
O872   Zn873   1.982   .     S
C875   C878    1.421   .     S
C875   O903    1.283   .     A
C875   O905    1.284   .     A
C876   C878    1.398   .     A
C876   H897    1.084   .     S
C877   C883    1.421   .     S
C877   C889    1.397   .     A
C877   C890    1.398   .     A
C878   C888    1.397   .     A
C879   N902    1.366   .     A
C879   H898    1.082   .     S
C880   N901    1.366   .     A
C880   H899    1.082   .     S
C880   C198    1.417   1_556 S
C881   N901    1.366   .     A
C881   H900    1.082   .     S
C881   C195    1.417   1_556 S
C882   N902    1.366   .     A
C882   H892    1.082   .     S
C883   O904    1.283   .     A
C883   O906    1.284   .     A
C884   O909    1.280   .     A
C884   C886    1.403   .     S
C884   O907    1.277   .     A
C885   C887    1.403   .     S
C885   O910    1.280   .     A
C885   O908    1.277   .     A
C887   C810    1.330   1_655 S
C887   H817    1.088   1_655 S
C888   H894    1.084   .     S
C889   H895    1.084   .     S
C889   C990    1.370   .     S
C890   H896    1.084   .     S
C890   C1002   1.370   .     S
H891   C810    1.088   1_655 S
N901   Zn911   2.010   .     S
N902   Zn912   2.010   .     S
O903   Zn911   2.002   .     S
O904   Zn912   2.002   .     S
O905   Zn912   2.002   .     S
O906   Zn911   2.002   .     S
O907   Zn911   1.970   .     S
O908   Zn912   1.970   .     S
O909   Zn912   1.982   .     S
O910   Zn911   1.982   .     S
C913   C916    1.421   .     S
C913   O941    1.283   .     A
C913   O943    1.284   .     A
C914   C916    1.398   .     A
C914   H935    1.084   .     S
C915   C921    1.421   .     S
C915   C927    1.397   .     A
C915   C928    1.398   .     A
C916   C926    1.397   .     A
C917   N940    1.366   .     A
C917   H936    1.082   .     S
C918   N939    1.366   .     A
C918   H937    1.082   .     S
C918   C236    1.417   1_556 S
C919   N939    1.366   .     A
C919   H938    1.082   .     S
C919   C233    1.417   1_556 S
C920   N940    1.366   .     A
C920   H930    1.082   .     S
C921   O942    1.283   .     A
C921   O944    1.284   .     A
C922   O947    1.280   .     A
C922   C924    1.403   .     S
C922   O945    1.277   .     A
C923   C925    1.403   .     S
C923   O948    1.280   .     A
C923   O946    1.277   .     A
C924   C1001   1.330   1_455 S
C924   H1005   1.088   1_455 S
C925   C962    1.330   .     S
C925   H969    1.088   .     S
C926   H932    1.084   .     S
C927   H933    1.084   .     S
C927   C686    1.370   1_565 S
C928   H934    1.084   .     S
C928   C698    1.370   1_565 S
H929   C962    1.088   .     S
H931   C1001   1.088   1_455 S
N939   Zn949   2.010   .     S
N940   Zn950   2.010   .     S
O941   Zn949   2.002   .     S
O942   Zn950   2.002   .     S
O943   Zn950   2.002   .     S
O944   Zn949   2.002   .     S
O945   Zn949   1.970   .     S
O946   Zn950   1.970   .     S
O947   Zn950   1.982   .     S
O948   Zn949   1.982   .     S
C951   C954    1.421   .     S
C951   O979    1.283   .     A
C951   O981    1.284   .     A
C952   C954    1.398   .     A
C952   H973    1.084   .     S
C953   C959    1.421   .     S
C953   C965    1.397   .     A
C953   C966    1.398   .     A
C954   C964    1.397   .     A
C955   N978    1.366   .     A
C955   H974    1.082   .     S
C956   N977    1.366   .     A
C956   H975    1.082   .     S
C956   C274    1.417   1_556 S
C957   N977    1.366   .     A
C957   H976    1.082   .     S
C957   C271    1.417   1_556 S
C958   N978    1.366   .     A
C958   H968    1.082   .     S
C959   O980    1.283   .     A
C959   O982    1.284   .     A
C960   O985    1.280   .     A
C960   C962    1.403   .     S
C960   O983    1.277   .     A
C961   C963    1.403   .     S
C961   O986    1.280   .     A
C961   O984    1.277   .     A
C963   C1000   1.330   .     S
C963   H1007   1.088   .     S
C964   H970    1.084   .     S
C965   H971    1.084   .     S
C965   C724    1.370   1_565 S
C966   H972    1.084   .     S
C966   C736    1.370   1_565 S
H967   C1000   1.088   .     S
N977   Zn987   2.010   .     S
N978   Zn988   2.010   .     S
O979   Zn987   2.002   .     S
O980   Zn988   2.002   .     S
O981   Zn988   2.002   .     S
O982   Zn987   2.002   .     S
O983   Zn987   1.970   .     S
O984   Zn988   1.970   .     S
O985   Zn988   1.982   .     S
O986   Zn987   1.982   .     S
C989   C992    1.421   .     S
C989   O1017   1.283   .     A
C989   O1019   1.284   .     A
C990   C992    1.398   .     A
C990   H1011   1.084   .     S
C991   C997    1.421   .     S
C991   C1003   1.397   .     A
C991   C1004   1.398   .     A
C992   C1002   1.397   .     A
C993   N1016   1.366   .     A
C993   H1012   1.082   .     S
C994   N1015   1.366   .     A
C994   H1013   1.082   .     S
C994   C312    1.417   1_556 S
C995   N1015   1.366   .     A
C995   H1014   1.082   .     S
C995   C309    1.417   1_556 S
C996   N1016   1.366   .     A
C996   H1006   1.082   .     S
C997   O1018   1.283   .     A
C997   O1020   1.284   .     A
C998   O1023   1.280   .     A
C998   C1000   1.403   .     S
C998   O1021   1.277   .     A
C999   C1001   1.403   .     S
C999   O1024   1.280   .     A
C999   O1022   1.277   .     A
C1001  C924    1.330   1_655 S
C1001  H931    1.088   1_655 S
C1002  H1008   1.084   .     S
C1003  H1009   1.084   .     S
C1003  C762    1.370   1_565 S
C1004  H1010   1.084   .     S
C1004  C774    1.370   1_565 S
H1005  C924    1.088   1_655 S
N1015  Zn1025  2.010   .     S
N1016  Zn1026  2.010   .     S
O1017  Zn1025  2.002   .     S
O1018  Zn1026  2.002   .     S
O1019  Zn1026  2.002   .     S
O1020  Zn1025  2.002   .     S
O1021  Zn1025  1.970   .     S
O1022  Zn1026  1.970   .     S
O1023  Zn1026  1.982   .     S
O1024  Zn1025  1.982   .     S
