data_str_m1_o5_o17_pcu_sym.85
_audit_creation_date              2020-01-03
_audit_creation_method            'Materials Studio'
_symmetry_space_group_name_H-M    'P1'
_symmetry_Int_Tables_number       1
_symmetry_cell_setting            triclinic
loop_
_symmetry_equiv_pos_as_xyz
  x,y,z
_cell_length_a                    31.7842
_cell_length_b                    31.7841
_cell_length_c                    34.4815
_cell_angle_alpha                 89.9997
_cell_angle_beta                  89.9998
_cell_angle_gamma                 89.9600
loop_
_atom_site_label
_atom_site_type_symbol
_atom_site_fract_x
_atom_site_fract_y
_atom_site_fract_z
_atom_site_U_iso_or_equiv
_atom_site_adp_type
_atom_site_occupancy
C1     C     0.25000  -0.00000   0.35594   0.00000  Uiso   1.00
C2     C     0.33002   0.41998   0.75000   0.00000  Uiso   1.00
C3     C     0.49067   0.17306   0.02044   0.00000  Uiso   1.00
C4     C     0.17304   0.00923   0.97956   0.00000  Uiso   1.00
C5     C     0.32676   0.48901   0.02040   0.00000  Uiso   1.00
C6     C     0.48893   0.17327   0.97960   0.00000  Uiso   1.00
C7     C     0.00932   0.32694   0.02044   0.00000  Uiso   1.00
C8     C     0.48058   0.13336   0.45834   0.00000  Uiso   1.00
C9     C     0.01538   0.36730   0.54149   0.00000  Uiso   1.00
C10    C     0.36730   0.01538   0.45851   0.00000  Uiso   1.00
C11    C     0.13336   0.48058   0.54166   0.00000  Uiso   1.00
C12    C     0.01942   0.36664   0.45834   0.00000  Uiso   1.00
C13    C     0.41998   0.16997   0.25000   0.00000  Uiso   1.00
C14    C     0.48462   0.13269   0.54149   0.00000  Uiso   1.00
C15    C     0.13270   0.48462   0.45851   0.00000  Uiso   1.00
C16    C     0.36664   0.01942   0.54166   0.00000  Uiso   1.00
C17    C     0.36757   0.48664   0.95844   0.00000  Uiso   1.00
C18    C     0.13297   0.01818   0.04142   0.00000  Uiso   1.00
C19    C     0.01827   0.36699   0.95858   0.00000  Uiso   1.00
C20    C     0.48646   0.13247   0.04156   0.00000  Uiso   1.00
C21    C     0.13243   0.01335   0.95844   0.00000  Uiso   1.00
C22    C     0.36703   0.48182   0.04142   0.00000  Uiso   1.00
C23    C     0.48172   0.13301   0.95859   0.00000  Uiso   1.00
C24    C     0.08002   0.33003   0.75000   0.00000  Uiso   1.00
C25    C     0.01352   0.36753   0.04156   0.00000  Uiso   1.00
C26    C     0.33002   0.41998   0.25000   0.00000  Uiso   1.00
C27    C     0.16998   0.08002   0.75000   0.00000  Uiso   1.00
C28    C     0.08002   0.33003   0.25000   0.00000  Uiso   1.00
C29    C     0.41998   0.16997   0.75000   0.00000  Uiso   1.00
C30    C     0.16997   0.41998   0.75000   0.00000  Uiso   1.00
C31    C     0.33003   0.08002   0.25000   0.00000  Uiso   1.00
C32    C     0.41998   0.33002   0.75000   0.00000  Uiso   1.00
C33    C     0.25000  -0.00000   0.64407   0.00000  Uiso   1.00
C34    C     0.08002   0.16998   0.25000   0.00000  Uiso   1.00
C35    C     0.33003   0.08002   0.75000   0.00000  Uiso   1.00
C36    C     0.16997   0.41998   0.25000   0.00000  Uiso   1.00
C37    C     0.08002   0.16998   0.75000   0.00000  Uiso   1.00
C38    C     0.41998   0.33002   0.25000   0.00000  Uiso   1.00
C39    C     0.13833   0.38833   0.25000   0.00000  Uiso   1.00
C40    C     0.36167   0.11167   0.75000   0.00000  Uiso   1.00
C41    C     0.11167   0.13833   0.25000   0.00000  Uiso   1.00
C42    C     0.38833   0.36167   0.75000   0.00000  Uiso   1.00
C43    C     0.36167   0.11167   0.25000   0.00000  Uiso   1.00
C44    C     0.00000   0.25000   0.35593   0.00000  Uiso   1.00
C45    C     0.13833   0.38833   0.75000   0.00000  Uiso   1.00
C46    C     0.38833   0.36167   0.25000   0.00000  Uiso   1.00
C47    C     0.11167   0.13833   0.75000   0.00000  Uiso   1.00
C48    C     0.13833   0.11167   0.75000   0.00000  Uiso   1.00
C49    C     0.36167   0.38833   0.25000   0.00000  Uiso   1.00
C50    C     0.11167   0.36167   0.75000   0.00000  Uiso   1.00
C51    C     0.38833   0.13833   0.25000   0.00000  Uiso   1.00
C52    C     0.36167   0.38833   0.75000   0.00000  Uiso   1.00
C53    C     0.13833   0.11167   0.25000   0.00000  Uiso   1.00
C54    C     0.38833   0.13833   0.75000   0.00000  Uiso   1.00
C55    C     0.00000   0.25000   0.64406   0.00000  Uiso   1.00
C56    C     0.11167   0.36167   0.25000   0.00000  Uiso   1.00
C57    C     0.00605   0.28746   0.41817   0.00000  Uiso   1.00
C58    C     0.49319   0.21266   0.58176   0.00000  Uiso   1.00
C59    C     0.21266   0.49319   0.41824   0.00000  Uiso   1.00
C60    C     0.28746   0.00606   0.58183   0.00000  Uiso   1.00
C61    C     0.49395   0.21254   0.41817   0.00000  Uiso   1.00
C62    C     0.00681   0.28734   0.58176   0.00000  Uiso   1.00
C63    C     0.28734   0.00681   0.41824   0.00000  Uiso   1.00
C64    C     0.21254   0.49395   0.58183   0.00000  Uiso   1.00
C65    C     0.21235   0.00498   0.91856   0.00000  Uiso   1.00
C66    C     0.00000   0.25000   0.85602   0.00000  Uiso   1.00
C67    C     0.28773   0.49558   0.08141   0.00000  Uiso   1.00
C68    C     0.49554   0.21228   0.91859   0.00000  Uiso   1.00
C69    C     0.00502   0.28764   0.08144   0.00000  Uiso   1.00
C70    C     0.28765   0.49502   0.91856   0.00000  Uiso   1.00
C71    C     0.21228   0.00443   0.08141   0.00000  Uiso   1.00
C72    C     0.00446   0.28772   0.91859   0.00000  Uiso   1.00
C73    C     0.49498   0.21236   0.08144   0.00000  Uiso   1.00
C74    C     0.00000   0.25000   0.39817   0.00000  Uiso   1.00
C75    C     0.00000   0.25000   0.60178   0.00000  Uiso   1.00
C76    C     0.25000  -0.00000   0.39822   0.00000  Uiso   1.00
C77    C     0.00000   0.25000   0.14399   0.00000  Uiso   1.00
C78    C     0.25000   0.00000   0.60183   0.00000  Uiso   1.00
C79    C     0.25000  -0.00000   0.89840   0.00000  Uiso   1.00
C80    C     0.25000   0.00000   0.10157   0.00000  Uiso   1.00
C81    C    -0.00000   0.25000   0.89843   0.00000  Uiso   1.00
C82    C    -0.00000   0.25000   0.10160   0.00000  Uiso   1.00
C83    C     0.49335   0.21179   0.45899   0.00000  Uiso   1.00
C84    C     0.00571   0.28836   0.54095   0.00000  Uiso   1.00
C85    C     0.28836   0.00571   0.45905   0.00000  Uiso   1.00
C86    C     0.21179   0.49335   0.54101   0.00000  Uiso   1.00
C87    C     0.00665   0.28821   0.45899   0.00000  Uiso   1.00
C88    C     0.25000  -0.00000   0.85601   0.00000  Uiso   1.00
C89    C     0.49429   0.21164   0.54095   0.00000  Uiso   1.00
C90    C     0.21164   0.49429   0.45905   0.00000  Uiso   1.00
C91    C     0.28821   0.00665   0.54101   0.00000  Uiso   1.00
C92    C     0.28854   0.49561   0.95919   0.00000  Uiso   1.00
C93    C     0.21160   0.00554   0.04078   0.00000  Uiso   1.00
C94    C     0.00556   0.28839   0.95922   0.00000  Uiso   1.00
C95    C     0.49556   0.21147   0.04081   0.00000  Uiso   1.00
C96    C     0.21146   0.00439   0.95919   0.00000  Uiso   1.00
C97    C     0.28841   0.49447   0.04078   0.00000  Uiso   1.00
C98    C     0.49443   0.21161   0.95922   0.00000  Uiso   1.00
C99    C     0.25000   0.00000   0.14398   0.00000  Uiso   1.00
C100   C     0.00443   0.28853   0.04081   0.00000  Uiso   1.00
C101   C     0.00000   0.25000   0.47953   0.00000  Uiso   1.00
C102   C     0.00000   0.25000   0.52041   0.00000  Uiso   1.00
C103   C     0.25000  -0.00000   0.47959   0.00000  Uiso   1.00
C104   C     0.25000  -0.00000   0.52047   0.00000  Uiso   1.00
C105   C     0.25000   0.00000   0.97963   0.00000  Uiso   1.00
C106   C     0.25000   0.00000   0.02034   0.00000  Uiso   1.00
C107   C    -0.00000   0.25000   0.97966   0.00000  Uiso   1.00
C108   C    -0.00000   0.25000   0.02037   0.00000  Uiso   1.00
C109   C     0.48739   0.17358   0.47948   0.00000  Uiso   1.00
C110   C     0.16998   0.08002   0.25000   0.00000  Uiso   1.00
C111   C     0.01110   0.32666   0.52044   0.00000  Uiso   1.00
C112   C     0.32666   0.01110   0.47956   0.00000  Uiso   1.00
C113   C     0.17358   0.48739   0.52052   0.00000  Uiso   1.00
C114   C     0.01261   0.32642   0.47948   0.00000  Uiso   1.00
C115   C     0.48890   0.17334   0.52044   0.00000  Uiso   1.00
C116   C     0.17334   0.48890   0.47956   0.00000  Uiso   1.00
C117   C     0.32642   0.01261   0.52052   0.00000  Uiso   1.00
C118   C     0.32696   0.49077   0.97956   0.00000  Uiso   1.00
C119   C     0.17325   0.01099   0.02040   0.00000  Uiso   1.00
C120   C     0.01106   0.32673   0.97960   0.00000  Uiso   1.00
H121   H     0.00974   0.31586   0.40123   0.00000  Uiso   1.00
H122   H     0.31654   0.49308   0.09788   0.00000  Uiso   1.00
H123   H     0.49302   0.18347   0.90212   0.00000  Uiso   1.00
H124   H     0.00984   0.31615   0.09793   0.00000  Uiso   1.00
H125   H     0.31617   0.49022   0.90206   0.00000  Uiso   1.00
H126   H     0.18346   0.00693   0.09788   0.00000  Uiso   1.00
H127   H     0.00698   0.31653   0.90212   0.00000  Uiso   1.00
H128   H     0.49016   0.18385   0.09794   0.00000  Uiso   1.00
H129   H     0.00029   0.07403   0.44820   0.00000  Uiso   1.00
H130   H     0.04944   0.41982   0.55049   0.00000  Uiso   1.00
H131   H     0.41982   0.04944   0.44950   0.00000  Uiso   1.00
H132   H     0.48719   0.18459   0.59862   0.00000  Uiso   1.00
H133   H     0.07403   0.00029   0.55180   0.00000  Uiso   1.00
H134   H     0.49971   0.42597   0.44820   0.00000  Uiso   1.00
H135   H     0.45056   0.08018   0.55050   0.00000  Uiso   1.00
H136   H     0.08018   0.45056   0.44951   0.00000  Uiso   1.00
H137   H     0.42597   0.49971   0.55180   0.00000  Uiso   1.00
H138   H     0.41890   0.45138   0.94744   0.00000  Uiso   1.00
H139   H     0.07334   0.49930   0.05110   0.00000  Uiso   1.00
H140   H     0.49945   0.42667   0.94892   0.00000  Uiso   1.00
H141   H     0.45105   0.08129   0.05261   0.00000  Uiso   1.00
H142   H     0.08110   0.04861   0.94743   0.00000  Uiso   1.00
H143   H     0.18460   0.48719   0.40138   0.00000  Uiso   1.00
H144   H     0.42667   0.00068   0.05109   0.00000  Uiso   1.00
H145   H     0.00054   0.07332   0.94892   0.00000  Uiso   1.00
H146   H     0.04891   0.41872   0.05260   0.00000  Uiso   1.00
H147   H     0.31586   0.00974   0.59876   0.00000  Uiso   1.00
H148   H     0.49026   0.18414   0.40124   0.00000  Uiso   1.00
H149   H     0.01281   0.31540   0.59862   0.00000  Uiso   1.00
H150   H     0.31540   0.01281   0.40138   0.00000  Uiso   1.00
H151   H     0.18414   0.49026   0.59876   0.00000  Uiso   1.00
H152   H     0.18383   0.00978   0.90206   0.00000  Uiso   1.00
O153   O     0.25000  -0.00000   0.25000   0.00000  Uiso   1.00
O154   O     0.25000   0.46538   0.66251   0.00000  Uiso   1.00
O155   O     0.46539   0.25000   0.33749   0.00000  Uiso   1.00
O156   O     0.03462   0.25000   0.66251   0.00000  Uiso   1.00
O157   O     0.00000   0.21538   0.83749   0.00000  Uiso   1.00
O158   O     0.00000   0.28461   0.16251   0.00000  Uiso   1.00
O159   O     0.28462  -0.00000   0.83749   0.00000  Uiso   1.00
O160   O     0.21539  -0.00000   0.16251   0.00000  Uiso   1.00
O161   O     0.00000   0.28462   0.83749   0.00000  Uiso   1.00
O162   O     0.00000   0.21538   0.16251   0.00000  Uiso   1.00
O163   O     0.21539  -0.00000   0.83749   0.00000  Uiso   1.00
O164   O     0.25000  -0.00000   0.75000   0.00000  Uiso   1.00
O165   O     0.28462  -0.00000   0.16251   0.00000  Uiso   1.00
O166   O     0.20127   0.08332   0.27298   0.00000  Uiso   1.00
O167   O     0.29874   0.41668   0.72702   0.00000  Uiso   1.00
O168   O     0.41668   0.20126   0.27298   0.00000  Uiso   1.00
O169   O     0.08332   0.29874   0.72702   0.00000  Uiso   1.00
O170   O     0.29874   0.41668   0.27298   0.00000  Uiso   1.00
O171   O     0.20127   0.08332   0.72702   0.00000  Uiso   1.00
O172   O     0.08332   0.29874   0.27298   0.00000  Uiso   1.00
O173   O     0.41668   0.20126   0.72702   0.00000  Uiso   1.00
O174   O     0.20127   0.41668   0.72702   0.00000  Uiso   1.00
O175   O     0.00000   0.25000   0.25000   0.00000  Uiso   1.00
O176   O     0.29874   0.08332   0.27298   0.00000  Uiso   1.00
O177   O     0.41668   0.29873   0.72702   0.00000  Uiso   1.00
O178   O     0.08332   0.20127   0.27298   0.00000  Uiso   1.00
O179   O     0.29874   0.08332   0.72702   0.00000  Uiso   1.00
O180   O     0.20127   0.41668   0.27298   0.00000  Uiso   1.00
O181   O     0.08332   0.20127   0.72702   0.00000  Uiso   1.00
O182   O     0.41668   0.29873   0.27298   0.00000  Uiso   1.00
O183   O     0.45127   0.33332   0.77298   0.00000  Uiso   1.00
O184   O     0.04874   0.16668   0.22702   0.00000  Uiso   1.00
O185   O     0.16668   0.45127   0.77298   0.00000  Uiso   1.00
O186   O     0.00000   0.25000   0.75000   0.00000  Uiso   1.00
O187   O     0.33332   0.04873   0.22702   0.00000  Uiso   1.00
O188   O     0.04874   0.16668   0.77298   0.00000  Uiso   1.00
O189   O     0.45127   0.33332   0.22702   0.00000  Uiso   1.00
O190   O     0.33332   0.04873   0.77298   0.00000  Uiso   1.00
O191   O     0.16668   0.45127   0.22702   0.00000  Uiso   1.00
O192   O     0.45127   0.16668   0.22702   0.00000  Uiso   1.00
O193   O     0.04874   0.33332   0.77298   0.00000  Uiso   1.00
O194   O     0.16668   0.04873   0.22702   0.00000  Uiso   1.00
O195   O     0.33332   0.45126   0.77298   0.00000  Uiso   1.00
O196   O     0.04874   0.33332   0.22702   0.00000  Uiso   1.00
O197   O     0.25000   0.46538   0.33749   0.00000  Uiso   1.00
O198   O     0.45127   0.16668   0.77298   0.00000  Uiso   1.00
O199   O     0.33332   0.45126   0.22702   0.00000  Uiso   1.00
O200   O     0.16668   0.04873   0.77298   0.00000  Uiso   1.00
O201   O     0.45039   0.12955   0.43664   0.00000  Uiso   1.00
O202   O     0.00834   0.09976   0.46391   0.00000  Uiso   1.00
O203   O     0.48763   0.37892   0.56361   0.00000  Uiso   1.00
O204   O     0.05064   0.39264   0.53516   0.00000  Uiso   1.00
O205   O     0.37892   0.48763   0.43639   0.00000  Uiso   1.00
O206   O     0.39264   0.05064   0.46484   0.00000  Uiso   1.00
O207   O     0.12955   0.45039   0.56336   0.00000  Uiso   1.00
O208   O     0.25000   0.03461   0.66251   0.00000  Uiso   1.00
O209   O     0.09976   0.00834   0.53609   0.00000  Uiso   1.00
O210   O     0.04961   0.37045   0.43664   0.00000  Uiso   1.00
O211   O     0.49166   0.40024   0.46391   0.00000  Uiso   1.00
O212   O     0.01238   0.12108   0.56361   0.00000  Uiso   1.00
O213   O     0.44936   0.10735   0.53516   0.00000  Uiso   1.00
O214   O     0.12108   0.01237   0.43639   0.00000  Uiso   1.00
O215   O     0.10736   0.44936   0.46484   0.00000  Uiso   1.00
O216   O     0.37045   0.04961   0.56335   0.00000  Uiso   1.00
O217   O     0.40024   0.49166   0.53609   0.00000  Uiso   1.00
O218   O     0.37982   0.01520   0.93754   0.00000  Uiso   1.00
O219   O     0.03462   0.25000   0.33749   0.00000  Uiso   1.00
O220   O     0.39197   0.45041   0.96316   0.00000  Uiso   1.00
O221   O     0.12925   0.04848   0.06301   0.00000  Uiso   1.00
O222   O     0.09914   0.49080   0.03568   0.00000  Uiso   1.00
O223   O     0.04857   0.37065   0.93698   0.00000  Uiso   1.00
O224   O     0.49093   0.40089   0.96434   0.00000  Uiso   1.00
O225   O     0.01501   0.12010   0.06243   0.00000  Uiso   1.00
O226   O     0.45014   0.10822   0.03689   0.00000  Uiso   1.00
O227   O     0.12018   0.48478   0.93755   0.00000  Uiso   1.00
O228   O     0.10803   0.04959   0.96314   0.00000  Uiso   1.00
O229   O     0.37075   0.45152   0.06301   0.00000  Uiso   1.00
O230   O     0.46539   0.25000   0.66251   0.00000  Uiso   1.00
O231   O     0.40087   0.00919   0.03567   0.00000  Uiso   1.00
O232   O     0.45142   0.12935   0.93698   0.00000  Uiso   1.00
O233   O     0.00905   0.09911   0.96434   0.00000  Uiso   1.00
O234   O     0.48497   0.37989   0.06244   0.00000  Uiso   1.00
O235   O     0.04982   0.39180   0.03687   0.00000  Uiso   1.00
O236   O     0.25000   0.03461   0.33749   0.00000  Uiso   1.00
Zn237  Zn    0.20053  -0.00000   0.21730   0.00000  Uiso   1.00
Zn238  Zn    0.04948   0.25000   0.28270   0.00000  Uiso   1.00
Zn239  Zn    0.25000   0.45052   0.71730   0.00000  Uiso   1.00
Zn240  Zn    0.25000   0.04947   0.28270   0.00000  Uiso   1.00
Zn241  Zn    0.04948   0.25000   0.71730   0.00000  Uiso   1.00
Zn242  Zn    0.45053   0.25000   0.28270   0.00000  Uiso   1.00
Zn243  Zn    0.25000   0.04947   0.71730   0.00000  Uiso   1.00
Zn244  Zn    0.25000   0.45052   0.28270   0.00000  Uiso   1.00
Zn245  Zn    0.29948  -0.00000   0.78270   0.00000  Uiso   1.00
Zn246  Zn    0.00000   0.20052   0.21730   0.00000  Uiso   1.00
Zn247  Zn    0.00000   0.29947   0.78270   0.00000  Uiso   1.00
Zn248  Zn    0.29948  -0.00000   0.21730   0.00000  Uiso   1.00
Zn249  Zn    0.20053  -0.00000   0.78270   0.00000  Uiso   1.00
Zn250  Zn    0.00000   0.29947   0.21730   0.00000  Uiso   1.00
Zn251  Zn    0.00000   0.20052   0.78270   0.00000  Uiso   1.00
Zn252  Zn    0.45053   0.25000   0.71730   0.00000  Uiso   1.00
C253   C     0.75000  -0.00000   0.35594   0.00000  Uiso   1.00
C254   C     0.83002   0.41998   0.75000   0.00000  Uiso   1.00
C255   C     0.99067   0.17306   0.02044   0.00000  Uiso   1.00
C256   C     0.67304   0.00923   0.97956   0.00000  Uiso   1.00
C257   C     0.82676   0.48901   0.02040   0.00000  Uiso   1.00
C258   C     0.98893   0.17327   0.97960   0.00000  Uiso   1.00
C259   C     0.50932   0.32694   0.02044   0.00000  Uiso   1.00
C260   C     0.98058   0.13336   0.45834   0.00000  Uiso   1.00
C261   C     0.51538   0.36730   0.54149   0.00000  Uiso   1.00
C262   C     0.86730   0.01538   0.45851   0.00000  Uiso   1.00
C263   C     0.63336   0.48058   0.54166   0.00000  Uiso   1.00
C264   C     0.51942   0.36664   0.45834   0.00000  Uiso   1.00
C265   C     0.91998   0.16997   0.25000   0.00000  Uiso   1.00
C266   C     0.98462   0.13269   0.54149   0.00000  Uiso   1.00
C267   C     0.63270   0.48462   0.45851   0.00000  Uiso   1.00
C268   C     0.86664   0.01942   0.54166   0.00000  Uiso   1.00
C269   C     0.86757   0.48664   0.95844   0.00000  Uiso   1.00
C270   C     0.63297   0.01818   0.04142   0.00000  Uiso   1.00
C271   C     0.51827   0.36699   0.95858   0.00000  Uiso   1.00
C272   C     0.98646   0.13247   0.04156   0.00000  Uiso   1.00
C273   C     0.63243   0.01335   0.95844   0.00000  Uiso   1.00
C274   C     0.86703   0.48182   0.04142   0.00000  Uiso   1.00
C275   C     0.98172   0.13301   0.95859   0.00000  Uiso   1.00
C276   C     0.58002   0.33003   0.75000   0.00000  Uiso   1.00
C277   C     0.51352   0.36753   0.04156   0.00000  Uiso   1.00
C278   C     0.83002   0.41998   0.25000   0.00000  Uiso   1.00
C279   C     0.66998   0.08002   0.75000   0.00000  Uiso   1.00
C280   C     0.58002   0.33003   0.25000   0.00000  Uiso   1.00
C281   C     0.91998   0.16997   0.75000   0.00000  Uiso   1.00
C282   C     0.66997   0.41998   0.75000   0.00000  Uiso   1.00
C283   C     0.83003   0.08002   0.25000   0.00000  Uiso   1.00
C284   C     0.91998   0.33002   0.75000   0.00000  Uiso   1.00
C285   C     0.75000  -0.00000   0.64407   0.00000  Uiso   1.00
C286   C     0.58002   0.16998   0.25000   0.00000  Uiso   1.00
C287   C     0.83003   0.08002   0.75000   0.00000  Uiso   1.00
C288   C     0.66997   0.41998   0.25000   0.00000  Uiso   1.00
C289   C     0.58002   0.16998   0.75000   0.00000  Uiso   1.00
C290   C     0.91998   0.33002   0.25000   0.00000  Uiso   1.00
C291   C     0.63833   0.38833   0.25000   0.00000  Uiso   1.00
C292   C     0.86167   0.11167   0.75000   0.00000  Uiso   1.00
C293   C     0.61167   0.13833   0.25000   0.00000  Uiso   1.00
C294   C     0.88833   0.36167   0.75000   0.00000  Uiso   1.00
C295   C     0.86167   0.11167   0.25000   0.00000  Uiso   1.00
C296   C     0.50000   0.25000   0.35593   0.00000  Uiso   1.00
C297   C     0.63833   0.38833   0.75000   0.00000  Uiso   1.00
C298   C     0.88833   0.36167   0.25000   0.00000  Uiso   1.00
C299   C     0.61167   0.13833   0.75000   0.00000  Uiso   1.00
C300   C     0.63833   0.11167   0.75000   0.00000  Uiso   1.00
C301   C     0.86167   0.38833   0.25000   0.00000  Uiso   1.00
C302   C     0.61167   0.36167   0.75000   0.00000  Uiso   1.00
C303   C     0.88833   0.13833   0.25000   0.00000  Uiso   1.00
C304   C     0.86167   0.38833   0.75000   0.00000  Uiso   1.00
C305   C     0.63833   0.11167   0.25000   0.00000  Uiso   1.00
C306   C     0.88833   0.13833   0.75000   0.00000  Uiso   1.00
C307   C     0.50000   0.25000   0.64406   0.00000  Uiso   1.00
C308   C     0.61167   0.36167   0.25000   0.00000  Uiso   1.00
C309   C     0.50605   0.28746   0.41817   0.00000  Uiso   1.00
C310   C     0.99319   0.21266   0.58176   0.00000  Uiso   1.00
C311   C     0.71266   0.49319   0.41824   0.00000  Uiso   1.00
C312   C     0.78746   0.00606   0.58183   0.00000  Uiso   1.00
C313   C     0.99395   0.21254   0.41817   0.00000  Uiso   1.00
C314   C     0.50681   0.28734   0.58176   0.00000  Uiso   1.00
C315   C     0.78734   0.00681   0.41824   0.00000  Uiso   1.00
C316   C     0.71254   0.49395   0.58183   0.00000  Uiso   1.00
C317   C     0.71235   0.00498   0.91856   0.00000  Uiso   1.00
C318   C     0.50000   0.25000   0.85602   0.00000  Uiso   1.00
C319   C     0.78773   0.49558   0.08141   0.00000  Uiso   1.00
C320   C     0.99554   0.21228   0.91859   0.00000  Uiso   1.00
C321   C     0.50502   0.28764   0.08144   0.00000  Uiso   1.00
C322   C     0.78765   0.49502   0.91856   0.00000  Uiso   1.00
C323   C     0.71228   0.00443   0.08141   0.00000  Uiso   1.00
C324   C     0.50446   0.28772   0.91859   0.00000  Uiso   1.00
C325   C     0.99498   0.21236   0.08144   0.00000  Uiso   1.00
C326   C     0.50000   0.25000   0.39817   0.00000  Uiso   1.00
C327   C     0.50000   0.25000   0.60178   0.00000  Uiso   1.00
C328   C     0.75000  -0.00000   0.39822   0.00000  Uiso   1.00
C329   C     0.50000   0.25000   0.14399   0.00000  Uiso   1.00
C330   C     0.75000   0.00000   0.60183   0.00000  Uiso   1.00
C331   C     0.75000  -0.00000   0.89840   0.00000  Uiso   1.00
C332   C     0.75000   0.00000   0.10157   0.00000  Uiso   1.00
C333   C     0.50000   0.25000   0.89843   0.00000  Uiso   1.00
C334   C     0.50000   0.25000   0.10160   0.00000  Uiso   1.00
C335   C     0.99335   0.21179   0.45899   0.00000  Uiso   1.00
C336   C     0.50571   0.28836   0.54095   0.00000  Uiso   1.00
C337   C     0.78836   0.00571   0.45905   0.00000  Uiso   1.00
C338   C     0.71179   0.49335   0.54101   0.00000  Uiso   1.00
C339   C     0.50665   0.28821   0.45899   0.00000  Uiso   1.00
C340   C     0.75000  -0.00000   0.85601   0.00000  Uiso   1.00
C341   C     0.99429   0.21164   0.54095   0.00000  Uiso   1.00
C342   C     0.71164   0.49429   0.45905   0.00000  Uiso   1.00
C343   C     0.78821   0.00665   0.54101   0.00000  Uiso   1.00
C344   C     0.78854   0.49561   0.95919   0.00000  Uiso   1.00
C345   C     0.71160   0.00554   0.04078   0.00000  Uiso   1.00
C346   C     0.50556   0.28839   0.95922   0.00000  Uiso   1.00
C347   C     0.99556   0.21147   0.04081   0.00000  Uiso   1.00
C348   C     0.71146   0.00439   0.95919   0.00000  Uiso   1.00
C349   C     0.78841   0.49447   0.04078   0.00000  Uiso   1.00
C350   C     0.99443   0.21161   0.95922   0.00000  Uiso   1.00
C351   C     0.75000   0.00000   0.14398   0.00000  Uiso   1.00
C352   C     0.50443   0.28853   0.04081   0.00000  Uiso   1.00
C353   C     0.50000   0.25000   0.47953   0.00000  Uiso   1.00
C354   C     0.50000   0.25000   0.52041   0.00000  Uiso   1.00
C355   C     0.75000  -0.00000   0.47959   0.00000  Uiso   1.00
C356   C     0.75000  -0.00000   0.52047   0.00000  Uiso   1.00
C357   C     0.75000   0.00000   0.97963   0.00000  Uiso   1.00
C358   C     0.75000   0.00000   0.02034   0.00000  Uiso   1.00
C359   C     0.50000   0.25000   0.97966   0.00000  Uiso   1.00
C360   C     0.50000   0.25000   0.02037   0.00000  Uiso   1.00
C361   C     0.98739   0.17358   0.47948   0.00000  Uiso   1.00
C362   C     0.66998   0.08002   0.25000   0.00000  Uiso   1.00
C363   C     0.51110   0.32666   0.52044   0.00000  Uiso   1.00
C364   C     0.82666   0.01110   0.47956   0.00000  Uiso   1.00
C365   C     0.67358   0.48739   0.52052   0.00000  Uiso   1.00
C366   C     0.51261   0.32642   0.47948   0.00000  Uiso   1.00
C367   C     0.98890   0.17334   0.52044   0.00000  Uiso   1.00
C368   C     0.67334   0.48890   0.47956   0.00000  Uiso   1.00
C369   C     0.82642   0.01261   0.52052   0.00000  Uiso   1.00
C370   C     0.82696   0.49077   0.97956   0.00000  Uiso   1.00
C371   C     0.67325   0.01099   0.02040   0.00000  Uiso   1.00
C372   C     0.51106   0.32673   0.97960   0.00000  Uiso   1.00
H373   H     0.50974   0.31586   0.40123   0.00000  Uiso   1.00
H374   H     0.81654   0.49308   0.09788   0.00000  Uiso   1.00
H375   H     0.99302   0.18347   0.90212   0.00000  Uiso   1.00
H376   H     0.50984   0.31615   0.09793   0.00000  Uiso   1.00
H377   H     0.81617   0.49022   0.90206   0.00000  Uiso   1.00
H378   H     0.68346   0.00693   0.09788   0.00000  Uiso   1.00
H379   H     0.50698   0.31653   0.90212   0.00000  Uiso   1.00
H380   H     0.99016   0.18385   0.09794   0.00000  Uiso   1.00
H381   H     0.50029   0.07403   0.44820   0.00000  Uiso   1.00
H382   H     0.54944   0.41982   0.55049   0.00000  Uiso   1.00
H383   H     0.91982   0.04944   0.44950   0.00000  Uiso   1.00
H384   H     0.98719   0.18459   0.59862   0.00000  Uiso   1.00
H385   H     0.57403   0.00029   0.55180   0.00000  Uiso   1.00
H386   H     0.99971   0.42597   0.44820   0.00000  Uiso   1.00
H387   H     0.95056   0.08018   0.55050   0.00000  Uiso   1.00
H388   H     0.58018   0.45056   0.44951   0.00000  Uiso   1.00
H389   H     0.92597   0.49971   0.55180   0.00000  Uiso   1.00
H390   H     0.91890   0.45138   0.94744   0.00000  Uiso   1.00
H391   H     0.57334   0.49930   0.05110   0.00000  Uiso   1.00
H392   H     0.99945   0.42667   0.94892   0.00000  Uiso   1.00
H393   H     0.95105   0.08129   0.05261   0.00000  Uiso   1.00
H394   H     0.58110   0.04861   0.94743   0.00000  Uiso   1.00
H395   H     0.68460   0.48719   0.40138   0.00000  Uiso   1.00
H396   H     0.92667   0.00068   0.05109   0.00000  Uiso   1.00
H397   H     0.50054   0.07332   0.94892   0.00000  Uiso   1.00
H398   H     0.54891   0.41872   0.05260   0.00000  Uiso   1.00
H399   H     0.81586   0.00974   0.59876   0.00000  Uiso   1.00
H400   H     0.99026   0.18414   0.40124   0.00000  Uiso   1.00
H401   H     0.51281   0.31540   0.59862   0.00000  Uiso   1.00
H402   H     0.81540   0.01281   0.40138   0.00000  Uiso   1.00
H403   H     0.68414   0.49026   0.59876   0.00000  Uiso   1.00
H404   H     0.68383   0.00978   0.90206   0.00000  Uiso   1.00
O405   O     0.75000  -0.00000   0.25000   0.00000  Uiso   1.00
O406   O     0.75000   0.46538   0.66251   0.00000  Uiso   1.00
O407   O     0.96539   0.25000   0.33749   0.00000  Uiso   1.00
O408   O     0.53462   0.25000   0.66251   0.00000  Uiso   1.00
O409   O     0.50000   0.21538   0.83749   0.00000  Uiso   1.00
O410   O     0.50000   0.28461   0.16251   0.00000  Uiso   1.00
O411   O     0.78462  -0.00000   0.83749   0.00000  Uiso   1.00
O412   O     0.71539  -0.00000   0.16251   0.00000  Uiso   1.00
O413   O     0.50000   0.28462   0.83749   0.00000  Uiso   1.00
O414   O     0.50000   0.21538   0.16251   0.00000  Uiso   1.00
O415   O     0.71539  -0.00000   0.83749   0.00000  Uiso   1.00
O416   O     0.75000  -0.00000   0.75000   0.00000  Uiso   1.00
O417   O     0.78462  -0.00000   0.16251   0.00000  Uiso   1.00
O418   O     0.70127   0.08332   0.27298   0.00000  Uiso   1.00
O419   O     0.79874   0.41668   0.72702   0.00000  Uiso   1.00
O420   O     0.91668   0.20126   0.27298   0.00000  Uiso   1.00
O421   O     0.58332   0.29874   0.72702   0.00000  Uiso   1.00
O422   O     0.79874   0.41668   0.27298   0.00000  Uiso   1.00
O423   O     0.70127   0.08332   0.72702   0.00000  Uiso   1.00
O424   O     0.58332   0.29874   0.27298   0.00000  Uiso   1.00
O425   O     0.91668   0.20126   0.72702   0.00000  Uiso   1.00
O426   O     0.70127   0.41668   0.72702   0.00000  Uiso   1.00
O427   O     0.50000   0.25000   0.25000   0.00000  Uiso   1.00
O428   O     0.79874   0.08332   0.27298   0.00000  Uiso   1.00
O429   O     0.91668   0.29873   0.72702   0.00000  Uiso   1.00
O430   O     0.58332   0.20127   0.27298   0.00000  Uiso   1.00
O431   O     0.79874   0.08332   0.72702   0.00000  Uiso   1.00
O432   O     0.70127   0.41668   0.27298   0.00000  Uiso   1.00
O433   O     0.58332   0.20127   0.72702   0.00000  Uiso   1.00
O434   O     0.91668   0.29873   0.27298   0.00000  Uiso   1.00
O435   O     0.95127   0.33332   0.77298   0.00000  Uiso   1.00
O436   O     0.54874   0.16668   0.22702   0.00000  Uiso   1.00
O437   O     0.66668   0.45127   0.77298   0.00000  Uiso   1.00
O438   O     0.50000   0.25000   0.75000   0.00000  Uiso   1.00
O439   O     0.83332   0.04873   0.22702   0.00000  Uiso   1.00
O440   O     0.54874   0.16668   0.77298   0.00000  Uiso   1.00
O441   O     0.95127   0.33332   0.22702   0.00000  Uiso   1.00
O442   O     0.83332   0.04873   0.77298   0.00000  Uiso   1.00
O443   O     0.66668   0.45127   0.22702   0.00000  Uiso   1.00
O444   O     0.95127   0.16668   0.22702   0.00000  Uiso   1.00
O445   O     0.54874   0.33332   0.77298   0.00000  Uiso   1.00
O446   O     0.66668   0.04873   0.22702   0.00000  Uiso   1.00
O447   O     0.83332   0.45126   0.77298   0.00000  Uiso   1.00
O448   O     0.54874   0.33332   0.22702   0.00000  Uiso   1.00
O449   O     0.75000   0.46538   0.33749   0.00000  Uiso   1.00
O450   O     0.95127   0.16668   0.77298   0.00000  Uiso   1.00
O451   O     0.83332   0.45126   0.22702   0.00000  Uiso   1.00
O452   O     0.66668   0.04873   0.77298   0.00000  Uiso   1.00
O453   O     0.95039   0.12955   0.43664   0.00000  Uiso   1.00
O454   O     0.50834   0.09976   0.46391   0.00000  Uiso   1.00
O455   O     0.98763   0.37892   0.56361   0.00000  Uiso   1.00
O456   O     0.55064   0.39264   0.53516   0.00000  Uiso   1.00
O457   O     0.87892   0.48763   0.43639   0.00000  Uiso   1.00
O458   O     0.89264   0.05064   0.46484   0.00000  Uiso   1.00
O459   O     0.62955   0.45039   0.56336   0.00000  Uiso   1.00
O460   O     0.75000   0.03461   0.66251   0.00000  Uiso   1.00
O461   O     0.59976   0.00834   0.53609   0.00000  Uiso   1.00
O462   O     0.54961   0.37045   0.43664   0.00000  Uiso   1.00
O463   O     0.99166   0.40024   0.46391   0.00000  Uiso   1.00
O464   O     0.51238   0.12108   0.56361   0.00000  Uiso   1.00
O465   O     0.94936   0.10735   0.53516   0.00000  Uiso   1.00
O466   O     0.62108   0.01237   0.43639   0.00000  Uiso   1.00
O467   O     0.60736   0.44936   0.46484   0.00000  Uiso   1.00
O468   O     0.87045   0.04961   0.56335   0.00000  Uiso   1.00
O469   O     0.90024   0.49166   0.53609   0.00000  Uiso   1.00
O470   O     0.87982   0.01520   0.93754   0.00000  Uiso   1.00
O471   O     0.53462   0.25000   0.33749   0.00000  Uiso   1.00
O472   O     0.89197   0.45041   0.96316   0.00000  Uiso   1.00
O473   O     0.62925   0.04848   0.06301   0.00000  Uiso   1.00
O474   O     0.59914   0.49080   0.03568   0.00000  Uiso   1.00
O475   O     0.54857   0.37065   0.93698   0.00000  Uiso   1.00
O476   O     0.99093   0.40089   0.96434   0.00000  Uiso   1.00
O477   O     0.51501   0.12010   0.06243   0.00000  Uiso   1.00
O478   O     0.95014   0.10822   0.03689   0.00000  Uiso   1.00
O479   O     0.62018   0.48478   0.93755   0.00000  Uiso   1.00
O480   O     0.60803   0.04959   0.96314   0.00000  Uiso   1.00
O481   O     0.87075   0.45152   0.06301   0.00000  Uiso   1.00
O482   O     0.96539   0.25000   0.66251   0.00000  Uiso   1.00
O483   O     0.90087   0.00919   0.03567   0.00000  Uiso   1.00
O484   O     0.95142   0.12935   0.93698   0.00000  Uiso   1.00
O485   O     0.50905   0.09911   0.96434   0.00000  Uiso   1.00
O486   O     0.98497   0.37989   0.06244   0.00000  Uiso   1.00
O487   O     0.54982   0.39180   0.03687   0.00000  Uiso   1.00
O488   O     0.75000   0.03461   0.33749   0.00000  Uiso   1.00
Zn489  Zn    0.70053  -0.00000   0.21730   0.00000  Uiso   1.00
Zn490  Zn    0.54948   0.25000   0.28270   0.00000  Uiso   1.00
Zn491  Zn    0.75000   0.45052   0.71730   0.00000  Uiso   1.00
Zn492  Zn    0.75000   0.04947   0.28270   0.00000  Uiso   1.00
Zn493  Zn    0.54948   0.25000   0.71730   0.00000  Uiso   1.00
Zn494  Zn    0.95053   0.25000   0.28270   0.00000  Uiso   1.00
Zn495  Zn    0.75000   0.04947   0.71730   0.00000  Uiso   1.00
Zn496  Zn    0.75000   0.45052   0.28270   0.00000  Uiso   1.00
Zn497  Zn    0.79948  -0.00000   0.78270   0.00000  Uiso   1.00
Zn498  Zn    0.50000   0.20052   0.21730   0.00000  Uiso   1.00
Zn499  Zn    0.50000   0.29947   0.78270   0.00000  Uiso   1.00
Zn500  Zn    0.79948  -0.00000   0.21730   0.00000  Uiso   1.00
Zn501  Zn    0.70053  -0.00000   0.78270   0.00000  Uiso   1.00
Zn502  Zn    0.50000   0.29947   0.21730   0.00000  Uiso   1.00
Zn503  Zn    0.50000   0.20052   0.78270   0.00000  Uiso   1.00
Zn504  Zn    0.95053   0.25000   0.71730   0.00000  Uiso   1.00
C505   C     0.25000   0.50000   0.35594   0.00000  Uiso   1.00
C506   C     0.33002   0.91998   0.75000   0.00000  Uiso   1.00
C507   C     0.49067   0.67306   0.02044   0.00000  Uiso   1.00
C508   C     0.17304   0.50923   0.97956   0.00000  Uiso   1.00
C509   C     0.32676   0.98901   0.02040   0.00000  Uiso   1.00
C510   C     0.48893   0.67327   0.97960   0.00000  Uiso   1.00
C511   C     0.00932   0.82694   0.02044   0.00000  Uiso   1.00
C512   C     0.48058   0.63336   0.45834   0.00000  Uiso   1.00
C513   C     0.01538   0.86730   0.54149   0.00000  Uiso   1.00
C514   C     0.36730   0.51538   0.45851   0.00000  Uiso   1.00
C515   C     0.13336   0.98058   0.54166   0.00000  Uiso   1.00
C516   C     0.01942   0.86664   0.45834   0.00000  Uiso   1.00
C517   C     0.41998   0.66997   0.25000   0.00000  Uiso   1.00
C518   C     0.48462   0.63269   0.54149   0.00000  Uiso   1.00
C519   C     0.13270   0.98462   0.45851   0.00000  Uiso   1.00
C520   C     0.36664   0.51942   0.54166   0.00000  Uiso   1.00
C521   C     0.36757   0.98664   0.95844   0.00000  Uiso   1.00
C522   C     0.13297   0.51818   0.04142   0.00000  Uiso   1.00
C523   C     0.01827   0.86699   0.95858   0.00000  Uiso   1.00
C524   C     0.48646   0.63247   0.04156   0.00000  Uiso   1.00
C525   C     0.13243   0.51335   0.95844   0.00000  Uiso   1.00
C526   C     0.36703   0.98182   0.04142   0.00000  Uiso   1.00
C527   C     0.48172   0.63301   0.95859   0.00000  Uiso   1.00
C528   C     0.08002   0.83003   0.75000   0.00000  Uiso   1.00
C529   C     0.01352   0.86753   0.04156   0.00000  Uiso   1.00
C530   C     0.33002   0.91998   0.25000   0.00000  Uiso   1.00
C531   C     0.16998   0.58002   0.75000   0.00000  Uiso   1.00
C532   C     0.08002   0.83003   0.25000   0.00000  Uiso   1.00
C533   C     0.41998   0.66997   0.75000   0.00000  Uiso   1.00
C534   C     0.16997   0.91998   0.75000   0.00000  Uiso   1.00
C535   C     0.33003   0.58002   0.25000   0.00000  Uiso   1.00
C536   C     0.41998   0.83002   0.75000   0.00000  Uiso   1.00
C537   C     0.25000   0.50000   0.64407   0.00000  Uiso   1.00
C538   C     0.08002   0.66998   0.25000   0.00000  Uiso   1.00
C539   C     0.33003   0.58002   0.75000   0.00000  Uiso   1.00
C540   C     0.16997   0.91998   0.25000   0.00000  Uiso   1.00
C541   C     0.08002   0.66998   0.75000   0.00000  Uiso   1.00
C542   C     0.41998   0.83002   0.25000   0.00000  Uiso   1.00
C543   C     0.13833   0.88833   0.25000   0.00000  Uiso   1.00
C544   C     0.36167   0.61167   0.75000   0.00000  Uiso   1.00
C545   C     0.11167   0.63833   0.25000   0.00000  Uiso   1.00
C546   C     0.38833   0.86167   0.75000   0.00000  Uiso   1.00
C547   C     0.36167   0.61167   0.25000   0.00000  Uiso   1.00
C548   C     0.00000   0.75000   0.35593   0.00000  Uiso   1.00
C549   C     0.13833   0.88833   0.75000   0.00000  Uiso   1.00
C550   C     0.38833   0.86167   0.25000   0.00000  Uiso   1.00
C551   C     0.11167   0.63833   0.75000   0.00000  Uiso   1.00
C552   C     0.13833   0.61167   0.75000   0.00000  Uiso   1.00
C553   C     0.36167   0.88833   0.25000   0.00000  Uiso   1.00
C554   C     0.11167   0.86167   0.75000   0.00000  Uiso   1.00
C555   C     0.38833   0.63833   0.25000   0.00000  Uiso   1.00
C556   C     0.36167   0.88833   0.75000   0.00000  Uiso   1.00
C557   C     0.13833   0.61167   0.25000   0.00000  Uiso   1.00
C558   C     0.38833   0.63833   0.75000   0.00000  Uiso   1.00
C559   C     0.00000   0.75000   0.64406   0.00000  Uiso   1.00
C560   C     0.11167   0.86167   0.25000   0.00000  Uiso   1.00
C561   C     0.00605   0.78746   0.41817   0.00000  Uiso   1.00
C562   C     0.49319   0.71266   0.58176   0.00000  Uiso   1.00
C563   C     0.21266   0.99319   0.41824   0.00000  Uiso   1.00
C564   C     0.28746   0.50606   0.58183   0.00000  Uiso   1.00
C565   C     0.49395   0.71254   0.41817   0.00000  Uiso   1.00
C566   C     0.00681   0.78734   0.58176   0.00000  Uiso   1.00
C567   C     0.28734   0.50681   0.41824   0.00000  Uiso   1.00
C568   C     0.21254   0.99395   0.58183   0.00000  Uiso   1.00
C569   C     0.21235   0.50498   0.91856   0.00000  Uiso   1.00
C570   C     0.00000   0.75000   0.85602   0.00000  Uiso   1.00
C571   C     0.28773   0.99558   0.08141   0.00000  Uiso   1.00
C572   C     0.49554   0.71228   0.91859   0.00000  Uiso   1.00
C573   C     0.00502   0.78764   0.08144   0.00000  Uiso   1.00
C574   C     0.28765   0.99502   0.91856   0.00000  Uiso   1.00
C575   C     0.21228   0.50443   0.08141   0.00000  Uiso   1.00
C576   C     0.00446   0.78772   0.91859   0.00000  Uiso   1.00
C577   C     0.49498   0.71236   0.08144   0.00000  Uiso   1.00
C578   C     0.00000   0.75000   0.39817   0.00000  Uiso   1.00
C579   C     0.00000   0.75000   0.60178   0.00000  Uiso   1.00
C580   C     0.25000   0.50000   0.39822   0.00000  Uiso   1.00
C581   C     0.00000   0.75000   0.14399   0.00000  Uiso   1.00
C582   C     0.25000   0.50000   0.60183   0.00000  Uiso   1.00
C583   C     0.25000   0.50000   0.89840   0.00000  Uiso   1.00
C584   C     0.25000   0.50000   0.10157   0.00000  Uiso   1.00
C585   C    -0.00000   0.75000   0.89843   0.00000  Uiso   1.00
C586   C    -0.00000   0.75000   0.10160   0.00000  Uiso   1.00
C587   C     0.49335   0.71179   0.45899   0.00000  Uiso   1.00
C588   C     0.00571   0.78836   0.54095   0.00000  Uiso   1.00
C589   C     0.28836   0.50571   0.45905   0.00000  Uiso   1.00
C590   C     0.21179   0.99335   0.54101   0.00000  Uiso   1.00
C591   C     0.00665   0.78821   0.45899   0.00000  Uiso   1.00
C592   C     0.25000   0.50000   0.85601   0.00000  Uiso   1.00
C593   C     0.49429   0.71164   0.54095   0.00000  Uiso   1.00
C594   C     0.21164   0.99429   0.45905   0.00000  Uiso   1.00
C595   C     0.28821   0.50665   0.54101   0.00000  Uiso   1.00
C596   C     0.28854   0.99561   0.95919   0.00000  Uiso   1.00
C597   C     0.21160   0.50554   0.04078   0.00000  Uiso   1.00
C598   C     0.00556   0.78839   0.95922   0.00000  Uiso   1.00
C599   C     0.49556   0.71147   0.04081   0.00000  Uiso   1.00
C600   C     0.21146   0.50439   0.95919   0.00000  Uiso   1.00
C601   C     0.28841   0.99447   0.04078   0.00000  Uiso   1.00
C602   C     0.49443   0.71161   0.95922   0.00000  Uiso   1.00
C603   C     0.25000   0.50000   0.14398   0.00000  Uiso   1.00
C604   C     0.00443   0.78853   0.04081   0.00000  Uiso   1.00
C605   C     0.00000   0.75000   0.47953   0.00000  Uiso   1.00
C606   C     0.00000   0.75000   0.52041   0.00000  Uiso   1.00
C607   C     0.25000   0.50000   0.47959   0.00000  Uiso   1.00
C608   C     0.25000   0.50000   0.52047   0.00000  Uiso   1.00
C609   C     0.25000   0.50000   0.97963   0.00000  Uiso   1.00
C610   C     0.25000   0.50000   0.02034   0.00000  Uiso   1.00
C611   C    -0.00000   0.75000   0.97966   0.00000  Uiso   1.00
C612   C    -0.00000   0.75000   0.02037   0.00000  Uiso   1.00
C613   C     0.48739   0.67358   0.47948   0.00000  Uiso   1.00
C614   C     0.16998   0.58002   0.25000   0.00000  Uiso   1.00
C615   C     0.01110   0.82666   0.52044   0.00000  Uiso   1.00
C616   C     0.32666   0.51110   0.47956   0.00000  Uiso   1.00
C617   C     0.17358   0.98739   0.52052   0.00000  Uiso   1.00
C618   C     0.01261   0.82642   0.47948   0.00000  Uiso   1.00
C619   C     0.48890   0.67334   0.52044   0.00000  Uiso   1.00
C620   C     0.17334   0.98890   0.47956   0.00000  Uiso   1.00
C621   C     0.32642   0.51261   0.52052   0.00000  Uiso   1.00
C622   C     0.32696   0.99077   0.97956   0.00000  Uiso   1.00
C623   C     0.17325   0.51099   0.02040   0.00000  Uiso   1.00
C624   C     0.01106   0.82673   0.97960   0.00000  Uiso   1.00
H625   H     0.00974   0.81586   0.40123   0.00000  Uiso   1.00
H626   H     0.31654   0.99308   0.09788   0.00000  Uiso   1.00
H627   H     0.49302   0.68347   0.90212   0.00000  Uiso   1.00
H628   H     0.00984   0.81615   0.09793   0.00000  Uiso   1.00
H629   H     0.31617   0.99022   0.90206   0.00000  Uiso   1.00
H630   H     0.18346   0.50693   0.09788   0.00000  Uiso   1.00
H631   H     0.00698   0.81653   0.90212   0.00000  Uiso   1.00
H632   H     0.49016   0.68385   0.09794   0.00000  Uiso   1.00
H633   H     0.00029   0.57403   0.44820   0.00000  Uiso   1.00
H634   H     0.04944   0.91982   0.55049   0.00000  Uiso   1.00
H635   H     0.41982   0.54944   0.44950   0.00000  Uiso   1.00
H636   H     0.48719   0.68459   0.59862   0.00000  Uiso   1.00
H637   H     0.07403   0.50029   0.55180   0.00000  Uiso   1.00
H638   H     0.49971   0.92597   0.44820   0.00000  Uiso   1.00
H639   H     0.45056   0.58018   0.55050   0.00000  Uiso   1.00
H640   H     0.08018   0.95056   0.44951   0.00000  Uiso   1.00
H641   H     0.42597   0.99971   0.55180   0.00000  Uiso   1.00
H642   H     0.41890   0.95138   0.94744   0.00000  Uiso   1.00
H643   H     0.07334   0.99930   0.05110   0.00000  Uiso   1.00
H644   H     0.49945   0.92667   0.94892   0.00000  Uiso   1.00
H645   H     0.45105   0.58129   0.05261   0.00000  Uiso   1.00
H646   H     0.08110   0.54861   0.94743   0.00000  Uiso   1.00
H647   H     0.18460   0.98719   0.40138   0.00000  Uiso   1.00
H648   H     0.42667   0.50068   0.05109   0.00000  Uiso   1.00
H649   H     0.00054   0.57332   0.94892   0.00000  Uiso   1.00
H650   H     0.04891   0.91872   0.05260   0.00000  Uiso   1.00
H651   H     0.31586   0.50974   0.59876   0.00000  Uiso   1.00
H652   H     0.49026   0.68414   0.40124   0.00000  Uiso   1.00
H653   H     0.01281   0.81540   0.59862   0.00000  Uiso   1.00
H654   H     0.31540   0.51281   0.40138   0.00000  Uiso   1.00
H655   H     0.18414   0.99026   0.59876   0.00000  Uiso   1.00
H656   H     0.18383   0.50978   0.90206   0.00000  Uiso   1.00
O657   O     0.25000   0.50000   0.25000   0.00000  Uiso   1.00
O658   O     0.25000   0.96538   0.66251   0.00000  Uiso   1.00
O659   O     0.46539   0.75000   0.33749   0.00000  Uiso   1.00
O660   O     0.03462   0.75000   0.66251   0.00000  Uiso   1.00
O661   O     0.00000   0.71538   0.83749   0.00000  Uiso   1.00
O662   O     0.00000   0.78461   0.16251   0.00000  Uiso   1.00
O663   O     0.28462   0.50000   0.83749   0.00000  Uiso   1.00
O664   O     0.21539   0.50000   0.16251   0.00000  Uiso   1.00
O665   O     0.00000   0.78462   0.83749   0.00000  Uiso   1.00
O666   O     0.00000   0.71538   0.16251   0.00000  Uiso   1.00
O667   O     0.21539   0.50000   0.83749   0.00000  Uiso   1.00
O668   O     0.25000   0.50000   0.75000   0.00000  Uiso   1.00
O669   O     0.28462   0.50000   0.16251   0.00000  Uiso   1.00
O670   O     0.20127   0.58332   0.27298   0.00000  Uiso   1.00
O671   O     0.29874   0.91668   0.72702   0.00000  Uiso   1.00
O672   O     0.41668   0.70126   0.27298   0.00000  Uiso   1.00
O673   O     0.08332   0.79874   0.72702   0.00000  Uiso   1.00
O674   O     0.29874   0.91668   0.27298   0.00000  Uiso   1.00
O675   O     0.20127   0.58332   0.72702   0.00000  Uiso   1.00
O676   O     0.08332   0.79874   0.27298   0.00000  Uiso   1.00
O677   O     0.41668   0.70126   0.72702   0.00000  Uiso   1.00
O678   O     0.20127   0.91668   0.72702   0.00000  Uiso   1.00
O679   O     0.00000   0.75000   0.25000   0.00000  Uiso   1.00
O680   O     0.29874   0.58332   0.27298   0.00000  Uiso   1.00
O681   O     0.41668   0.79873   0.72702   0.00000  Uiso   1.00
O682   O     0.08332   0.70127   0.27298   0.00000  Uiso   1.00
O683   O     0.29874   0.58332   0.72702   0.00000  Uiso   1.00
O684   O     0.20127   0.91668   0.27298   0.00000  Uiso   1.00
O685   O     0.08332   0.70127   0.72702   0.00000  Uiso   1.00
O686   O     0.41668   0.79873   0.27298   0.00000  Uiso   1.00
O687   O     0.45127   0.83332   0.77298   0.00000  Uiso   1.00
O688   O     0.04874   0.66668   0.22702   0.00000  Uiso   1.00
O689   O     0.16668   0.95127   0.77298   0.00000  Uiso   1.00
O690   O     0.00000   0.75000   0.75000   0.00000  Uiso   1.00
O691   O     0.33332   0.54873   0.22702   0.00000  Uiso   1.00
O692   O     0.04874   0.66668   0.77298   0.00000  Uiso   1.00
O693   O     0.45127   0.83332   0.22702   0.00000  Uiso   1.00
O694   O     0.33332   0.54873   0.77298   0.00000  Uiso   1.00
O695   O     0.16668   0.95127   0.22702   0.00000  Uiso   1.00
O696   O     0.45127   0.66668   0.22702   0.00000  Uiso   1.00
O697   O     0.04874   0.83332   0.77298   0.00000  Uiso   1.00
O698   O     0.16668   0.54873   0.22702   0.00000  Uiso   1.00
O699   O     0.33332   0.95126   0.77298   0.00000  Uiso   1.00
O700   O     0.04874   0.83332   0.22702   0.00000  Uiso   1.00
O701   O     0.25000   0.96538   0.33749   0.00000  Uiso   1.00
O702   O     0.45127   0.66668   0.77298   0.00000  Uiso   1.00
O703   O     0.33332   0.95126   0.22702   0.00000  Uiso   1.00
O704   O     0.16668   0.54873   0.77298   0.00000  Uiso   1.00
O705   O     0.45039   0.62955   0.43664   0.00000  Uiso   1.00
O706   O     0.00834   0.59976   0.46391   0.00000  Uiso   1.00
O707   O     0.48763   0.87892   0.56361   0.00000  Uiso   1.00
O708   O     0.05064   0.89264   0.53516   0.00000  Uiso   1.00
O709   O     0.37892   0.98763   0.43639   0.00000  Uiso   1.00
O710   O     0.39264   0.55064   0.46484   0.00000  Uiso   1.00
O711   O     0.12955   0.95039   0.56336   0.00000  Uiso   1.00
O712   O     0.25000   0.53461   0.66251   0.00000  Uiso   1.00
O713   O     0.09976   0.50834   0.53609   0.00000  Uiso   1.00
O714   O     0.04961   0.87045   0.43664   0.00000  Uiso   1.00
O715   O     0.49166   0.90024   0.46391   0.00000  Uiso   1.00
O716   O     0.01238   0.62108   0.56361   0.00000  Uiso   1.00
O717   O     0.44936   0.60735   0.53516   0.00000  Uiso   1.00
O718   O     0.12108   0.51237   0.43639   0.00000  Uiso   1.00
O719   O     0.10736   0.94936   0.46484   0.00000  Uiso   1.00
O720   O     0.37045   0.54961   0.56335   0.00000  Uiso   1.00
O721   O     0.40024   0.99166   0.53609   0.00000  Uiso   1.00
O722   O     0.37982   0.51520   0.93754   0.00000  Uiso   1.00
O723   O     0.03462   0.75000   0.33749   0.00000  Uiso   1.00
O724   O     0.39197   0.95041   0.96316   0.00000  Uiso   1.00
O725   O     0.12925   0.54848   0.06301   0.00000  Uiso   1.00
O726   O     0.09914   0.99080   0.03568   0.00000  Uiso   1.00
O727   O     0.04857   0.87065   0.93698   0.00000  Uiso   1.00
O728   O     0.49093   0.90089   0.96434   0.00000  Uiso   1.00
O729   O     0.01501   0.62010   0.06243   0.00000  Uiso   1.00
O730   O     0.45014   0.60822   0.03689   0.00000  Uiso   1.00
O731   O     0.12018   0.98478   0.93755   0.00000  Uiso   1.00
O732   O     0.10803   0.54959   0.96314   0.00000  Uiso   1.00
O733   O     0.37075   0.95152   0.06301   0.00000  Uiso   1.00
O734   O     0.46539   0.75000   0.66251   0.00000  Uiso   1.00
O735   O     0.40087   0.50919   0.03567   0.00000  Uiso   1.00
O736   O     0.45142   0.62935   0.93698   0.00000  Uiso   1.00
O737   O     0.00905   0.59911   0.96434   0.00000  Uiso   1.00
O738   O     0.48497   0.87989   0.06244   0.00000  Uiso   1.00
O739   O     0.04982   0.89180   0.03687   0.00000  Uiso   1.00
O740   O     0.25000   0.53461   0.33749   0.00000  Uiso   1.00
Zn741  Zn    0.20053   0.50000   0.21730   0.00000  Uiso   1.00
Zn742  Zn    0.04948   0.75000   0.28270   0.00000  Uiso   1.00
Zn743  Zn    0.25000   0.95052   0.71730   0.00000  Uiso   1.00
Zn744  Zn    0.25000   0.54947   0.28270   0.00000  Uiso   1.00
Zn745  Zn    0.04948   0.75000   0.71730   0.00000  Uiso   1.00
Zn746  Zn    0.45053   0.75000   0.28270   0.00000  Uiso   1.00
Zn747  Zn    0.25000   0.54947   0.71730   0.00000  Uiso   1.00
Zn748  Zn    0.25000   0.95052   0.28270   0.00000  Uiso   1.00
Zn749  Zn    0.29948   0.50000   0.78270   0.00000  Uiso   1.00
Zn750  Zn    0.00000   0.70052   0.21730   0.00000  Uiso   1.00
Zn751  Zn    0.00000   0.79947   0.78270   0.00000  Uiso   1.00
Zn752  Zn    0.29948   0.50000   0.21730   0.00000  Uiso   1.00
Zn753  Zn    0.20053   0.50000   0.78270   0.00000  Uiso   1.00
Zn754  Zn    0.00000   0.79947   0.21730   0.00000  Uiso   1.00
Zn755  Zn    0.00000   0.70052   0.78270   0.00000  Uiso   1.00
Zn756  Zn    0.45053   0.75000   0.71730   0.00000  Uiso   1.00
C757   C     0.75000   0.50000   0.35594   0.00000  Uiso   1.00
C758   C     0.83002   0.91998   0.75000   0.00000  Uiso   1.00
C759   C     0.99067   0.67306   0.02044   0.00000  Uiso   1.00
C760   C     0.67304   0.50923   0.97956   0.00000  Uiso   1.00
C761   C     0.82676   0.98901   0.02040   0.00000  Uiso   1.00
C762   C     0.98893   0.67327   0.97960   0.00000  Uiso   1.00
C763   C     0.50932   0.82694   0.02044   0.00000  Uiso   1.00
C764   C     0.98058   0.63336   0.45834   0.00000  Uiso   1.00
C765   C     0.51538   0.86730   0.54149   0.00000  Uiso   1.00
C766   C     0.86730   0.51538   0.45851   0.00000  Uiso   1.00
C767   C     0.63336   0.98058   0.54166   0.00000  Uiso   1.00
C768   C     0.51942   0.86664   0.45834   0.00000  Uiso   1.00
C769   C     0.91998   0.66997   0.25000   0.00000  Uiso   1.00
C770   C     0.98462   0.63269   0.54149   0.00000  Uiso   1.00
C771   C     0.63270   0.98462   0.45851   0.00000  Uiso   1.00
C772   C     0.86664   0.51942   0.54166   0.00000  Uiso   1.00
C773   C     0.86757   0.98664   0.95844   0.00000  Uiso   1.00
C774   C     0.63297   0.51818   0.04142   0.00000  Uiso   1.00
C775   C     0.51827   0.86699   0.95858   0.00000  Uiso   1.00
C776   C     0.98646   0.63247   0.04156   0.00000  Uiso   1.00
C777   C     0.63243   0.51335   0.95844   0.00000  Uiso   1.00
C778   C     0.86703   0.98182   0.04142   0.00000  Uiso   1.00
C779   C     0.98172   0.63301   0.95859   0.00000  Uiso   1.00
C780   C     0.58002   0.83003   0.75000   0.00000  Uiso   1.00
C781   C     0.51352   0.86753   0.04156   0.00000  Uiso   1.00
C782   C     0.83002   0.91998   0.25000   0.00000  Uiso   1.00
C783   C     0.66998   0.58002   0.75000   0.00000  Uiso   1.00
C784   C     0.58002   0.83003   0.25000   0.00000  Uiso   1.00
C785   C     0.91998   0.66997   0.75000   0.00000  Uiso   1.00
C786   C     0.66997   0.91998   0.75000   0.00000  Uiso   1.00
C787   C     0.83003   0.58002   0.25000   0.00000  Uiso   1.00
C788   C     0.91998   0.83002   0.75000   0.00000  Uiso   1.00
C789   C     0.75000   0.50000   0.64407   0.00000  Uiso   1.00
C790   C     0.58002   0.66998   0.25000   0.00000  Uiso   1.00
C791   C     0.83003   0.58002   0.75000   0.00000  Uiso   1.00
C792   C     0.66997   0.91998   0.25000   0.00000  Uiso   1.00
C793   C     0.58002   0.66998   0.75000   0.00000  Uiso   1.00
C794   C     0.91998   0.83002   0.25000   0.00000  Uiso   1.00
C795   C     0.63833   0.88833   0.25000   0.00000  Uiso   1.00
C796   C     0.86167   0.61167   0.75000   0.00000  Uiso   1.00
C797   C     0.61167   0.63833   0.25000   0.00000  Uiso   1.00
C798   C     0.88833   0.86167   0.75000   0.00000  Uiso   1.00
C799   C     0.86167   0.61167   0.25000   0.00000  Uiso   1.00
C800   C     0.50000   0.75000   0.35593   0.00000  Uiso   1.00
C801   C     0.63833   0.88833   0.75000   0.00000  Uiso   1.00
C802   C     0.88833   0.86167   0.25000   0.00000  Uiso   1.00
C803   C     0.61167   0.63833   0.75000   0.00000  Uiso   1.00
C804   C     0.63833   0.61167   0.75000   0.00000  Uiso   1.00
C805   C     0.86167   0.88833   0.25000   0.00000  Uiso   1.00
C806   C     0.61167   0.86167   0.75000   0.00000  Uiso   1.00
C807   C     0.88833   0.63833   0.25000   0.00000  Uiso   1.00
C808   C     0.86167   0.88833   0.75000   0.00000  Uiso   1.00
C809   C     0.63833   0.61167   0.25000   0.00000  Uiso   1.00
C810   C     0.88833   0.63833   0.75000   0.00000  Uiso   1.00
C811   C     0.50000   0.75000   0.64406   0.00000  Uiso   1.00
C812   C     0.61167   0.86167   0.25000   0.00000  Uiso   1.00
C813   C     0.50605   0.78746   0.41817   0.00000  Uiso   1.00
C814   C     0.99319   0.71266   0.58176   0.00000  Uiso   1.00
C815   C     0.71266   0.99319   0.41824   0.00000  Uiso   1.00
C816   C     0.78746   0.50606   0.58183   0.00000  Uiso   1.00
C817   C     0.99395   0.71254   0.41817   0.00000  Uiso   1.00
C818   C     0.50681   0.78734   0.58176   0.00000  Uiso   1.00
C819   C     0.78734   0.50681   0.41824   0.00000  Uiso   1.00
C820   C     0.71254   0.99395   0.58183   0.00000  Uiso   1.00
C821   C     0.71235   0.50498   0.91856   0.00000  Uiso   1.00
C822   C     0.50000   0.75000   0.85602   0.00000  Uiso   1.00
C823   C     0.78773   0.99558   0.08141   0.00000  Uiso   1.00
C824   C     0.99554   0.71228   0.91859   0.00000  Uiso   1.00
C825   C     0.50502   0.78764   0.08144   0.00000  Uiso   1.00
C826   C     0.78765   0.99502   0.91856   0.00000  Uiso   1.00
C827   C     0.71228   0.50443   0.08141   0.00000  Uiso   1.00
C828   C     0.50446   0.78772   0.91859   0.00000  Uiso   1.00
C829   C     0.99498   0.71236   0.08144   0.00000  Uiso   1.00
C830   C     0.50000   0.75000   0.39817   0.00000  Uiso   1.00
C831   C     0.50000   0.75000   0.60178   0.00000  Uiso   1.00
C832   C     0.75000   0.50000   0.39822   0.00000  Uiso   1.00
C833   C     0.50000   0.75000   0.14399   0.00000  Uiso   1.00
C834   C     0.75000   0.50000   0.60183   0.00000  Uiso   1.00
C835   C     0.75000   0.50000   0.89840   0.00000  Uiso   1.00
C836   C     0.75000   0.50000   0.10157   0.00000  Uiso   1.00
C837   C     0.50000   0.75000   0.89843   0.00000  Uiso   1.00
C838   C     0.50000   0.75000   0.10160   0.00000  Uiso   1.00
C839   C     0.99335   0.71179   0.45899   0.00000  Uiso   1.00
C840   C     0.50571   0.78836   0.54095   0.00000  Uiso   1.00
C841   C     0.78836   0.50571   0.45905   0.00000  Uiso   1.00
C842   C     0.71179   0.99335   0.54101   0.00000  Uiso   1.00
C843   C     0.50665   0.78821   0.45899   0.00000  Uiso   1.00
C844   C     0.75000   0.50000   0.85601   0.00000  Uiso   1.00
C845   C     0.99429   0.71164   0.54095   0.00000  Uiso   1.00
C846   C     0.71164   0.99429   0.45905   0.00000  Uiso   1.00
C847   C     0.78821   0.50665   0.54101   0.00000  Uiso   1.00
C848   C     0.78854   0.99561   0.95919   0.00000  Uiso   1.00
C849   C     0.71160   0.50554   0.04078   0.00000  Uiso   1.00
C850   C     0.50556   0.78839   0.95922   0.00000  Uiso   1.00
C851   C     0.99556   0.71147   0.04081   0.00000  Uiso   1.00
C852   C     0.71146   0.50439   0.95919   0.00000  Uiso   1.00
C853   C     0.78841   0.99447   0.04078   0.00000  Uiso   1.00
C854   C     0.99443   0.71161   0.95922   0.00000  Uiso   1.00
C855   C     0.75000   0.50000   0.14398   0.00000  Uiso   1.00
C856   C     0.50443   0.78853   0.04081   0.00000  Uiso   1.00
C857   C     0.50000   0.75000   0.47953   0.00000  Uiso   1.00
C858   C     0.50000   0.75000   0.52041   0.00000  Uiso   1.00
C859   C     0.75000   0.50000   0.47959   0.00000  Uiso   1.00
C860   C     0.75000   0.50000   0.52047   0.00000  Uiso   1.00
C861   C     0.75000   0.50000   0.97963   0.00000  Uiso   1.00
C862   C     0.75000   0.50000   0.02034   0.00000  Uiso   1.00
C863   C     0.50000   0.75000   0.97966   0.00000  Uiso   1.00
C864   C     0.50000   0.75000   0.02037   0.00000  Uiso   1.00
C865   C     0.98739   0.67358   0.47948   0.00000  Uiso   1.00
C866   C     0.66998   0.58002   0.25000   0.00000  Uiso   1.00
C867   C     0.51110   0.82666   0.52044   0.00000  Uiso   1.00
C868   C     0.82666   0.51110   0.47956   0.00000  Uiso   1.00
C869   C     0.67358   0.98739   0.52052   0.00000  Uiso   1.00
C870   C     0.51261   0.82642   0.47948   0.00000  Uiso   1.00
C871   C     0.98890   0.67334   0.52044   0.00000  Uiso   1.00
C872   C     0.67334   0.98890   0.47956   0.00000  Uiso   1.00
C873   C     0.82642   0.51261   0.52052   0.00000  Uiso   1.00
C874   C     0.82696   0.99077   0.97956   0.00000  Uiso   1.00
C875   C     0.67325   0.51099   0.02040   0.00000  Uiso   1.00
C876   C     0.51106   0.82673   0.97960   0.00000  Uiso   1.00
H877   H     0.50974   0.81586   0.40123   0.00000  Uiso   1.00
H878   H     0.81654   0.99308   0.09788   0.00000  Uiso   1.00
H879   H     0.99302   0.68347   0.90212   0.00000  Uiso   1.00
H880   H     0.50984   0.81615   0.09793   0.00000  Uiso   1.00
H881   H     0.81617   0.99022   0.90206   0.00000  Uiso   1.00
H882   H     0.68346   0.50693   0.09788   0.00000  Uiso   1.00
H883   H     0.50698   0.81653   0.90212   0.00000  Uiso   1.00
H884   H     0.99016   0.68385   0.09794   0.00000  Uiso   1.00
H885   H     0.50029   0.57403   0.44820   0.00000  Uiso   1.00
H886   H     0.54944   0.91982   0.55049   0.00000  Uiso   1.00
H887   H     0.91982   0.54944   0.44950   0.00000  Uiso   1.00
H888   H     0.98719   0.68459   0.59862   0.00000  Uiso   1.00
H889   H     0.57403   0.50029   0.55180   0.00000  Uiso   1.00
H890   H     0.99971   0.92597   0.44820   0.00000  Uiso   1.00
H891   H     0.95056   0.58018   0.55050   0.00000  Uiso   1.00
H892   H     0.58018   0.95056   0.44951   0.00000  Uiso   1.00
H893   H     0.92597   0.99971   0.55180   0.00000  Uiso   1.00
H894   H     0.91890   0.95138   0.94744   0.00000  Uiso   1.00
H895   H     0.57334   0.99930   0.05110   0.00000  Uiso   1.00
H896   H     0.99945   0.92667   0.94892   0.00000  Uiso   1.00
H897   H     0.95105   0.58129   0.05261   0.00000  Uiso   1.00
H898   H     0.58110   0.54861   0.94743   0.00000  Uiso   1.00
H899   H     0.68460   0.98719   0.40138   0.00000  Uiso   1.00
H900   H     0.92667   0.50068   0.05109   0.00000  Uiso   1.00
H901   H     0.50054   0.57332   0.94892   0.00000  Uiso   1.00
H902   H     0.54891   0.91872   0.05260   0.00000  Uiso   1.00
H903   H     0.81586   0.50974   0.59876   0.00000  Uiso   1.00
H904   H     0.99026   0.68414   0.40124   0.00000  Uiso   1.00
H905   H     0.51281   0.81540   0.59862   0.00000  Uiso   1.00
H906   H     0.81540   0.51281   0.40138   0.00000  Uiso   1.00
H907   H     0.68414   0.99026   0.59876   0.00000  Uiso   1.00
H908   H     0.68383   0.50978   0.90206   0.00000  Uiso   1.00
O909   O     0.75000   0.50000   0.25000   0.00000  Uiso   1.00
O910   O     0.75000   0.96538   0.66251   0.00000  Uiso   1.00
O911   O     0.96539   0.75000   0.33749   0.00000  Uiso   1.00
O912   O     0.53462   0.75000   0.66251   0.00000  Uiso   1.00
O913   O     0.50000   0.71538   0.83749   0.00000  Uiso   1.00
O914   O     0.50000   0.78461   0.16251   0.00000  Uiso   1.00
O915   O     0.78462   0.50000   0.83749   0.00000  Uiso   1.00
O916   O     0.71539   0.50000   0.16251   0.00000  Uiso   1.00
O917   O     0.50000   0.78462   0.83749   0.00000  Uiso   1.00
O918   O     0.50000   0.71538   0.16251   0.00000  Uiso   1.00
O919   O     0.71539   0.50000   0.83749   0.00000  Uiso   1.00
O920   O     0.75000   0.50000   0.75000   0.00000  Uiso   1.00
O921   O     0.78462   0.50000   0.16251   0.00000  Uiso   1.00
O922   O     0.70127   0.58332   0.27298   0.00000  Uiso   1.00
O923   O     0.79874   0.91668   0.72702   0.00000  Uiso   1.00
O924   O     0.91668   0.70126   0.27298   0.00000  Uiso   1.00
O925   O     0.58332   0.79874   0.72702   0.00000  Uiso   1.00
O926   O     0.79874   0.91668   0.27298   0.00000  Uiso   1.00
O927   O     0.70127   0.58332   0.72702   0.00000  Uiso   1.00
O928   O     0.58332   0.79874   0.27298   0.00000  Uiso   1.00
O929   O     0.91668   0.70126   0.72702   0.00000  Uiso   1.00
O930   O     0.70127   0.91668   0.72702   0.00000  Uiso   1.00
O931   O     0.50000   0.75000   0.25000   0.00000  Uiso   1.00
O932   O     0.79874   0.58332   0.27298   0.00000  Uiso   1.00
O933   O     0.91668   0.79873   0.72702   0.00000  Uiso   1.00
O934   O     0.58332   0.70127   0.27298   0.00000  Uiso   1.00
O935   O     0.79874   0.58332   0.72702   0.00000  Uiso   1.00
O936   O     0.70127   0.91668   0.27298   0.00000  Uiso   1.00
O937   O     0.58332   0.70127   0.72702   0.00000  Uiso   1.00
O938   O     0.91668   0.79873   0.27298   0.00000  Uiso   1.00
O939   O     0.95127   0.83332   0.77298   0.00000  Uiso   1.00
O940   O     0.54874   0.66668   0.22702   0.00000  Uiso   1.00
O941   O     0.66668   0.95127   0.77298   0.00000  Uiso   1.00
O942   O     0.50000   0.75000   0.75000   0.00000  Uiso   1.00
O943   O     0.83332   0.54873   0.22702   0.00000  Uiso   1.00
O944   O     0.54874   0.66668   0.77298   0.00000  Uiso   1.00
O945   O     0.95127   0.83332   0.22702   0.00000  Uiso   1.00
O946   O     0.83332   0.54873   0.77298   0.00000  Uiso   1.00
O947   O     0.66668   0.95127   0.22702   0.00000  Uiso   1.00
O948   O     0.95127   0.66668   0.22702   0.00000  Uiso   1.00
O949   O     0.54874   0.83332   0.77298   0.00000  Uiso   1.00
O950   O     0.66668   0.54873   0.22702   0.00000  Uiso   1.00
O951   O     0.83332   0.95126   0.77298   0.00000  Uiso   1.00
O952   O     0.54874   0.83332   0.22702   0.00000  Uiso   1.00
O953   O     0.75000   0.96538   0.33749   0.00000  Uiso   1.00
O954   O     0.95127   0.66668   0.77298   0.00000  Uiso   1.00
O955   O     0.83332   0.95126   0.22702   0.00000  Uiso   1.00
O956   O     0.66668   0.54873   0.77298   0.00000  Uiso   1.00
O957   O     0.95039   0.62955   0.43664   0.00000  Uiso   1.00
O958   O     0.50834   0.59976   0.46391   0.00000  Uiso   1.00
O959   O     0.98763   0.87892   0.56361   0.00000  Uiso   1.00
O960   O     0.55064   0.89264   0.53516   0.00000  Uiso   1.00
O961   O     0.87892   0.98763   0.43639   0.00000  Uiso   1.00
O962   O     0.89264   0.55064   0.46484   0.00000  Uiso   1.00
O963   O     0.62955   0.95039   0.56336   0.00000  Uiso   1.00
O964   O     0.75000   0.53461   0.66251   0.00000  Uiso   1.00
O965   O     0.59976   0.50834   0.53609   0.00000  Uiso   1.00
O966   O     0.54961   0.87045   0.43664   0.00000  Uiso   1.00
O967   O     0.99166   0.90024   0.46391   0.00000  Uiso   1.00
O968   O     0.51238   0.62108   0.56361   0.00000  Uiso   1.00
O969   O     0.94936   0.60735   0.53516   0.00000  Uiso   1.00
O970   O     0.62108   0.51237   0.43639   0.00000  Uiso   1.00
O971   O     0.60736   0.94936   0.46484   0.00000  Uiso   1.00
O972   O     0.87045   0.54961   0.56335   0.00000  Uiso   1.00
O973   O     0.90024   0.99166   0.53609   0.00000  Uiso   1.00
O974   O     0.87982   0.51520   0.93754   0.00000  Uiso   1.00
O975   O     0.53462   0.75000   0.33749   0.00000  Uiso   1.00
O976   O     0.89197   0.95041   0.96316   0.00000  Uiso   1.00
O977   O     0.62925   0.54848   0.06301   0.00000  Uiso   1.00
O978   O     0.59914   0.99080   0.03568   0.00000  Uiso   1.00
O979   O     0.54857   0.87065   0.93698   0.00000  Uiso   1.00
O980   O     0.99093   0.90089   0.96434   0.00000  Uiso   1.00
O981   O     0.51501   0.62010   0.06243   0.00000  Uiso   1.00
O982   O     0.95014   0.60822   0.03689   0.00000  Uiso   1.00
O983   O     0.62018   0.98478   0.93755   0.00000  Uiso   1.00
O984   O     0.60803   0.54959   0.96314   0.00000  Uiso   1.00
O985   O     0.87075   0.95152   0.06301   0.00000  Uiso   1.00
O986   O     0.96539   0.75000   0.66251   0.00000  Uiso   1.00
O987   O     0.90087   0.50919   0.03567   0.00000  Uiso   1.00
O988   O     0.95142   0.62935   0.93698   0.00000  Uiso   1.00
O989   O     0.50905   0.59911   0.96434   0.00000  Uiso   1.00
O990   O     0.98497   0.87989   0.06244   0.00000  Uiso   1.00
O991   O     0.54982   0.89180   0.03687   0.00000  Uiso   1.00
O992   O     0.75000   0.53461   0.33749   0.00000  Uiso   1.00
Zn993  Zn    0.70053   0.50000   0.21730   0.00000  Uiso   1.00
Zn994  Zn    0.54948   0.75000   0.28270   0.00000  Uiso   1.00
Zn995  Zn    0.75000   0.95052   0.71730   0.00000  Uiso   1.00
Zn996  Zn    0.75000   0.54947   0.28270   0.00000  Uiso   1.00
Zn997  Zn    0.54948   0.75000   0.71730   0.00000  Uiso   1.00
Zn998  Zn    0.95053   0.75000   0.28270   0.00000  Uiso   1.00
Zn999  Zn    0.75000   0.54947   0.71730   0.00000  Uiso   1.00
Zn1000 Zn    0.75000   0.95052   0.28270   0.00000  Uiso   1.00
Zn1001 Zn    0.79948   0.50000   0.78270   0.00000  Uiso   1.00
Zn1002 Zn    0.50000   0.70052   0.21730   0.00000  Uiso   1.00
Zn1003 Zn    0.50000   0.79947   0.78270   0.00000  Uiso   1.00
Zn1004 Zn    0.79948   0.50000   0.21730   0.00000  Uiso   1.00
Zn1005 Zn    0.70053   0.50000   0.78270   0.00000  Uiso   1.00
Zn1006 Zn    0.50000   0.79947   0.21730   0.00000  Uiso   1.00
Zn1007 Zn    0.50000   0.70052   0.78270   0.00000  Uiso   1.00
Zn1008 Zn    0.95053   0.75000   0.71730   0.00000  Uiso   1.00
loop_
_geom_bond_atom_site_label_1
_geom_bond_atom_site_label_2
_geom_bond_distance
_geom_bond_site_symmetry_2
_ccdc_geom_bond_type
C1     O701    1.271   1_545 A
C1     C76     1.458   .     S
C1     O236    1.271   .     S
C2     O195    1.276   .     A
C2     C52     1.422   .     S
C2     O167    1.276   .     A
C3     C20     1.488   .     S
C3     C95     1.417   .     A
C3     C6      1.409   1_554 S
C4     C96     1.417   .     A
C4     C21     1.488   .     S
C4     C119    1.409   1_556 S
C5     C22     1.489   .     S
C5     C97     1.418   .     A
C5     C118    1.409   1_554 S
C6     C98     1.418   .     A
C6     C23     1.489   .     S
C6     C3      1.409   1_556 S
C7     C100    1.417   .     A
C7     C25     1.488   .     S
C7     C120    1.409   1_554 S
C8     O201    1.223   .     D
C8     C109    1.488   .     S
C8     O454    1.398   .     S
C9     C111    1.488   .     S
C9     O204    1.398   .     S
C9     O455    1.223   1_455 S
C10    C112    1.488   .     S
C10    O206    1.398   .     S
C10    O709    1.223   1_545 S
C11    O207    1.223   .     D
C11    C113    1.488   .     S
C11    O713    1.398   .     S
C12    C114    1.488   .     S
C12    O210    1.223   .     D
C12    O463    1.398   1_455 S
C13    O192    1.276   .     A
C13    C51     1.423   .     S
C13    O168    1.276   .     A
C14    C115    1.488   .     S
C14    O213    1.398   .     S
C14    O464    1.223   .     S
C15    O215    1.398   .     S
C15    C116    1.488   .     S
C15    O718    1.223   .     S
C16    O216    1.223   .     D
C16    C117    1.488   .     S
C16    O721    1.398   1_545 S
C17    O220    1.398   .     S
C17    C118    1.488   .     S
C17    O722    1.223   .     S
C18    O221    1.223   .     D
C18    C119    1.489   .     S
C18    O726    1.398   1_545 S
C19    O223    1.223   .     D
C19    C120    1.489   .     S
C19    O476    1.398   1_455 S
C20    O226    1.398   .     S
C20    O477    1.223   .     S
C21    O228    1.398   .     S
C21    O731    1.223   1_545 S
C22    O229    1.223   .     D
C22    O735    1.398   .     S
C23    O232    1.223   .     D
C23    O485    1.398   .     S
C24    C50     1.423   .     S
C24    O169    1.276   .     A
C24    O193    1.276   .     A
C25    O235    1.398   .     S
C25    O486    1.223   1_455 S
C26    O170    1.276   .     A
C26    C49     1.422   .     S
C26    O199    1.276   .     A
C27    C48     1.422   .     S
C27    O171    1.276   .     A
C27    O200    1.276   .     A
C28    C56     1.423   .     S
C28    O172    1.276   .     A
C28    O196    1.276   .     A
C29    O173    1.276   .     A
C29    O198    1.276   .     A
C29    C54     1.423   .     S
C30    C45     1.423   .     S
C30    O185    1.276   .     A
C30    O174    1.276   .     A
C31    C43     1.423   .     S
C31    O176    1.276   .     A
C31    O187    1.276   .     A
C32    O183    1.276   .     A
C32    O177    1.276   .     A
C32    C42     1.422   .     S
C33    O208    1.271   .     A
C33    C78     1.457   .     S
C33    O658    1.271   1_545 S
C34    C41     1.422   .     S
C34    O184    1.276   .     A
C34    O178    1.276   .     A
C35    O179    1.276   .     A
C35    O190    1.276   .     A
C35    C40     1.423   .     S
C36    O191    1.276   .     A
C36    O180    1.276   .     A
C36    C39     1.423   .     S
C37    O188    1.276   .     A
C37    C47     1.422   .     S
C37    O181    1.276   .     A
C38    O182    1.276   .     A
C38    O189    1.276   .     A
C38    C46     1.422   .     S
C39    C56     1.199   .     T
C40    C54     1.199   .     T
C41    C53     1.198   .     T
C42    C52     1.198   .     T
C43    C51     1.199   .     T
C44    O407    1.271   1_455 A
C44    C74     1.457   .     S
C44    O219    1.271   .     S
C45    C50     1.199   .     T
C46    C49     1.198   .     T
C47    C48     1.198   .     T
C53    C110    1.422   .     S
C55    O156    1.271   .     A
C55    C75     1.458   .     S
C55    O482    1.271   1_455 S
C57    H121    1.082   .     S
C57    C87     1.408   .     A
C57    C74     1.389   .     S
C58    H132    1.082   .     S
C58    C89     1.408   .     A
C58    C327    1.390   .     S
C59    C580    1.390   .     A
C59    C90     1.408   .     A
C59    H143    1.082   .     S
C60    C78     1.389   .     A
C60    H147    1.082   .     S
C60    C91     1.408   .     A
C61    C83     1.408   .     A
C61    H148    1.082   .     S
C61    C326    1.389   .     A
C62    H149    1.082   .     S
C62    C84     1.408   .     A
C62    C75     1.390   .     A
C63    C85     1.408   .     A
C63    H150    1.082   .     S
C63    C76     1.390   .     S
C64    C86     1.408   .     A
C64    H151    1.082   .     S
C64    C582    1.389   .     S
C65    C79     1.393   .     A
C65    H152    1.081   .     S
C65    C96     1.401   .     A
C66    C81     1.462   .     S
C66    O157    1.272   .     A
C66    O161    1.272   .     S
C67    H122    1.081   .     S
C67    C97     1.401   .     A
C67    C584    1.393   .     S
C68    C333    1.393   .     A
C68    H123    1.081   .     S
C68    C98     1.401   .     A
C69    H124    1.081   .     S
C69    C100    1.401   .     A
C69    C82     1.393   .     S
C70    H125    1.081   .     S
C70    C92     1.401   .     A
C70    C583    1.393   .     S
C71    H126    1.081   .     S
C71    C80     1.393   .     A
C71    C93     1.401   .     A
C72    C94     1.401   .     A
C72    H127    1.081   .     S
C72    C81     1.393   .     S
C73    C95     1.401   .     A
C73    H128    1.081   .     S
C73    C334    1.393   .     A
C74    C313    1.389   1_455 A
C75    C310    1.390   1_455 S
C76    C563    1.390   1_545 A
C77    O158    1.272   .     A
C77    O162    1.272   .     A
C77    C82     1.462   .     S
C78    C568    1.389   1_545 S
C79    C574    1.393   1_545 S
C79    C88     1.462   .     S
C80    C99     1.462   .     S
C80    C571    1.393   1_545 S
C81    C320    1.393   1_455 A
C82    C325    1.393   1_455 A
C83    C109    1.418   .     A
C83    C353    1.422   .     A
C84    C111    1.418   .     A
C84    C102    1.422   .     A
C85    C112    1.418   .     A
C85    C103    1.422   .     S
C86    C113    1.418   .     A
C86    C608    1.422   .     S
C87    C114    1.418   .     A
C87    C101    1.422   .     S
C88    O159    1.272   .     S
C88    O163    1.272   .     S
C89    C115    1.418   .     A
C89    C354    1.422   .     S
C90    C116    1.418   .     A
C90    C607    1.422   .     A
C91    C104    1.422   .     A
C91    C117    1.418   .     A
C92    C118    1.417   .     A
C92    C609    1.420   .     S
C93    C106    1.420   .     A
C93    C119    1.418   .     A
C94    C120    1.418   .     A
C94    C107    1.420   .     S
C95    C360    1.420   .     A
C96    C105    1.420   .     A
C97    C610    1.420   .     S
C98    C359    1.420   .     A
C99    O160    1.272   .     A
C99    O165    1.272   .     A
C100   C108    1.420   .     S
C101   C335    1.422   1_455 A
C101   C102    1.410   .     S
C102   C341    1.422   1_455 S
C103   C594    1.422   1_545 A
C103   C104    1.410   .     S
C104   C590    1.422   1_545 S
C105   C596    1.420   1_545 S
C105   C106    1.404   1_556 S
C106   C601    1.420   1_545 S
C106   C105    1.404   1_554 S
C107   C350    1.420   1_455 A
C107   C108    1.404   1_556 S
C108   C347    1.420   1_455 A
C108   C107    1.404   1_554 S
C109   C115    1.413   .     A
C110   O194    1.276   .     A
C110   O166    1.276   .     A
C111   C114    1.413   .     A
C112   C117    1.413   .     A
C113   C116    1.413   .     A
C118   C5      1.409   1_556 S
C119   C4      1.409   1_554 S
C120   C7      1.409   1_556 S
H129   O202    1.014   .     S
H130   O204    1.013   .     S
H131   O206    1.013   .     S
H133   O209    1.014   .     S
H134   O211    1.014   .     S
H135   O213    1.013   .     S
H136   O215    1.013   .     S
H137   O217    1.014   .     S
H138   O220    1.013   .     S
H139   O222    1.014   .     S
H140   O224    1.014   .     S
H141   O226    1.014   .     S
H142   O228    1.013   .     S
H144   O231    1.014   .     S
H145   O233    1.014   .     S
H146   O235    1.014   .     S
O153   Zn248   1.935   .     S
O153   Zn240   1.935   .     S
O153   Zn237   1.935   .     S
O153   Zn748   1.935   1_545 S
O154   Zn239   1.947   .     S
O154   C537    1.271   .     S
O155   C296    1.271   .     A
O155   Zn242   1.947   .     S
O156   Zn241   1.947   .     S
O157   Zn251   1.947   .     S
O158   Zn250   1.947   .     S
O159   Zn245   1.947   .     S
O160   Zn237   1.947   .     S
O161   Zn247   1.947   .     S
O162   Zn246   1.947   .     S
O163   Zn249   1.947   .     S
O164   Zn243   1.935   .     S
O164   Zn245   1.935   .     S
O164   Zn249   1.935   .     S
O164   Zn743   1.935   1_545 S
O165   Zn248   1.947   .     S
O166   Zn240   1.915   .     S
O167   Zn239   1.915   .     S
O168   Zn242   1.916   .     S
O169   Zn241   1.916   .     S
O170   Zn244   1.915   .     S
O171   Zn243   1.915   .     S
O172   Zn238   1.916   .     S
O173   Zn252   1.916   .     S
O174   Zn239   1.916   .     S
O175   Zn494   1.935   1_455 S
O175   Zn246   1.935   .     S
O175   Zn250   1.935   .     S
O175   Zn238   1.935   .     S
O176   Zn240   1.916   .     S
O177   Zn252   1.915   .     S
O178   Zn238   1.915   .     S
O179   Zn243   1.916   .     S
O180   Zn244   1.916   .     S
O181   Zn241   1.915   .     S
O182   Zn242   1.915   .     S
O183   Zn499   1.915   .     S
O184   Zn246   1.915   .     S
O185   Zn753   1.916   .     S
O186   Zn504   1.935   1_455 S
O186   Zn251   1.935   .     S
O186   Zn247   1.935   .     S
O186   Zn241   1.935   .     S
O187   Zn248   1.916   .     S
O188   Zn251   1.915   .     S
O189   Zn502   1.915   .     S
O190   Zn245   1.916   .     S
O191   Zn741   1.916   .     S
O192   Zn498   1.916   .     S
O193   Zn247   1.916   .     S
O194   Zn237   1.915   .     S
O195   Zn749   1.915   .     S
O196   Zn250   1.916   .     S
O197   Zn244   1.947   .     S
O197   C505    1.271   .     A
O198   Zn503   1.916   .     S
O199   Zn752   1.915   .     S
O200   Zn249   1.915   .     S
O202   C260    1.398   1_455 S
O203   C261    1.223   .     S
O205   C514    1.223   .     S
O208   Zn243   1.947   .     S
O209   C515    1.398   1_545 S
O211   C264    1.398   .     S
O212   C266    1.223   1_455 S
O214   C519    1.223   1_545 S
O217   C520    1.398   .     S
O218   C521    1.223   1_545 S
O219   Zn238   1.947   .     S
O222   C522    1.398   .     S
O224   C271    1.398   .     S
O225   C272    1.223   1_455 S
O227   C525    1.223   .     S
O230   Zn252   1.947   .     S
O230   C307    1.271   .     S
O231   C526    1.398   1_545 S
O233   C275    1.398   1_455 S
O234   C277    1.223   .     S
O236   Zn240   1.947   .     S
Zn237  O695    1.916   1_545 S
Zn239  O668    1.935   .     S
Zn242  O427    1.935   .     S
Zn244  O657    1.935   .     S
Zn245  O699    1.915   1_545 S
Zn246  O444    1.916   1_455 S
Zn247  O435    1.915   1_455 S
Zn248  O703    1.915   1_545 S
Zn249  O689    1.916   1_545 S
Zn250  O441    1.915   1_455 S
Zn251  O450    1.916   1_455 S
Zn252  O438    1.935   .     S
C253   O953    1.271   1_545 A
C253   C328    1.458   .     S
C253   O488    1.271   .     S
C254   O447    1.276   .     A
C254   C304    1.422   .     S
C254   O419    1.276   .     A
C255   C272    1.488   .     S
C255   C347    1.417   .     A
C255   C258    1.409   1_554 S
C256   C348    1.417   .     A
C256   C273    1.488   .     S
C256   C371    1.409   1_556 S
C257   C274    1.489   .     S
C257   C349    1.418   .     A
C257   C370    1.409   1_554 S
C258   C350    1.418   .     A
C258   C275    1.489   .     S
C258   C255    1.409   1_556 S
C259   C352    1.417   .     A
C259   C277    1.488   .     S
C259   C372    1.409   1_554 S
C260   O453    1.223   .     D
C260   C361    1.488   .     S
C260   O202    1.398   1_655 S
C261   C363    1.488   .     S
C261   O456    1.398   .     S
C262   C364    1.488   .     S
C262   O458    1.398   .     S
C262   O961    1.223   1_545 S
C263   O459    1.223   .     D
C263   C365    1.488   .     S
C263   O965    1.398   .     S
C264   C366    1.488   .     S
C264   O462    1.223   .     D
C265   O444    1.276   .     A
C265   C303    1.423   .     S
C265   O420    1.276   .     A
C266   C367    1.488   .     S
C266   O465    1.398   .     S
C266   O212    1.223   1_655 S
C267   O467    1.398   .     S
C267   C368    1.488   .     S
C267   O970    1.223   .     S
C268   O468    1.223   .     D
C268   C369    1.488   .     S
C268   O973    1.398   1_545 S
C269   O472    1.398   .     S
C269   C370    1.488   .     S
C269   O974    1.223   .     S
C270   O473    1.223   .     D
C270   C371    1.489   .     S
C270   O978    1.398   1_545 S
C271   O475    1.223   .     D
C271   C372    1.489   .     S
C272   O478    1.398   .     S
C272   O225    1.223   1_655 S
C273   O480    1.398   .     S
C273   O983    1.223   1_545 S
C274   O481    1.223   .     D
C274   O987    1.398   .     S
C275   O484    1.223   .     D
C275   O233    1.398   1_655 S
C276   C302    1.423   .     S
C276   O421    1.276   .     A
C276   O445    1.276   .     A
C277   O487    1.398   .     S
C278   O422    1.276   .     A
C278   C301    1.422   .     S
C278   O451    1.276   .     A
C279   C300    1.422   .     S
C279   O423    1.276   .     A
C279   O452    1.276   .     A
C280   C308    1.423   .     S
C280   O424    1.276   .     A
C280   O448    1.276   .     A
C281   O425    1.276   .     A
C281   O450    1.276   .     A
C281   C306    1.423   .     S
C282   C297    1.423   .     S
C282   O437    1.276   .     A
C282   O426    1.276   .     A
C283   C295    1.423   .     S
C283   O428    1.276   .     A
C283   O439    1.276   .     A
C284   O435    1.276   .     A
C284   O429    1.276   .     A
C284   C294    1.422   .     S
C285   O460    1.271   .     A
C285   C330    1.457   .     S
C285   O910    1.271   1_545 S
C286   C293    1.422   .     S
C286   O436    1.276   .     A
C286   O430    1.276   .     A
C287   O431    1.276   .     A
C287   O442    1.276   .     A
C287   C292    1.423   .     S
C288   O443    1.276   .     A
C288   O432    1.276   .     A
C288   C291    1.423   .     S
C289   O440    1.276   .     A
C289   C299    1.422   .     S
C289   O433    1.276   .     A
C290   O434    1.276   .     A
C290   O441    1.276   .     A
C290   C298    1.422   .     S
C291   C308    1.199   .     T
C292   C306    1.199   .     T
C293   C305    1.198   .     T
C294   C304    1.198   .     T
C295   C303    1.199   .     T
C296   C326    1.457   .     S
C296   O471    1.271   .     S
C297   C302    1.199   .     T
C298   C301    1.198   .     T
C299   C300    1.198   .     T
C305   C362    1.422   .     S
C307   O408    1.271   .     A
C307   C327    1.458   .     S
C309   H373    1.082   .     S
C309   C339    1.408   .     A
C309   C326    1.389   .     S
C310   H384    1.082   .     S
C310   C341    1.408   .     A
C310   C75     1.390   1_655 S
C311   C832    1.390   .     A
C311   C342    1.408   .     A
C311   H395    1.082   .     S
C312   C330    1.389   .     A
C312   H399    1.082   .     S
C312   C343    1.408   .     A
C313   C335    1.408   .     A
C313   H400    1.082   .     S
C313   C74     1.389   1_655 A
C314   H401    1.082   .     S
C314   C336    1.408   .     A
C314   C327    1.390   .     A
C315   C337    1.408   .     A
C315   H402    1.082   .     S
C315   C328    1.390   .     S
C316   C338    1.408   .     A
C316   H403    1.082   .     S
C316   C834    1.389   .     S
C317   C331    1.393   .     A
C317   H404    1.081   .     S
C317   C348    1.401   .     A
C318   C333    1.462   .     S
C318   O409    1.272   .     A
C318   O413    1.272   .     S
C319   H374    1.081   .     S
C319   C349    1.401   .     A
C319   C836    1.393   .     S
C320   C81     1.393   1_655 A
C320   H375    1.081   .     S
C320   C350    1.401   .     A
C321   H376    1.081   .     S
C321   C352    1.401   .     A
C321   C334    1.393   .     S
C322   H377    1.081   .     S
C322   C344    1.401   .     A
C322   C835    1.393   .     S
C323   H378    1.081   .     S
C323   C332    1.393   .     A
C323   C345    1.401   .     A
C324   C346    1.401   .     A
C324   H379    1.081   .     S
C324   C333    1.393   .     S
C325   C347    1.401   .     A
C325   H380    1.081   .     S
C325   C82     1.393   1_655 A
C328   C815    1.390   1_545 A
C329   O410    1.272   .     A
C329   O414    1.272   .     A
C329   C334    1.462   .     S
C330   C820    1.389   1_545 S
C331   C826    1.393   1_545 S
C331   C340    1.462   .     S
C332   C351    1.462   .     S
C332   C823    1.393   1_545 S
C335   C361    1.418   .     A
C335   C101    1.422   1_655 A
C336   C363    1.418   .     A
C336   C354    1.422   .     A
C337   C364    1.418   .     A
C337   C355    1.422   .     S
C338   C365    1.418   .     A
C338   C860    1.422   .     S
C339   C366    1.418   .     A
C339   C353    1.422   .     S
C340   O411    1.272   .     S
C340   O415    1.272   .     S
C341   C367    1.418   .     A
C341   C102    1.422   1_655 S
C342   C368    1.418   .     A
C342   C859    1.422   .     A
C343   C356    1.422   .     A
C343   C369    1.418   .     A
C344   C370    1.417   .     A
C344   C861    1.420   .     S
C345   C358    1.420   .     A
C345   C371    1.418   .     A
C346   C372    1.418   .     A
C346   C359    1.420   .     S
C347   C108    1.420   1_655 A
C348   C357    1.420   .     A
C349   C862    1.420   .     S
C350   C107    1.420   1_655 A
C351   O412    1.272   .     A
C351   O417    1.272   .     A
C352   C360    1.420   .     S
C353   C354    1.410   .     S
C355   C846    1.422   1_545 A
C355   C356    1.410   .     S
C356   C842    1.422   1_545 S
C357   C848    1.420   1_545 S
C357   C358    1.404   1_556 S
C358   C853    1.420   1_545 S
C358   C357    1.404   1_554 S
C359   C360    1.404   1_556 S
C360   C359    1.404   1_554 S
C361   C367    1.413   .     A
C362   O446    1.276   .     A
C362   O418    1.276   .     A
C363   C366    1.413   .     A
C364   C369    1.413   .     A
C365   C368    1.413   .     A
C370   C257    1.409   1_556 S
C371   C256    1.409   1_554 S
C372   C259    1.409   1_556 S
H381   O454    1.014   .     S
H382   O456    1.013   .     S
H383   O458    1.013   .     S
H385   O461    1.014   .     S
H386   O463    1.014   .     S
H387   O465    1.013   .     S
H388   O467    1.013   .     S
H389   O469    1.014   .     S
H390   O472    1.013   .     S
H391   O474    1.014   .     S
H392   O476    1.014   .     S
H393   O478    1.014   .     S
H394   O480    1.013   .     S
H396   O483    1.014   .     S
H397   O485    1.014   .     S
H398   O487    1.014   .     S
O405   Zn500   1.935   .     S
O405   Zn492   1.935   .     S
O405   Zn489   1.935   .     S
O405   Zn1000  1.935   1_545 S
O406   Zn491   1.947   .     S
O406   C789    1.271   .     S
O407   C44     1.271   1_655 A
O407   Zn494   1.947   .     S
O408   Zn493   1.947   .     S
O409   Zn503   1.947   .     S
O410   Zn502   1.947   .     S
O411   Zn497   1.947   .     S
O412   Zn489   1.947   .     S
O413   Zn499   1.947   .     S
O414   Zn498   1.947   .     S
O415   Zn501   1.947   .     S
O416   Zn495   1.935   .     S
O416   Zn497   1.935   .     S
O416   Zn501   1.935   .     S
O416   Zn995   1.935   1_545 S
O417   Zn500   1.947   .     S
O418   Zn492   1.915   .     S
O419   Zn491   1.915   .     S
O420   Zn494   1.916   .     S
O421   Zn493   1.916   .     S
O422   Zn496   1.915   .     S
O423   Zn495   1.915   .     S
O424   Zn490   1.916   .     S
O425   Zn504   1.916   .     S
O426   Zn491   1.916   .     S
O427   Zn498   1.935   .     S
O427   Zn502   1.935   .     S
O427   Zn490   1.935   .     S
O428   Zn492   1.916   .     S
O429   Zn504   1.915   .     S
O430   Zn490   1.915   .     S
O431   Zn495   1.916   .     S
O432   Zn496   1.916   .     S
O433   Zn493   1.915   .     S
O434   Zn494   1.915   .     S
O435   Zn247   1.915   1_655 S
O436   Zn498   1.915   .     S
O437   Zn1005  1.916   .     S
O438   Zn503   1.935   .     S
O438   Zn499   1.935   .     S
O438   Zn493   1.935   .     S
O439   Zn500   1.916   .     S
O440   Zn503   1.915   .     S
O441   Zn250   1.915   1_655 S
O442   Zn497   1.916   .     S
O443   Zn993   1.916   .     S
O444   Zn246   1.916   1_655 S
O445   Zn499   1.916   .     S
O446   Zn489   1.915   .     S
O447   Zn1001  1.915   .     S
O448   Zn502   1.916   .     S
O449   Zn496   1.947   .     S
O449   C757    1.271   .     A
O450   Zn251   1.916   1_655 S
O451   Zn1004  1.915   .     S
O452   Zn501   1.915   .     S
O455   C9      1.223   1_655 S
O457   C766    1.223   .     S
O460   Zn495   1.947   .     S
O461   C767    1.398   1_545 S
O463   C12     1.398   1_655 S
O466   C771    1.223   1_545 S
O469   C772    1.398   .     S
O470   C773    1.223   1_545 S
O471   Zn490   1.947   .     S
O474   C774    1.398   .     S
O476   C19     1.398   1_655 S
O479   C777    1.223   .     S
O482   Zn504   1.947   .     S
O482   C55     1.271   1_655 S
O483   C778    1.398   1_545 S
O486   C25     1.223   1_655 S
O488   Zn492   1.947   .     S
Zn489  O947    1.916   1_545 S
Zn491  O920    1.935   .     S
Zn494  O175    1.935   1_655 S
Zn496  O909    1.935   .     S
Zn497  O951    1.915   1_545 S
Zn500  O955    1.915   1_545 S
Zn501  O941    1.916   1_545 S
Zn504  O186    1.935   1_655 S
C505   C580    1.458   .     S
C505   O740    1.271   .     S
C506   O699    1.276   .     A
C506   C556    1.422   .     S
C506   O671    1.276   .     A
C507   C524    1.488   .     S
C507   C599    1.417   .     A
C507   C510    1.409   1_554 S
C508   C600    1.417   .     A
C508   C525    1.488   .     S
C508   C623    1.409   1_556 S
C509   C526    1.489   .     S
C509   C601    1.418   .     A
C509   C622    1.409   1_554 S
C510   C602    1.418   .     A
C510   C527    1.489   .     S
C510   C507    1.409   1_556 S
C511   C604    1.417   .     A
C511   C529    1.488   .     S
C511   C624    1.409   1_554 S
C512   O705    1.223   .     D
C512   C613    1.488   .     S
C512   O958    1.398   .     S
C513   C615    1.488   .     S
C513   O708    1.398   .     S
C513   O959    1.223   1_455 S
C514   C616    1.488   .     S
C514   O710    1.398   .     S
C515   O711    1.223   .     D
C515   C617    1.488   .     S
C515   O209    1.398   1_565 S
C516   C618    1.488   .     S
C516   O714    1.223   .     D
C516   O967    1.398   1_455 S
C517   O696    1.276   .     A
C517   C555    1.423   .     S
C517   O672    1.276   .     A
C518   C619    1.488   .     S
C518   O717    1.398   .     S
C518   O968    1.223   .     S
C519   O719    1.398   .     S
C519   C620    1.488   .     S
C519   O214    1.223   1_565 S
C520   O720    1.223   .     D
C520   C621    1.488   .     S
C521   O724    1.398   .     S
C521   C622    1.488   .     S
C521   O218    1.223   1_565 S
C522   O725    1.223   .     D
C522   C623    1.489   .     S
C523   O727    1.223   .     D
C523   C624    1.489   .     S
C523   O980    1.398   1_455 S
C524   O730    1.398   .     S
C524   O981    1.223   .     S
C525   O732    1.398   .     S
C526   O733    1.223   .     D
C526   O231    1.398   1_565 S
C527   O736    1.223   .     D
C527   O989    1.398   .     S
C528   C554    1.423   .     S
C528   O673    1.276   .     A
C528   O697    1.276   .     A
C529   O739    1.398   .     S
C529   O990    1.223   1_455 S
C530   O674    1.276   .     A
C530   C553    1.422   .     S
C530   O703    1.276   .     A
C531   C552    1.422   .     S
C531   O675    1.276   .     A
C531   O704    1.276   .     A
C532   C560    1.423   .     S
C532   O676    1.276   .     A
C532   O700    1.276   .     A
C533   O677    1.276   .     A
C533   O702    1.276   .     A
C533   C558    1.423   .     S
C534   C549    1.423   .     S
C534   O689    1.276   .     A
C534   O678    1.276   .     A
C535   C547    1.423   .     S
C535   O680    1.276   .     A
C535   O691    1.276   .     A
C536   O687    1.276   .     A
C536   O681    1.276   .     A
C536   C546    1.422   .     S
C537   O712    1.271   .     A
C537   C582    1.457   .     S
C538   C545    1.422   .     S
C538   O688    1.276   .     A
C538   O682    1.276   .     A
C539   O683    1.276   .     A
C539   O694    1.276   .     A
C539   C544    1.423   .     S
C540   O695    1.276   .     A
C540   O684    1.276   .     A
C540   C543    1.423   .     S
C541   O692    1.276   .     A
C541   C551    1.422   .     S
C541   O685    1.276   .     A
C542   O686    1.276   .     A
C542   O693    1.276   .     A
C542   C550    1.422   .     S
C543   C560    1.199   .     T
C544   C558    1.199   .     T
C545   C557    1.198   .     T
C546   C556    1.198   .     T
C547   C555    1.199   .     T
C548   O911    1.271   1_455 A
C548   C578    1.457   .     S
C548   O723    1.271   .     S
C549   C554    1.199   .     T
C550   C553    1.198   .     T
C551   C552    1.198   .     T
C557   C614    1.422   .     S
C559   O660    1.271   .     A
C559   C579    1.458   .     S
C559   O986    1.271   1_455 S
C561   H625    1.082   .     S
C561   C591    1.408   .     A
C561   C578    1.389   .     S
C562   H636    1.082   .     S
C562   C593    1.408   .     A
C562   C831    1.390   .     S
C563   C76     1.390   1_565 A
C563   C594    1.408   .     A
C563   H647    1.082   .     S
C564   C582    1.389   .     A
C564   H651    1.082   .     S
C564   C595    1.408   .     A
C565   C587    1.408   .     A
C565   H652    1.082   .     S
C565   C830    1.389   .     A
C566   H653    1.082   .     S
C566   C588    1.408   .     A
C566   C579    1.390   .     A
C567   C589    1.408   .     A
C567   H654    1.082   .     S
C567   C580    1.390   .     S
C568   C590    1.408   .     A
C568   H655    1.082   .     S
C568   C78     1.389   1_565 S
C569   C583    1.393   .     A
C569   H656    1.081   .     S
C569   C600    1.401   .     A
C570   C585    1.462   .     S
C570   O661    1.272   .     A
C570   O665    1.272   .     S
C571   H626    1.081   .     S
C571   C601    1.401   .     A
C571   C80     1.393   1_565 S
C572   C837    1.393   .     A
C572   H627    1.081   .     S
C572   C602    1.401   .     A
C573   H628    1.081   .     S
C573   C604    1.401   .     A
C573   C586    1.393   .     S
C574   H629    1.081   .     S
C574   C596    1.401   .     A
C574   C79     1.393   1_565 S
C575   H630    1.081   .     S
C575   C584    1.393   .     A
C575   C597    1.401   .     A
C576   C598    1.401   .     A
C576   H631    1.081   .     S
C576   C585    1.393   .     S
C577   C599    1.401   .     A
C577   H632    1.081   .     S
C577   C838    1.393   .     A
C578   C817    1.389   1_455 A
C579   C814    1.390   1_455 S
C581   O662    1.272   .     A
C581   O666    1.272   .     A
C581   C586    1.462   .     S
C583   C592    1.462   .     S
C584   C603    1.462   .     S
C585   C824    1.393   1_455 A
C586   C829    1.393   1_455 A
C587   C613    1.418   .     A
C587   C857    1.422   .     A
C588   C615    1.418   .     A
C588   C606    1.422   .     A
C589   C616    1.418   .     A
C589   C607    1.422   .     S
C590   C617    1.418   .     A
C590   C104    1.422   1_565 S
C591   C618    1.418   .     A
C591   C605    1.422   .     S
C592   O663    1.272   .     S
C592   O667    1.272   .     S
C593   C619    1.418   .     A
C593   C858    1.422   .     S
C594   C620    1.418   .     A
C594   C103    1.422   1_565 A
C595   C608    1.422   .     A
C595   C621    1.418   .     A
C596   C622    1.417   .     A
C596   C105    1.420   1_565 S
C597   C610    1.420   .     A
C597   C623    1.418   .     A
C598   C624    1.418   .     A
C598   C611    1.420   .     S
C599   C864    1.420   .     A
C600   C609    1.420   .     A
C601   C106    1.420   1_565 S
C602   C863    1.420   .     A
C603   O664    1.272   .     A
C603   O669    1.272   .     A
C604   C612    1.420   .     S
C605   C839    1.422   1_455 A
C605   C606    1.410   .     S
C606   C845    1.422   1_455 S
C607   C608    1.410   .     S
C609   C610    1.404   1_556 S
C610   C609    1.404   1_554 S
C611   C854    1.420   1_455 A
C611   C612    1.404   1_556 S
C612   C851    1.420   1_455 A
C612   C611    1.404   1_554 S
C613   C619    1.413   .     A
C614   O698    1.276   .     A
C614   O670    1.276   .     A
C615   C618    1.413   .     A
C616   C621    1.413   .     A
C617   C620    1.413   .     A
C622   C509    1.409   1_556 S
C623   C508    1.409   1_554 S
C624   C511    1.409   1_556 S
H633   O706    1.014   .     S
H634   O708    1.013   .     S
H635   O710    1.013   .     S
H637   O713    1.014   .     S
H638   O715    1.014   .     S
H639   O717    1.013   .     S
H640   O719    1.013   .     S
H641   O721    1.014   .     S
H642   O724    1.013   .     S
H643   O726    1.014   .     S
H644   O728    1.014   .     S
H645   O730    1.014   .     S
H646   O732    1.013   .     S
H648   O735    1.014   .     S
H649   O737    1.014   .     S
H650   O739    1.014   .     S
O657   Zn752   1.935   .     S
O657   Zn744   1.935   .     S
O657   Zn741   1.935   .     S
O658   Zn743   1.947   .     S
O658   C33     1.271   1_565 S
O659   C800    1.271   .     A
O659   Zn746   1.947   .     S
O660   Zn745   1.947   .     S
O661   Zn755   1.947   .     S
O662   Zn754   1.947   .     S
O663   Zn749   1.947   .     S
O664   Zn741   1.947   .     S
O665   Zn751   1.947   .     S
O666   Zn750   1.947   .     S
O667   Zn753   1.947   .     S
O668   Zn747   1.935   .     S
O668   Zn749   1.935   .     S
O668   Zn753   1.935   .     S
O669   Zn752   1.947   .     S
O670   Zn744   1.915   .     S
O671   Zn743   1.915   .     S
O672   Zn746   1.916   .     S
O673   Zn745   1.916   .     S
O674   Zn748   1.915   .     S
O675   Zn747   1.915   .     S
O676   Zn742   1.916   .     S
O677   Zn756   1.916   .     S
O678   Zn743   1.916   .     S
O679   Zn998   1.935   1_455 S
O679   Zn750   1.935   .     S
O679   Zn754   1.935   .     S
O679   Zn742   1.935   .     S
O680   Zn744   1.916   .     S
O681   Zn756   1.915   .     S
O682   Zn742   1.915   .     S
O683   Zn747   1.916   .     S
O684   Zn748   1.916   .     S
O685   Zn745   1.915   .     S
O686   Zn746   1.915   .     S
O687   Zn1003  1.915   .     S
O688   Zn750   1.915   .     S
O689   Zn249   1.916   1_565 S
O690   Zn1008  1.935   1_455 S
O690   Zn755   1.935   .     S
O690   Zn751   1.935   .     S
O690   Zn745   1.935   .     S
O691   Zn752   1.916   .     S
O692   Zn755   1.915   .     S
O693   Zn1006  1.915   .     S
O694   Zn749   1.916   .     S
O695   Zn237   1.916   1_565 S
O696   Zn1002  1.916   .     S
O697   Zn751   1.916   .     S
O698   Zn741   1.915   .     S
O699   Zn245   1.915   1_565 S
O700   Zn754   1.916   .     S
O701   Zn748   1.947   .     S
O701   C1      1.271   1_565 A
O702   Zn1007  1.916   .     S
O703   Zn248   1.915   1_565 S
O704   Zn753   1.915   .     S
O706   C764    1.398   1_455 S
O707   C765    1.223   .     S
O709   C10     1.223   1_565 S
O712   Zn747   1.947   .     S
O715   C768    1.398   .     S
O716   C770    1.223   1_455 S
O721   C16     1.398   1_565 S
O723   Zn742   1.947   .     S
O726   C18     1.398   1_565 S
O728   C775    1.398   .     S
O729   C776    1.223   1_455 S
O731   C21     1.223   1_565 S
O734   Zn756   1.947   .     S
O734   C811    1.271   .     S
O737   C779    1.398   1_455 S
O738   C781    1.223   .     S
O740   Zn744   1.947   .     S
Zn743  O164    1.935   1_565 S
Zn746  O931    1.935   .     S
Zn748  O153    1.935   1_565 S
Zn750  O948    1.916   1_455 S
Zn751  O939    1.915   1_455 S
Zn754  O945    1.915   1_455 S
Zn755  O954    1.916   1_455 S
Zn756  O942    1.935   .     S
C757   C832    1.458   .     S
C757   O992    1.271   .     S
C758   O951    1.276   .     A
C758   C808    1.422   .     S
C758   O923    1.276   .     A
C759   C776    1.488   .     S
C759   C851    1.417   .     A
C759   C762    1.409   1_554 S
C760   C852    1.417   .     A
C760   C777    1.488   .     S
C760   C875    1.409   1_556 S
C761   C778    1.489   .     S
C761   C853    1.418   .     A
C761   C874    1.409   1_554 S
C762   C854    1.418   .     A
C762   C779    1.489   .     S
C762   C759    1.409   1_556 S
C763   C856    1.417   .     A
C763   C781    1.488   .     S
C763   C876    1.409   1_554 S
C764   O957    1.223   .     D
C764   C865    1.488   .     S
C764   O706    1.398   1_655 S
C765   C867    1.488   .     S
C765   O960    1.398   .     S
C766   C868    1.488   .     S
C766   O962    1.398   .     S
C767   O963    1.223   .     D
C767   C869    1.488   .     S
C767   O461    1.398   1_565 S
C768   C870    1.488   .     S
C768   O966    1.223   .     D
C769   O948    1.276   .     A
C769   C807    1.423   .     S
C769   O924    1.276   .     A
C770   C871    1.488   .     S
C770   O969    1.398   .     S
C770   O716    1.223   1_655 S
C771   O971    1.398   .     S
C771   C872    1.488   .     S
C771   O466    1.223   1_565 S
C772   O972    1.223   .     D
C772   C873    1.488   .     S
C773   O976    1.398   .     S
C773   C874    1.488   .     S
C773   O470    1.223   1_565 S
C774   O977    1.223   .     D
C774   C875    1.489   .     S
C775   O979    1.223   .     D
C775   C876    1.489   .     S
C776   O982    1.398   .     S
C776   O729    1.223   1_655 S
C777   O984    1.398   .     S
C778   O985    1.223   .     D
C778   O483    1.398   1_565 S
C779   O988    1.223   .     D
C779   O737    1.398   1_655 S
C780   C806    1.423   .     S
C780   O925    1.276   .     A
C780   O949    1.276   .     A
C781   O991    1.398   .     S
C782   O926    1.276   .     A
C782   C805    1.422   .     S
C782   O955    1.276   .     A
C783   C804    1.422   .     S
C783   O927    1.276   .     A
C783   O956    1.276   .     A
C784   C812    1.423   .     S
C784   O928    1.276   .     A
C784   O952    1.276   .     A
C785   O929    1.276   .     A
C785   O954    1.276   .     A
C785   C810    1.423   .     S
C786   C801    1.423   .     S
C786   O941    1.276   .     A
C786   O930    1.276   .     A
C787   C799    1.423   .     S
C787   O932    1.276   .     A
C787   O943    1.276   .     A
C788   O939    1.276   .     A
C788   O933    1.276   .     A
C788   C798    1.422   .     S
C789   O964    1.271   .     A
C789   C834    1.457   .     S
C790   C797    1.422   .     S
C790   O940    1.276   .     A
C790   O934    1.276   .     A
C791   O935    1.276   .     A
C791   O946    1.276   .     A
C791   C796    1.423   .     S
C792   O947    1.276   .     A
C792   O936    1.276   .     A
C792   C795    1.423   .     S
C793   O944    1.276   .     A
C793   C803    1.422   .     S
C793   O937    1.276   .     A
C794   O938    1.276   .     A
C794   O945    1.276   .     A
C794   C802    1.422   .     S
C795   C812    1.199   .     T
C796   C810    1.199   .     T
C797   C809    1.198   .     T
C798   C808    1.198   .     T
C799   C807    1.199   .     T
C800   C830    1.457   .     S
C800   O975    1.271   .     S
C801   C806    1.199   .     T
C802   C805    1.198   .     T
C803   C804    1.198   .     T
C809   C866    1.422   .     S
C811   O912    1.271   .     A
C811   C831    1.458   .     S
C813   H877    1.082   .     S
C813   C843    1.408   .     A
C813   C830    1.389   .     S
C814   H888    1.082   .     S
C814   C845    1.408   .     A
C814   C579    1.390   1_655 S
C815   C328    1.390   1_565 A
C815   C846    1.408   .     A
C815   H899    1.082   .     S
C816   C834    1.389   .     A
C816   H903    1.082   .     S
C816   C847    1.408   .     A
C817   C839    1.408   .     A
C817   H904    1.082   .     S
C817   C578    1.389   1_655 A
C818   H905    1.082   .     S
C818   C840    1.408   .     A
C818   C831    1.390   .     A
C819   C841    1.408   .     A
C819   H906    1.082   .     S
C819   C832    1.390   .     S
C820   C842    1.408   .     A
C820   H907    1.082   .     S
C820   C330    1.389   1_565 S
C821   C835    1.393   .     A
C821   H908    1.081   .     S
C821   C852    1.401   .     A
C822   C837    1.462   .     S
C822   O913    1.272   .     A
C822   O917    1.272   .     S
C823   H878    1.081   .     S
C823   C853    1.401   .     A
C823   C332    1.393   1_565 S
C824   C585    1.393   1_655 A
C824   H879    1.081   .     S
C824   C854    1.401   .     A
C825   H880    1.081   .     S
C825   C856    1.401   .     A
C825   C838    1.393   .     S
C826   H881    1.081   .     S
C826   C848    1.401   .     A
C826   C331    1.393   1_565 S
C827   H882    1.081   .     S
C827   C836    1.393   .     A
C827   C849    1.401   .     A
C828   C850    1.401   .     A
C828   H883    1.081   .     S
C828   C837    1.393   .     S
C829   C851    1.401   .     A
C829   H884    1.081   .     S
C829   C586    1.393   1_655 A
C833   O914    1.272   .     A
C833   O918    1.272   .     A
C833   C838    1.462   .     S
C835   C844    1.462   .     S
C836   C855    1.462   .     S
C839   C865    1.418   .     A
C839   C605    1.422   1_655 A
C840   C867    1.418   .     A
C840   C858    1.422   .     A
C841   C868    1.418   .     A
C841   C859    1.422   .     S
C842   C869    1.418   .     A
C842   C356    1.422   1_565 S
C843   C870    1.418   .     A
C843   C857    1.422   .     S
C844   O915    1.272   .     S
C844   O919    1.272   .     S
C845   C871    1.418   .     A
C845   C606    1.422   1_655 S
C846   C872    1.418   .     A
C846   C355    1.422   1_565 A
C847   C860    1.422   .     A
C847   C873    1.418   .     A
C848   C874    1.417   .     A
C848   C357    1.420   1_565 S
C849   C862    1.420   .     A
C849   C875    1.418   .     A
C850   C876    1.418   .     A
C850   C863    1.420   .     S
C851   C612    1.420   1_655 A
C852   C861    1.420   .     A
C853   C358    1.420   1_565 S
C854   C611    1.420   1_655 A
C855   O916    1.272   .     A
C855   O921    1.272   .     A
C856   C864    1.420   .     S
C857   C858    1.410   .     S
C859   C860    1.410   .     S
C861   C862    1.404   1_556 S
C862   C861    1.404   1_554 S
C863   C864    1.404   1_556 S
C864   C863    1.404   1_554 S
C865   C871    1.413   .     A
C866   O950    1.276   .     A
C866   O922    1.276   .     A
C867   C870    1.413   .     A
C868   C873    1.413   .     A
C869   C872    1.413   .     A
C874   C761    1.409   1_556 S
C875   C760    1.409   1_554 S
C876   C763    1.409   1_556 S
H885   O958    1.014   .     S
H886   O960    1.013   .     S
H887   O962    1.013   .     S
H889   O965    1.014   .     S
H890   O967    1.014   .     S
H891   O969    1.013   .     S
H892   O971    1.013   .     S
H893   O973    1.014   .     S
H894   O976    1.013   .     S
H895   O978    1.014   .     S
H896   O980    1.014   .     S
H897   O982    1.014   .     S
H898   O984    1.013   .     S
H900   O987    1.014   .     S
H901   O989    1.014   .     S
H902   O991    1.014   .     S
O909   Zn1004  1.935   .     S
O909   Zn996   1.935   .     S
O909   Zn993   1.935   .     S
O910   Zn995   1.947   .     S
O910   C285    1.271   1_565 S
O911   C548    1.271   1_655 A
O911   Zn998   1.947   .     S
O912   Zn997   1.947   .     S
O913   Zn1007  1.947   .     S
O914   Zn1006  1.947   .     S
O915   Zn1001  1.947   .     S
O916   Zn993   1.947   .     S
O917   Zn1003  1.947   .     S
O918   Zn1002  1.947   .     S
O919   Zn1005  1.947   .     S
O920   Zn999   1.935   .     S
O920   Zn1001  1.935   .     S
O920   Zn1005  1.935   .     S
O921   Zn1004  1.947   .     S
O922   Zn996   1.915   .     S
O923   Zn995   1.915   .     S
O924   Zn998   1.916   .     S
O925   Zn997   1.916   .     S
O926   Zn1000  1.915   .     S
O927   Zn999   1.915   .     S
O928   Zn994   1.916   .     S
O929   Zn1008  1.916   .     S
O930   Zn995   1.916   .     S
O931   Zn1002  1.935   .     S
O931   Zn1006  1.935   .     S
O931   Zn994   1.935   .     S
O932   Zn996   1.916   .     S
O933   Zn1008  1.915   .     S
O934   Zn994   1.915   .     S
O935   Zn999   1.916   .     S
O936   Zn1000  1.916   .     S
O937   Zn997   1.915   .     S
O938   Zn998   1.915   .     S
O939   Zn751   1.915   1_655 S
O940   Zn1002  1.915   .     S
O941   Zn501   1.916   1_565 S
O942   Zn1007  1.935   .     S
O942   Zn1003  1.935   .     S
O942   Zn997   1.935   .     S
O943   Zn1004  1.916   .     S
O944   Zn1007  1.915   .     S
O945   Zn754   1.915   1_655 S
O946   Zn1001  1.916   .     S
O947   Zn489   1.916   1_565 S
O948   Zn750   1.916   1_655 S
O949   Zn1003  1.916   .     S
O950   Zn993   1.915   .     S
O951   Zn497   1.915   1_565 S
O952   Zn1006  1.916   .     S
O953   Zn1000  1.947   .     S
O953   C253    1.271   1_565 A
O954   Zn755   1.916   1_655 S
O955   Zn500   1.915   1_565 S
O956   Zn1005  1.915   .     S
O959   C513    1.223   1_655 S
O961   C262    1.223   1_565 S
O964   Zn999   1.947   .     S
O967   C516    1.398   1_655 S
O973   C268    1.398   1_565 S
O975   Zn994   1.947   .     S
O978   C270    1.398   1_565 S
O980   C523    1.398   1_655 S
O983   C273    1.223   1_565 S
O986   Zn1008  1.947   .     S
O986   C559    1.271   1_655 S
O990   C529    1.223   1_655 S
O992   Zn996   1.947   .     S
Zn995  O416    1.935   1_565 S
Zn998  O679    1.935   1_655 S
Zn1000 O405    1.935   1_565 S
Zn1008 O690    1.935   1_655 S
