data_str_m3_o1_o10_pcu_sym.138
_audit_creation_date              2020-01-03
_audit_creation_method            'Materials Studio'
_symmetry_space_group_name_H-M    'P1'
_symmetry_Int_Tables_number       1
_symmetry_cell_setting            triclinic
loop_
_symmetry_equiv_pos_as_xyz
  x,y,z
_cell_length_a                    25.7709
_cell_length_b                    32.2103
_cell_length_c                    29.7526
_cell_angle_alpha                 89.9764
_cell_angle_beta                  98.1997
_cell_angle_gamma                 92.1793
loop_
_atom_site_label
_atom_site_type_symbol
_atom_site_fract_x
_atom_site_fract_y
_atom_site_fract_z
_atom_site_U_iso_or_equiv
_atom_site_adp_type
_atom_site_occupancy
C1     C     0.16782   0.08673   0.16691   0.00000  Uiso   1.00
C2     C     0.16610   0.24663   0.16670   0.00000  Uiso   1.00
C3     C     0.06715   0.16670   0.15479   0.00000  Uiso   1.00
C4     C     0.26617   0.16824   0.17834   0.00000  Uiso   1.00
C5     C     0.01207   0.16515   0.14836   0.00000  Uiso   1.00
C6     C     0.32111   0.17307   0.18366   0.00000  Uiso   1.00
C7     C     0.17267   0.02132   0.12741   0.00000  Uiso   1.00
C8     C     0.16542   0.31197   0.20808   0.00000  Uiso   1.00
C9     C     0.16809   0.31225   0.12666   0.00000  Uiso   1.00
C10    C     0.16646   0.02127   0.20822   0.00000  Uiso   1.00
C11    C     0.16603   0.29084   0.16710   0.00000  Uiso   1.00
C12    C     0.16948   0.04257   0.16763   0.00000  Uiso   1.00
C13    C     0.20138   0.19204   0.02847   0.00000  Uiso   1.00
C14    C     0.13303   0.14049   0.30509   0.00000  Uiso   1.00
C15    C     0.20127   0.19206   0.31341   0.00000  Uiso   1.00
C16    C     0.13209   0.14130   0.01989   0.00000  Uiso   1.00
H17    H     0.32507   0.15560   0.11521   0.00000  Uiso   1.00
H18    H     0.00836   0.18360   0.21613   0.00000  Uiso   1.00
H19    H     0.17809   0.03729   0.09647   0.00000  Uiso   1.00
H20    H     0.16368   0.29576   0.23977   0.00000  Uiso   1.00
H21    H     0.16636   0.29643   0.09454   0.00000  Uiso   1.00
H22    H     0.16495   0.03734   0.23993   0.00000  Uiso   1.00
N23    N     0.16665   0.16666   0.28573   0.00000  Uiso   1.00
N24    N     0.16668   0.16668   0.04760   0.00000  Uiso   1.00
O25    O     0.16666   0.10558   0.20487   0.00000  Uiso   1.00
O26    O     0.16667   0.22775   0.12846   0.00000  Uiso   1.00
O27    O     0.16666   0.10559   0.12843   0.00000  Uiso   1.00
O28    O     0.16667   0.22774   0.20490   0.00000  Uiso   1.00
O29    O     0.09058   0.16666   0.19595   0.00000  Uiso   1.00
O30    O     0.24275   0.16667   0.13739   0.00000  Uiso   1.00
O31    O     0.09058   0.16667   0.11950   0.00000  Uiso   1.00
O32    O     0.24275   0.16666   0.21383   0.00000  Uiso   1.00
Zn33   Zn    0.16667   0.16666   0.21771   0.00000  Uiso   1.00
Zn34   Zn    0.16667   0.16667   0.11563   0.00000  Uiso   1.00
N35    N     0.23979   0.21559   0.05798   0.00000  Uiso   1.00
H36    H     0.27560   0.20216   0.06527   0.00000  Uiso   1.00
C37    C     0.24210   0.26030   0.05334   0.00000  Uiso   1.00
H38    H     0.24990   0.27456   0.08765   0.00000  Uiso   1.00
H39    H     0.20486   0.27175   0.03489   0.00000  Uiso   1.00
H40    H     0.27509   0.27030   0.03515   0.00000  Uiso   1.00
N41    N     0.10223   0.11037   0.27706   0.00000  Uiso   1.00
H42    H     0.11295   0.08017   0.28309   0.00000  Uiso   1.00
C43    C     0.04619   0.11539   0.26942   0.00000  Uiso   1.00
H44    H     0.03129   0.10859   0.23330   0.00000  Uiso   1.00
H45    H     0.03655   0.14731   0.27818   0.00000  Uiso   1.00
H46    H     0.02586   0.09312   0.28998   0.00000  Uiso   1.00
N47    N     0.23731   0.21772   0.29302   0.00000  Uiso   1.00
H48    H     0.23271   0.24917   0.29599   0.00000  Uiso   1.00
C49    C     0.29126   0.20541   0.30021   0.00000  Uiso   1.00
H50    H     0.31132   0.21513   0.00080   0.00000  Uiso   1.00
H51    H     0.31267   0.22080   0.27462   0.00000  Uiso   1.00
H52    H     0.29308   0.17120   0.29685   0.00000  Uiso   1.00
N53    N     0.09315   0.11793   0.03943   0.00000  Uiso   1.00
H54    H     0.05556   0.12810   0.03122   0.00000  Uiso   1.00
C55    C     0.09692   0.07321   0.04048   0.00000  Uiso   1.00
H56    H     0.06530   0.05813   0.01612   0.00000  Uiso   1.00
H57    H     0.09142   0.06198   0.07474   0.00000  Uiso   1.00
H58    H     0.13532   0.06356   0.03202   0.00000  Uiso   1.00
C59    C     0.50116   0.08673   0.16691   0.00000  Uiso   1.00
C60    C     0.49943   0.24663   0.16670   0.00000  Uiso   1.00
C61    C     0.40049   0.16670   0.15479   0.00000  Uiso   1.00
C62    C     0.59951   0.16824   0.17834   0.00000  Uiso   1.00
C63    C     0.34541   0.16515   0.14836   0.00000  Uiso   1.00
C64    C     0.65445   0.17307   0.18366   0.00000  Uiso   1.00
C65    C     0.50601   0.02132   0.12741   0.00000  Uiso   1.00
C66    C     0.49875   0.31197   0.20808   0.00000  Uiso   1.00
C67    C     0.50142   0.31225   0.12666   0.00000  Uiso   1.00
C68    C     0.49980   0.02127   0.20822   0.00000  Uiso   1.00
C69    C     0.49936   0.29084   0.16710   0.00000  Uiso   1.00
C70    C     0.50281   0.04257   0.16763   0.00000  Uiso   1.00
C71    C     0.53471   0.19204   0.02847   0.00000  Uiso   1.00
C72    C     0.46636   0.14049   0.30509   0.00000  Uiso   1.00
C73    C     0.53460   0.19206   0.31341   0.00000  Uiso   1.00
C74    C     0.46542   0.14130   0.01989   0.00000  Uiso   1.00
H75    H     0.65841   0.15560   0.11521   0.00000  Uiso   1.00
H76    H     0.34170   0.18360   0.21613   0.00000  Uiso   1.00
H77    H     0.51142   0.03729   0.09647   0.00000  Uiso   1.00
H78    H     0.49701   0.29576   0.23977   0.00000  Uiso   1.00
H79    H     0.49970   0.29643   0.09454   0.00000  Uiso   1.00
H80    H     0.49828   0.03734   0.23993   0.00000  Uiso   1.00
N81    N     0.49999   0.16666   0.28573   0.00000  Uiso   1.00
N82    N     0.50001   0.16668   0.04760   0.00000  Uiso   1.00
O83    O     0.50000   0.10558   0.20487   0.00000  Uiso   1.00
O84    O     0.50000   0.22775   0.12846   0.00000  Uiso   1.00
O85    O     0.50000   0.10559   0.12843   0.00000  Uiso   1.00
O86    O     0.50000   0.22774   0.20490   0.00000  Uiso   1.00
O87    O     0.42392   0.16666   0.19595   0.00000  Uiso   1.00
O88    O     0.57608   0.16667   0.13739   0.00000  Uiso   1.00
O89    O     0.42392   0.16667   0.11950   0.00000  Uiso   1.00
O90    O     0.57608   0.16666   0.21383   0.00000  Uiso   1.00
Zn91   Zn    0.50000   0.16666   0.21771   0.00000  Uiso   1.00
Zn92   Zn    0.50000   0.16667   0.11563   0.00000  Uiso   1.00
N93    N     0.57312   0.21559   0.05798   0.00000  Uiso   1.00
H94    H     0.60893   0.20216   0.06527   0.00000  Uiso   1.00
C95    C     0.57544   0.26030   0.05334   0.00000  Uiso   1.00
H96    H     0.58324   0.27456   0.08765   0.00000  Uiso   1.00
H97    H     0.53819   0.27175   0.03489   0.00000  Uiso   1.00
H98    H     0.60843   0.27030   0.03515   0.00000  Uiso   1.00
N99    N     0.43557   0.11037   0.27706   0.00000  Uiso   1.00
H100   H     0.44628   0.08017   0.28309   0.00000  Uiso   1.00
C101   C     0.37952   0.11539   0.26942   0.00000  Uiso   1.00
H102   H     0.36462   0.10859   0.23330   0.00000  Uiso   1.00
H103   H     0.36988   0.14731   0.27818   0.00000  Uiso   1.00
H104   H     0.35920   0.09312   0.28998   0.00000  Uiso   1.00
N105   N     0.57064   0.21772   0.29302   0.00000  Uiso   1.00
H106   H     0.56604   0.24917   0.29599   0.00000  Uiso   1.00
C107   C     0.62459   0.20541   0.30021   0.00000  Uiso   1.00
H108   H     0.64465   0.21513   0.00080   0.00000  Uiso   1.00
H109   H     0.64600   0.22080   0.27462   0.00000  Uiso   1.00
H110   H     0.62642   0.17120   0.29685   0.00000  Uiso   1.00
N111   N     0.42649   0.11793   0.03943   0.00000  Uiso   1.00
H112   H     0.38889   0.12810   0.03122   0.00000  Uiso   1.00
C113   C     0.43025   0.07321   0.04048   0.00000  Uiso   1.00
H114   H     0.39863   0.05813   0.01612   0.00000  Uiso   1.00
H115   H     0.42475   0.06198   0.07474   0.00000  Uiso   1.00
H116   H     0.46865   0.06356   0.03202   0.00000  Uiso   1.00
C117   C     0.83449   0.08673   0.16691   0.00000  Uiso   1.00
C118   C     0.83276   0.24663   0.16670   0.00000  Uiso   1.00
C119   C     0.73382   0.16670   0.15479   0.00000  Uiso   1.00
C120   C     0.93284   0.16824   0.17834   0.00000  Uiso   1.00
C121   C     0.67874   0.16515   0.14836   0.00000  Uiso   1.00
C122   C     0.98778   0.17307   0.18366   0.00000  Uiso   1.00
C123   C     0.83934   0.02132   0.12741   0.00000  Uiso   1.00
C124   C     0.83208   0.31197   0.20808   0.00000  Uiso   1.00
C125   C     0.83475   0.31225   0.12666   0.00000  Uiso   1.00
C126   C     0.83313   0.02127   0.20822   0.00000  Uiso   1.00
C127   C     0.83269   0.29084   0.16710   0.00000  Uiso   1.00
C128   C     0.83614   0.04257   0.16763   0.00000  Uiso   1.00
C129   C     0.86804   0.19204   0.02847   0.00000  Uiso   1.00
C130   C     0.79970   0.14049   0.30509   0.00000  Uiso   1.00
C131   C     0.86794   0.19206   0.31341   0.00000  Uiso   1.00
C132   C     0.79875   0.14130   0.01989   0.00000  Uiso   1.00
H133   H     0.99174   0.15560   0.11521   0.00000  Uiso   1.00
H134   H     0.67503   0.18360   0.21613   0.00000  Uiso   1.00
H135   H     0.84476   0.03729   0.09647   0.00000  Uiso   1.00
H136   H     0.83034   0.29576   0.23977   0.00000  Uiso   1.00
H137   H     0.83303   0.29643   0.09454   0.00000  Uiso   1.00
H138   H     0.83162   0.03734   0.23993   0.00000  Uiso   1.00
N139   N     0.83332   0.16666   0.28573   0.00000  Uiso   1.00
N140   N     0.83335   0.16668   0.04760   0.00000  Uiso   1.00
O141   O     0.83333   0.10558   0.20487   0.00000  Uiso   1.00
O142   O     0.83334   0.22775   0.12846   0.00000  Uiso   1.00
O143   O     0.83333   0.10559   0.12843   0.00000  Uiso   1.00
O144   O     0.83334   0.22774   0.20490   0.00000  Uiso   1.00
O145   O     0.75725   0.16666   0.19595   0.00000  Uiso   1.00
O146   O     0.90942   0.16667   0.13739   0.00000  Uiso   1.00
O147   O     0.75725   0.16667   0.11950   0.00000  Uiso   1.00
O148   O     0.90942   0.16666   0.21383   0.00000  Uiso   1.00
Zn149  Zn    0.83333   0.16666   0.21771   0.00000  Uiso   1.00
Zn150  Zn    0.83333   0.16667   0.11563   0.00000  Uiso   1.00
N151   N     0.90645   0.21559   0.05798   0.00000  Uiso   1.00
H152   H     0.94226   0.20216   0.06527   0.00000  Uiso   1.00
C153   C     0.90877   0.26030   0.05334   0.00000  Uiso   1.00
H154   H     0.91657   0.27456   0.08765   0.00000  Uiso   1.00
H155   H     0.87153   0.27175   0.03489   0.00000  Uiso   1.00
H156   H     0.94176   0.27030   0.03515   0.00000  Uiso   1.00
N157   N     0.76890   0.11037   0.27706   0.00000  Uiso   1.00
H158   H     0.77962   0.08017   0.28309   0.00000  Uiso   1.00
C159   C     0.71285   0.11539   0.26942   0.00000  Uiso   1.00
H160   H     0.69795   0.10859   0.23330   0.00000  Uiso   1.00
H161   H     0.70321   0.14731   0.27818   0.00000  Uiso   1.00
H162   H     0.69253   0.09312   0.28998   0.00000  Uiso   1.00
N163   N     0.90398   0.21772   0.29302   0.00000  Uiso   1.00
H164   H     0.89937   0.24917   0.29599   0.00000  Uiso   1.00
C165   C     0.95792   0.20541   0.30021   0.00000  Uiso   1.00
H166   H     0.97798   0.21513   0.00080   0.00000  Uiso   1.00
H167   H     0.97934   0.22080   0.27462   0.00000  Uiso   1.00
H168   H     0.95975   0.17120   0.29685   0.00000  Uiso   1.00
N169   N     0.75982   0.11793   0.03943   0.00000  Uiso   1.00
H170   H     0.72222   0.12810   0.03122   0.00000  Uiso   1.00
C171   C     0.76358   0.07321   0.04048   0.00000  Uiso   1.00
H172   H     0.73197   0.05813   0.01612   0.00000  Uiso   1.00
H173   H     0.75809   0.06198   0.07474   0.00000  Uiso   1.00
H174   H     0.80199   0.06356   0.03202   0.00000  Uiso   1.00
C175   C     0.16782   0.42006   0.16691   0.00000  Uiso   1.00
C176   C     0.16610   0.57996   0.16670   0.00000  Uiso   1.00
C177   C     0.06715   0.50003   0.15479   0.00000  Uiso   1.00
C178   C     0.26617   0.50157   0.17834   0.00000  Uiso   1.00
C179   C     0.01207   0.49848   0.14836   0.00000  Uiso   1.00
C180   C     0.32111   0.50641   0.18366   0.00000  Uiso   1.00
C181   C     0.17267   0.35465   0.12741   0.00000  Uiso   1.00
C182   C     0.16542   0.64530   0.20808   0.00000  Uiso   1.00
C183   C     0.16809   0.64558   0.12666   0.00000  Uiso   1.00
C184   C     0.16646   0.35461   0.20822   0.00000  Uiso   1.00
C185   C     0.16603   0.62417   0.16710   0.00000  Uiso   1.00
C186   C     0.16948   0.37590   0.16763   0.00000  Uiso   1.00
C187   C     0.20138   0.52537   0.02847   0.00000  Uiso   1.00
C188   C     0.13303   0.47383   0.30509   0.00000  Uiso   1.00
C189   C     0.20127   0.52539   0.31341   0.00000  Uiso   1.00
C190   C     0.13209   0.47463   0.01989   0.00000  Uiso   1.00
H191   H     0.32507   0.48893   0.11521   0.00000  Uiso   1.00
H192   H     0.00836   0.51694   0.21613   0.00000  Uiso   1.00
H193   H     0.17809   0.37062   0.09647   0.00000  Uiso   1.00
H194   H     0.16368   0.62909   0.23977   0.00000  Uiso   1.00
H195   H     0.16636   0.62976   0.09454   0.00000  Uiso   1.00
H196   H     0.16495   0.37067   0.23993   0.00000  Uiso   1.00
N197   N     0.16665   0.49999   0.28573   0.00000  Uiso   1.00
N198   N     0.16668   0.50001   0.04760   0.00000  Uiso   1.00
O199   O     0.16666   0.43892   0.20487   0.00000  Uiso   1.00
O200   O     0.16667   0.56108   0.12846   0.00000  Uiso   1.00
O201   O     0.16666   0.43893   0.12843   0.00000  Uiso   1.00
O202   O     0.16667   0.56107   0.20490   0.00000  Uiso   1.00
O203   O     0.09058   0.50000   0.19595   0.00000  Uiso   1.00
O204   O     0.24275   0.50000   0.13739   0.00000  Uiso   1.00
O205   O     0.09058   0.50000   0.11950   0.00000  Uiso   1.00
O206   O     0.24275   0.50000   0.21383   0.00000  Uiso   1.00
Zn207  Zn    0.16667   0.49999   0.21771   0.00000  Uiso   1.00
Zn208  Zn    0.16667   0.50001   0.11563   0.00000  Uiso   1.00
N209   N     0.23979   0.54893   0.05798   0.00000  Uiso   1.00
H210   H     0.27560   0.53549   0.06527   0.00000  Uiso   1.00
C211   C     0.24210   0.59363   0.05334   0.00000  Uiso   1.00
H212   H     0.24990   0.60790   0.08765   0.00000  Uiso   1.00
H213   H     0.20486   0.60508   0.03489   0.00000  Uiso   1.00
H214   H     0.27509   0.60364   0.03515   0.00000  Uiso   1.00
N215   N     0.10223   0.44370   0.27706   0.00000  Uiso   1.00
H216   H     0.11295   0.41350   0.28309   0.00000  Uiso   1.00
C217   C     0.04619   0.44872   0.26942   0.00000  Uiso   1.00
H218   H     0.03129   0.44192   0.23330   0.00000  Uiso   1.00
H219   H     0.03655   0.48065   0.27818   0.00000  Uiso   1.00
H220   H     0.02586   0.42645   0.28998   0.00000  Uiso   1.00
N221   N     0.23731   0.55106   0.29302   0.00000  Uiso   1.00
H222   H     0.23271   0.58250   0.29599   0.00000  Uiso   1.00
C223   C     0.29126   0.53874   0.30021   0.00000  Uiso   1.00
H224   H     0.31132   0.54846   0.00080   0.00000  Uiso   1.00
H225   H     0.31267   0.55413   0.27462   0.00000  Uiso   1.00
H226   H     0.29308   0.50453   0.29685   0.00000  Uiso   1.00
N227   N     0.09315   0.45126   0.03943   0.00000  Uiso   1.00
H228   H     0.05556   0.46144   0.03122   0.00000  Uiso   1.00
C229   C     0.09692   0.40655   0.04048   0.00000  Uiso   1.00
H230   H     0.06530   0.39146   0.01612   0.00000  Uiso   1.00
H231   H     0.09142   0.39531   0.07474   0.00000  Uiso   1.00
H232   H     0.13532   0.39689   0.03202   0.00000  Uiso   1.00
C233   C     0.50116   0.42006   0.16691   0.00000  Uiso   1.00
C234   C     0.49943   0.57996   0.16670   0.00000  Uiso   1.00
C235   C     0.40049   0.50003   0.15479   0.00000  Uiso   1.00
C236   C     0.59951   0.50157   0.17834   0.00000  Uiso   1.00
C237   C     0.34541   0.49848   0.14836   0.00000  Uiso   1.00
C238   C     0.65445   0.50641   0.18366   0.00000  Uiso   1.00
C239   C     0.50601   0.35465   0.12741   0.00000  Uiso   1.00
C240   C     0.49875   0.64530   0.20808   0.00000  Uiso   1.00
C241   C     0.50142   0.64558   0.12666   0.00000  Uiso   1.00
C242   C     0.49980   0.35461   0.20822   0.00000  Uiso   1.00
C243   C     0.49936   0.62417   0.16710   0.00000  Uiso   1.00
C244   C     0.50281   0.37590   0.16763   0.00000  Uiso   1.00
C245   C     0.53471   0.52537   0.02847   0.00000  Uiso   1.00
C246   C     0.46636   0.47383   0.30509   0.00000  Uiso   1.00
C247   C     0.53460   0.52539   0.31341   0.00000  Uiso   1.00
C248   C     0.46542   0.47463   0.01989   0.00000  Uiso   1.00
H249   H     0.65841   0.48893   0.11521   0.00000  Uiso   1.00
H250   H     0.34170   0.51694   0.21613   0.00000  Uiso   1.00
H251   H     0.51142   0.37062   0.09647   0.00000  Uiso   1.00
H252   H     0.49701   0.62909   0.23977   0.00000  Uiso   1.00
H253   H     0.49970   0.62976   0.09454   0.00000  Uiso   1.00
H254   H     0.49828   0.37067   0.23993   0.00000  Uiso   1.00
N255   N     0.49999   0.49999   0.28573   0.00000  Uiso   1.00
N256   N     0.50001   0.50001   0.04760   0.00000  Uiso   1.00
O257   O     0.50000   0.43892   0.20487   0.00000  Uiso   1.00
O258   O     0.50000   0.56108   0.12846   0.00000  Uiso   1.00
O259   O     0.50000   0.43893   0.12843   0.00000  Uiso   1.00
O260   O     0.50000   0.56107   0.20490   0.00000  Uiso   1.00
O261   O     0.42392   0.50000   0.19595   0.00000  Uiso   1.00
O262   O     0.57608   0.50000   0.13739   0.00000  Uiso   1.00
O263   O     0.42392   0.50000   0.11950   0.00000  Uiso   1.00
O264   O     0.57608   0.50000   0.21383   0.00000  Uiso   1.00
Zn265  Zn    0.50000   0.49999   0.21771   0.00000  Uiso   1.00
Zn266  Zn    0.50000   0.50001   0.11563   0.00000  Uiso   1.00
N267   N     0.57312   0.54893   0.05798   0.00000  Uiso   1.00
H268   H     0.60893   0.53549   0.06527   0.00000  Uiso   1.00
C269   C     0.57544   0.59363   0.05334   0.00000  Uiso   1.00
H270   H     0.58324   0.60790   0.08765   0.00000  Uiso   1.00
H271   H     0.53819   0.60508   0.03489   0.00000  Uiso   1.00
H272   H     0.60843   0.60364   0.03515   0.00000  Uiso   1.00
N273   N     0.43557   0.44370   0.27706   0.00000  Uiso   1.00
H274   H     0.44628   0.41350   0.28309   0.00000  Uiso   1.00
C275   C     0.37952   0.44872   0.26942   0.00000  Uiso   1.00
H276   H     0.36462   0.44192   0.23330   0.00000  Uiso   1.00
H277   H     0.36988   0.48065   0.27818   0.00000  Uiso   1.00
H278   H     0.35920   0.42645   0.28998   0.00000  Uiso   1.00
N279   N     0.57064   0.55106   0.29302   0.00000  Uiso   1.00
H280   H     0.56604   0.58250   0.29599   0.00000  Uiso   1.00
C281   C     0.62459   0.53874   0.30021   0.00000  Uiso   1.00
H282   H     0.64465   0.54846   0.00080   0.00000  Uiso   1.00
H283   H     0.64600   0.55413   0.27462   0.00000  Uiso   1.00
H284   H     0.62642   0.50453   0.29685   0.00000  Uiso   1.00
N285   N     0.42649   0.45126   0.03943   0.00000  Uiso   1.00
H286   H     0.38889   0.46144   0.03122   0.00000  Uiso   1.00
C287   C     0.43025   0.40655   0.04048   0.00000  Uiso   1.00
H288   H     0.39863   0.39146   0.01612   0.00000  Uiso   1.00
H289   H     0.42475   0.39531   0.07474   0.00000  Uiso   1.00
H290   H     0.46865   0.39689   0.03202   0.00000  Uiso   1.00
C291   C     0.83449   0.42006   0.16691   0.00000  Uiso   1.00
C292   C     0.83276   0.57996   0.16670   0.00000  Uiso   1.00
C293   C     0.73382   0.50003   0.15479   0.00000  Uiso   1.00
C294   C     0.93284   0.50157   0.17834   0.00000  Uiso   1.00
C295   C     0.67874   0.49848   0.14836   0.00000  Uiso   1.00
C296   C     0.98778   0.50641   0.18366   0.00000  Uiso   1.00
C297   C     0.83934   0.35465   0.12741   0.00000  Uiso   1.00
C298   C     0.83208   0.64530   0.20808   0.00000  Uiso   1.00
C299   C     0.83475   0.64558   0.12666   0.00000  Uiso   1.00
C300   C     0.83313   0.35461   0.20822   0.00000  Uiso   1.00
C301   C     0.83269   0.62417   0.16710   0.00000  Uiso   1.00
C302   C     0.83614   0.37590   0.16763   0.00000  Uiso   1.00
C303   C     0.86804   0.52537   0.02847   0.00000  Uiso   1.00
C304   C     0.79970   0.47383   0.30509   0.00000  Uiso   1.00
C305   C     0.86794   0.52539   0.31341   0.00000  Uiso   1.00
C306   C     0.79875   0.47463   0.01989   0.00000  Uiso   1.00
H307   H     0.99174   0.48893   0.11521   0.00000  Uiso   1.00
H308   H     0.67503   0.51694   0.21613   0.00000  Uiso   1.00
H309   H     0.84476   0.37062   0.09647   0.00000  Uiso   1.00
H310   H     0.83034   0.62909   0.23977   0.00000  Uiso   1.00
H311   H     0.83303   0.62976   0.09454   0.00000  Uiso   1.00
H312   H     0.83162   0.37067   0.23993   0.00000  Uiso   1.00
N313   N     0.83332   0.49999   0.28573   0.00000  Uiso   1.00
N314   N     0.83335   0.50001   0.04760   0.00000  Uiso   1.00
O315   O     0.83333   0.43892   0.20487   0.00000  Uiso   1.00
O316   O     0.83334   0.56108   0.12846   0.00000  Uiso   1.00
O317   O     0.83333   0.43893   0.12843   0.00000  Uiso   1.00
O318   O     0.83334   0.56107   0.20490   0.00000  Uiso   1.00
O319   O     0.75725   0.50000   0.19595   0.00000  Uiso   1.00
O320   O     0.90942   0.50000   0.13739   0.00000  Uiso   1.00
O321   O     0.75725   0.50000   0.11950   0.00000  Uiso   1.00
O322   O     0.90942   0.50000   0.21383   0.00000  Uiso   1.00
Zn323  Zn    0.83333   0.49999   0.21771   0.00000  Uiso   1.00
Zn324  Zn    0.83333   0.50001   0.11563   0.00000  Uiso   1.00
N325   N     0.90645   0.54893   0.05798   0.00000  Uiso   1.00
H326   H     0.94226   0.53549   0.06527   0.00000  Uiso   1.00
C327   C     0.90877   0.59363   0.05334   0.00000  Uiso   1.00
H328   H     0.91657   0.60790   0.08765   0.00000  Uiso   1.00
H329   H     0.87153   0.60508   0.03489   0.00000  Uiso   1.00
H330   H     0.94176   0.60364   0.03515   0.00000  Uiso   1.00
N331   N     0.76890   0.44370   0.27706   0.00000  Uiso   1.00
H332   H     0.77962   0.41350   0.28309   0.00000  Uiso   1.00
C333   C     0.71285   0.44872   0.26942   0.00000  Uiso   1.00
H334   H     0.69795   0.44192   0.23330   0.00000  Uiso   1.00
H335   H     0.70321   0.48065   0.27818   0.00000  Uiso   1.00
H336   H     0.69253   0.42645   0.28998   0.00000  Uiso   1.00
N337   N     0.90398   0.55106   0.29302   0.00000  Uiso   1.00
H338   H     0.89937   0.58250   0.29599   0.00000  Uiso   1.00
C339   C     0.95792   0.53874   0.30021   0.00000  Uiso   1.00
H340   H     0.97798   0.54846   0.00080   0.00000  Uiso   1.00
H341   H     0.97934   0.55413   0.27462   0.00000  Uiso   1.00
H342   H     0.95975   0.50453   0.29685   0.00000  Uiso   1.00
N343   N     0.75982   0.45126   0.03943   0.00000  Uiso   1.00
H344   H     0.72222   0.46144   0.03122   0.00000  Uiso   1.00
C345   C     0.76358   0.40655   0.04048   0.00000  Uiso   1.00
H346   H     0.73197   0.39146   0.01612   0.00000  Uiso   1.00
H347   H     0.75809   0.39531   0.07474   0.00000  Uiso   1.00
H348   H     0.80199   0.39689   0.03202   0.00000  Uiso   1.00
C349   C     0.16782   0.75340   0.16691   0.00000  Uiso   1.00
C350   C     0.16610   0.91329   0.16670   0.00000  Uiso   1.00
C351   C     0.06715   0.83337   0.15479   0.00000  Uiso   1.00
C352   C     0.26617   0.83490   0.17834   0.00000  Uiso   1.00
C353   C     0.01207   0.83181   0.14836   0.00000  Uiso   1.00
C354   C     0.32111   0.83974   0.18366   0.00000  Uiso   1.00
C355   C     0.17267   0.68799   0.12741   0.00000  Uiso   1.00
C356   C     0.16542   0.97863   0.20808   0.00000  Uiso   1.00
C357   C     0.16809   0.97892   0.12666   0.00000  Uiso   1.00
C358   C     0.16646   0.68794   0.20822   0.00000  Uiso   1.00
C359   C     0.16603   0.95750   0.16710   0.00000  Uiso   1.00
C360   C     0.16948   0.70923   0.16763   0.00000  Uiso   1.00
C361   C     0.20138   0.85871   0.02847   0.00000  Uiso   1.00
C362   C     0.13303   0.80716   0.30509   0.00000  Uiso   1.00
C363   C     0.20127   0.85872   0.31341   0.00000  Uiso   1.00
C364   C     0.13209   0.80797   0.01989   0.00000  Uiso   1.00
H365   H     0.32507   0.82227   0.11521   0.00000  Uiso   1.00
H366   H     0.00836   0.85027   0.21613   0.00000  Uiso   1.00
H367   H     0.17809   0.70395   0.09647   0.00000  Uiso   1.00
H368   H     0.16368   0.96242   0.23977   0.00000  Uiso   1.00
H369   H     0.16636   0.96310   0.09454   0.00000  Uiso   1.00
H370   H     0.16495   0.70401   0.23993   0.00000  Uiso   1.00
N371   N     0.16665   0.83332   0.28573   0.00000  Uiso   1.00
N372   N     0.16668   0.83334   0.04760   0.00000  Uiso   1.00
O373   O     0.16666   0.77225   0.20487   0.00000  Uiso   1.00
O374   O     0.16667   0.89442   0.12846   0.00000  Uiso   1.00
O375   O     0.16666   0.77226   0.12843   0.00000  Uiso   1.00
O376   O     0.16667   0.89441   0.20490   0.00000  Uiso   1.00
O377   O     0.09058   0.83333   0.19595   0.00000  Uiso   1.00
O378   O     0.24275   0.83334   0.13739   0.00000  Uiso   1.00
O379   O     0.09058   0.83334   0.11950   0.00000  Uiso   1.00
O380   O     0.24275   0.83333   0.21383   0.00000  Uiso   1.00
Zn381  Zn    0.16667   0.83333   0.21771   0.00000  Uiso   1.00
Zn382  Zn    0.16667   0.83334   0.11563   0.00000  Uiso   1.00
N383   N     0.23979   0.88226   0.05798   0.00000  Uiso   1.00
H384   H     0.27560   0.86883   0.06527   0.00000  Uiso   1.00
C385   C     0.24210   0.92697   0.05334   0.00000  Uiso   1.00
H386   H     0.24990   0.94123   0.08765   0.00000  Uiso   1.00
H387   H     0.20486   0.93842   0.03489   0.00000  Uiso   1.00
H388   H     0.27509   0.93697   0.03515   0.00000  Uiso   1.00
N389   N     0.10223   0.77703   0.27706   0.00000  Uiso   1.00
H390   H     0.11295   0.74684   0.28309   0.00000  Uiso   1.00
C391   C     0.04619   0.78205   0.26942   0.00000  Uiso   1.00
H392   H     0.03129   0.77526   0.23330   0.00000  Uiso   1.00
H393   H     0.03655   0.81398   0.27818   0.00000  Uiso   1.00
H394   H     0.02586   0.75978   0.28998   0.00000  Uiso   1.00
N395   N     0.23731   0.88439   0.29302   0.00000  Uiso   1.00
H396   H     0.23271   0.91583   0.29599   0.00000  Uiso   1.00
C397   C     0.29126   0.87207   0.30021   0.00000  Uiso   1.00
H398   H     0.31132   0.88180   0.00080   0.00000  Uiso   1.00
H399   H     0.31267   0.88746   0.27462   0.00000  Uiso   1.00
H400   H     0.29308   0.83786   0.29685   0.00000  Uiso   1.00
N401   N     0.09315   0.78459   0.03943   0.00000  Uiso   1.00
H402   H     0.05556   0.79477   0.03122   0.00000  Uiso   1.00
C403   C     0.09692   0.73988   0.04048   0.00000  Uiso   1.00
H404   H     0.06530   0.72480   0.01612   0.00000  Uiso   1.00
H405   H     0.09142   0.72865   0.07474   0.00000  Uiso   1.00
H406   H     0.13532   0.73023   0.03202   0.00000  Uiso   1.00
C407   C     0.50116   0.75340   0.16691   0.00000  Uiso   1.00
C408   C     0.49943   0.91329   0.16670   0.00000  Uiso   1.00
C409   C     0.40049   0.83337   0.15479   0.00000  Uiso   1.00
C410   C     0.59951   0.83490   0.17834   0.00000  Uiso   1.00
C411   C     0.34541   0.83181   0.14836   0.00000  Uiso   1.00
C412   C     0.65445   0.83974   0.18366   0.00000  Uiso   1.00
C413   C     0.50601   0.68799   0.12741   0.00000  Uiso   1.00
C414   C     0.49875   0.97863   0.20808   0.00000  Uiso   1.00
C415   C     0.50142   0.97892   0.12666   0.00000  Uiso   1.00
C416   C     0.49980   0.68794   0.20822   0.00000  Uiso   1.00
C417   C     0.49936   0.95750   0.16710   0.00000  Uiso   1.00
C418   C     0.50281   0.70923   0.16763   0.00000  Uiso   1.00
C419   C     0.53471   0.85871   0.02847   0.00000  Uiso   1.00
C420   C     0.46636   0.80716   0.30509   0.00000  Uiso   1.00
C421   C     0.53460   0.85872   0.31341   0.00000  Uiso   1.00
C422   C     0.46542   0.80797   0.01989   0.00000  Uiso   1.00
H423   H     0.65841   0.82227   0.11521   0.00000  Uiso   1.00
H424   H     0.34170   0.85027   0.21613   0.00000  Uiso   1.00
H425   H     0.51142   0.70395   0.09647   0.00000  Uiso   1.00
H426   H     0.49701   0.96242   0.23977   0.00000  Uiso   1.00
H427   H     0.49970   0.96310   0.09454   0.00000  Uiso   1.00
H428   H     0.49828   0.70401   0.23993   0.00000  Uiso   1.00
N429   N     0.49999   0.83332   0.28573   0.00000  Uiso   1.00
N430   N     0.50001   0.83334   0.04760   0.00000  Uiso   1.00
O431   O     0.50000   0.77225   0.20487   0.00000  Uiso   1.00
O432   O     0.50000   0.89442   0.12846   0.00000  Uiso   1.00
O433   O     0.50000   0.77226   0.12843   0.00000  Uiso   1.00
O434   O     0.50000   0.89441   0.20490   0.00000  Uiso   1.00
O435   O     0.42392   0.83333   0.19595   0.00000  Uiso   1.00
O436   O     0.57608   0.83334   0.13739   0.00000  Uiso   1.00
O437   O     0.42392   0.83334   0.11950   0.00000  Uiso   1.00
O438   O     0.57608   0.83333   0.21383   0.00000  Uiso   1.00
Zn439  Zn    0.50000   0.83333   0.21771   0.00000  Uiso   1.00
Zn440  Zn    0.50000   0.83334   0.11563   0.00000  Uiso   1.00
N441   N     0.57312   0.88226   0.05798   0.00000  Uiso   1.00
H442   H     0.60893   0.86883   0.06527   0.00000  Uiso   1.00
C443   C     0.57544   0.92697   0.05334   0.00000  Uiso   1.00
H444   H     0.58324   0.94123   0.08765   0.00000  Uiso   1.00
H445   H     0.53819   0.93842   0.03489   0.00000  Uiso   1.00
H446   H     0.60843   0.93697   0.03515   0.00000  Uiso   1.00
N447   N     0.43557   0.77703   0.27706   0.00000  Uiso   1.00
H448   H     0.44628   0.74684   0.28309   0.00000  Uiso   1.00
C449   C     0.37952   0.78205   0.26942   0.00000  Uiso   1.00
H450   H     0.36462   0.77526   0.23330   0.00000  Uiso   1.00
H451   H     0.36988   0.81398   0.27818   0.00000  Uiso   1.00
H452   H     0.35920   0.75978   0.28998   0.00000  Uiso   1.00
N453   N     0.57064   0.88439   0.29302   0.00000  Uiso   1.00
H454   H     0.56604   0.91583   0.29599   0.00000  Uiso   1.00
C455   C     0.62459   0.87207   0.30021   0.00000  Uiso   1.00
H456   H     0.64465   0.88180   0.00080   0.00000  Uiso   1.00
H457   H     0.64600   0.88746   0.27462   0.00000  Uiso   1.00
H458   H     0.62642   0.83786   0.29685   0.00000  Uiso   1.00
N459   N     0.42649   0.78459   0.03943   0.00000  Uiso   1.00
H460   H     0.38889   0.79477   0.03122   0.00000  Uiso   1.00
C461   C     0.43025   0.73988   0.04048   0.00000  Uiso   1.00
H462   H     0.39863   0.72480   0.01612   0.00000  Uiso   1.00
H463   H     0.42475   0.72865   0.07474   0.00000  Uiso   1.00
H464   H     0.46865   0.73023   0.03202   0.00000  Uiso   1.00
C465   C     0.83449   0.75340   0.16691   0.00000  Uiso   1.00
C466   C     0.83276   0.91329   0.16670   0.00000  Uiso   1.00
C467   C     0.73382   0.83337   0.15479   0.00000  Uiso   1.00
C468   C     0.93284   0.83490   0.17834   0.00000  Uiso   1.00
C469   C     0.67874   0.83181   0.14836   0.00000  Uiso   1.00
C470   C     0.98778   0.83974   0.18366   0.00000  Uiso   1.00
C471   C     0.83934   0.68799   0.12741   0.00000  Uiso   1.00
C472   C     0.83208   0.97863   0.20808   0.00000  Uiso   1.00
C473   C     0.83475   0.97892   0.12666   0.00000  Uiso   1.00
C474   C     0.83313   0.68794   0.20822   0.00000  Uiso   1.00
C475   C     0.83269   0.95750   0.16710   0.00000  Uiso   1.00
C476   C     0.83614   0.70923   0.16763   0.00000  Uiso   1.00
C477   C     0.86804   0.85871   0.02847   0.00000  Uiso   1.00
C478   C     0.79970   0.80716   0.30509   0.00000  Uiso   1.00
C479   C     0.86794   0.85872   0.31341   0.00000  Uiso   1.00
C480   C     0.79875   0.80797   0.01989   0.00000  Uiso   1.00
H481   H     0.99174   0.82227   0.11521   0.00000  Uiso   1.00
H482   H     0.67503   0.85027   0.21613   0.00000  Uiso   1.00
H483   H     0.84476   0.70395   0.09647   0.00000  Uiso   1.00
H484   H     0.83034   0.96242   0.23977   0.00000  Uiso   1.00
H485   H     0.83303   0.96310   0.09454   0.00000  Uiso   1.00
H486   H     0.83162   0.70401   0.23993   0.00000  Uiso   1.00
N487   N     0.83332   0.83332   0.28573   0.00000  Uiso   1.00
N488   N     0.83335   0.83334   0.04760   0.00000  Uiso   1.00
O489   O     0.83333   0.77225   0.20487   0.00000  Uiso   1.00
O490   O     0.83334   0.89442   0.12846   0.00000  Uiso   1.00
O491   O     0.83333   0.77226   0.12843   0.00000  Uiso   1.00
O492   O     0.83334   0.89441   0.20490   0.00000  Uiso   1.00
O493   O     0.75725   0.83333   0.19595   0.00000  Uiso   1.00
O494   O     0.90942   0.83334   0.13739   0.00000  Uiso   1.00
O495   O     0.75725   0.83334   0.11950   0.00000  Uiso   1.00
O496   O     0.90942   0.83333   0.21383   0.00000  Uiso   1.00
Zn497  Zn    0.83333   0.83333   0.21771   0.00000  Uiso   1.00
Zn498  Zn    0.83333   0.83334   0.11563   0.00000  Uiso   1.00
N499   N     0.90645   0.88226   0.05798   0.00000  Uiso   1.00
H500   H     0.94226   0.86883   0.06527   0.00000  Uiso   1.00
C501   C     0.90877   0.92697   0.05334   0.00000  Uiso   1.00
H502   H     0.91657   0.94123   0.08765   0.00000  Uiso   1.00
H503   H     0.87153   0.93842   0.03489   0.00000  Uiso   1.00
H504   H     0.94176   0.93697   0.03515   0.00000  Uiso   1.00
N505   N     0.76890   0.77703   0.27706   0.00000  Uiso   1.00
H506   H     0.77962   0.74684   0.28309   0.00000  Uiso   1.00
C507   C     0.71285   0.78205   0.26942   0.00000  Uiso   1.00
H508   H     0.69795   0.77526   0.23330   0.00000  Uiso   1.00
H509   H     0.70321   0.81398   0.27818   0.00000  Uiso   1.00
H510   H     0.69253   0.75978   0.28998   0.00000  Uiso   1.00
N511   N     0.90398   0.88439   0.29302   0.00000  Uiso   1.00
H512   H     0.89937   0.91583   0.29599   0.00000  Uiso   1.00
C513   C     0.95792   0.87207   0.30021   0.00000  Uiso   1.00
H514   H     0.97798   0.88180   0.00080   0.00000  Uiso   1.00
H515   H     0.97934   0.88746   0.27462   0.00000  Uiso   1.00
H516   H     0.95975   0.83786   0.29685   0.00000  Uiso   1.00
N517   N     0.75982   0.78459   0.03943   0.00000  Uiso   1.00
H518   H     0.72222   0.79477   0.03122   0.00000  Uiso   1.00
C519   C     0.76358   0.73988   0.04048   0.00000  Uiso   1.00
H520   H     0.73197   0.72480   0.01612   0.00000  Uiso   1.00
H521   H     0.75809   0.72865   0.07474   0.00000  Uiso   1.00
H522   H     0.80199   0.73023   0.03202   0.00000  Uiso   1.00
C523   C     0.16782   0.08673   0.50025   0.00000  Uiso   1.00
C524   C     0.16610   0.24663   0.50003   0.00000  Uiso   1.00
C525   C     0.06715   0.16670   0.48812   0.00000  Uiso   1.00
C526   C     0.26617   0.16824   0.51167   0.00000  Uiso   1.00
C527   C     0.01207   0.16515   0.48169   0.00000  Uiso   1.00
C528   C     0.32111   0.17307   0.51699   0.00000  Uiso   1.00
C529   C     0.17267   0.02132   0.46074   0.00000  Uiso   1.00
C530   C     0.16542   0.31197   0.54141   0.00000  Uiso   1.00
C531   C     0.16809   0.31225   0.45999   0.00000  Uiso   1.00
C532   C     0.16646   0.02127   0.54156   0.00000  Uiso   1.00
C533   C     0.16603   0.29084   0.50043   0.00000  Uiso   1.00
C534   C     0.16948   0.04257   0.50096   0.00000  Uiso   1.00
C535   C     0.20138   0.19204   0.36181   0.00000  Uiso   1.00
C536   C     0.13303   0.14049   0.63842   0.00000  Uiso   1.00
C537   C     0.20127   0.19206   0.64674   0.00000  Uiso   1.00
C538   C     0.13209   0.14130   0.35322   0.00000  Uiso   1.00
H539   H     0.32507   0.15560   0.44855   0.00000  Uiso   1.00
H540   H     0.00836   0.18360   0.54947   0.00000  Uiso   1.00
H541   H     0.17809   0.03729   0.42980   0.00000  Uiso   1.00
H542   H     0.16368   0.29576   0.57311   0.00000  Uiso   1.00
H543   H     0.16636   0.29643   0.42787   0.00000  Uiso   1.00
H544   H     0.16495   0.03734   0.57326   0.00000  Uiso   1.00
N545   N     0.16665   0.16666   0.61907   0.00000  Uiso   1.00
N546   N     0.16668   0.16668   0.38093   0.00000  Uiso   1.00
O547   O     0.16666   0.10558   0.53821   0.00000  Uiso   1.00
O548   O     0.16667   0.22775   0.46179   0.00000  Uiso   1.00
O549   O     0.16666   0.10559   0.46176   0.00000  Uiso   1.00
O550   O     0.16667   0.22774   0.53824   0.00000  Uiso   1.00
O551   O     0.09058   0.16666   0.52928   0.00000  Uiso   1.00
O552   O     0.24275   0.16667   0.47072   0.00000  Uiso   1.00
O553   O     0.09058   0.16667   0.45284   0.00000  Uiso   1.00
O554   O     0.24275   0.16666   0.54716   0.00000  Uiso   1.00
Zn555  Zn    0.16667   0.16666   0.55104   0.00000  Uiso   1.00
Zn556  Zn    0.16667   0.16667   0.44896   0.00000  Uiso   1.00
N557   N     0.23979   0.21559   0.39131   0.00000  Uiso   1.00
H558   H     0.27560   0.20216   0.39860   0.00000  Uiso   1.00
C559   C     0.24210   0.26030   0.38667   0.00000  Uiso   1.00
H560   H     0.24990   0.27456   0.42099   0.00000  Uiso   1.00
H561   H     0.20486   0.27175   0.36822   0.00000  Uiso   1.00
H562   H     0.27509   0.27030   0.36848   0.00000  Uiso   1.00
N563   N     0.10223   0.11037   0.61039   0.00000  Uiso   1.00
H564   H     0.11295   0.08017   0.61642   0.00000  Uiso   1.00
C565   C     0.04619   0.11539   0.60275   0.00000  Uiso   1.00
H566   H     0.03129   0.10859   0.56663   0.00000  Uiso   1.00
H567   H     0.03655   0.14731   0.61152   0.00000  Uiso   1.00
H568   H     0.02586   0.09312   0.62331   0.00000  Uiso   1.00
N569   N     0.23731   0.21772   0.62635   0.00000  Uiso   1.00
H570   H     0.23271   0.24917   0.62933   0.00000  Uiso   1.00
C571   C     0.29126   0.20541   0.63354   0.00000  Uiso   1.00
H572   H     0.31132   0.21513   0.33413   0.00000  Uiso   1.00
H573   H     0.31267   0.22080   0.60796   0.00000  Uiso   1.00
H574   H     0.29308   0.17120   0.63018   0.00000  Uiso   1.00
N575   N     0.09315   0.11793   0.37277   0.00000  Uiso   1.00
H576   H     0.05556   0.12810   0.36455   0.00000  Uiso   1.00
C577   C     0.09692   0.07321   0.37381   0.00000  Uiso   1.00
H578   H     0.06530   0.05813   0.34946   0.00000  Uiso   1.00
H579   H     0.09142   0.06198   0.40808   0.00000  Uiso   1.00
H580   H     0.13532   0.06356   0.36535   0.00000  Uiso   1.00
C581   C     0.50116   0.08673   0.50025   0.00000  Uiso   1.00
C582   C     0.49943   0.24663   0.50003   0.00000  Uiso   1.00
C583   C     0.40049   0.16670   0.48812   0.00000  Uiso   1.00
C584   C     0.59951   0.16824   0.51167   0.00000  Uiso   1.00
C585   C     0.34541   0.16515   0.48169   0.00000  Uiso   1.00
C586   C     0.65445   0.17307   0.51699   0.00000  Uiso   1.00
C587   C     0.50601   0.02132   0.46074   0.00000  Uiso   1.00
C588   C     0.49875   0.31197   0.54141   0.00000  Uiso   1.00
C589   C     0.50142   0.31225   0.45999   0.00000  Uiso   1.00
C590   C     0.49980   0.02127   0.54156   0.00000  Uiso   1.00
C591   C     0.49936   0.29084   0.50043   0.00000  Uiso   1.00
C592   C     0.50281   0.04257   0.50096   0.00000  Uiso   1.00
C593   C     0.53471   0.19204   0.36181   0.00000  Uiso   1.00
C594   C     0.46636   0.14049   0.63842   0.00000  Uiso   1.00
C595   C     0.53460   0.19206   0.64674   0.00000  Uiso   1.00
C596   C     0.46542   0.14130   0.35322   0.00000  Uiso   1.00
H597   H     0.65841   0.15560   0.44855   0.00000  Uiso   1.00
H598   H     0.34170   0.18360   0.54947   0.00000  Uiso   1.00
H599   H     0.51142   0.03729   0.42980   0.00000  Uiso   1.00
H600   H     0.49701   0.29576   0.57311   0.00000  Uiso   1.00
H601   H     0.49970   0.29643   0.42787   0.00000  Uiso   1.00
H602   H     0.49828   0.03734   0.57326   0.00000  Uiso   1.00
N603   N     0.49999   0.16666   0.61907   0.00000  Uiso   1.00
N604   N     0.50001   0.16668   0.38093   0.00000  Uiso   1.00
O605   O     0.50000   0.10558   0.53821   0.00000  Uiso   1.00
O606   O     0.50000   0.22775   0.46179   0.00000  Uiso   1.00
O607   O     0.50000   0.10559   0.46176   0.00000  Uiso   1.00
O608   O     0.50000   0.22774   0.53824   0.00000  Uiso   1.00
O609   O     0.42392   0.16666   0.52928   0.00000  Uiso   1.00
O610   O     0.57608   0.16667   0.47072   0.00000  Uiso   1.00
O611   O     0.42392   0.16667   0.45284   0.00000  Uiso   1.00
O612   O     0.57608   0.16666   0.54716   0.00000  Uiso   1.00
Zn613  Zn    0.50000   0.16666   0.55104   0.00000  Uiso   1.00
Zn614  Zn    0.50000   0.16667   0.44896   0.00000  Uiso   1.00
N615   N     0.57312   0.21559   0.39131   0.00000  Uiso   1.00
H616   H     0.60893   0.20216   0.39860   0.00000  Uiso   1.00
C617   C     0.57544   0.26030   0.38667   0.00000  Uiso   1.00
H618   H     0.58324   0.27456   0.42099   0.00000  Uiso   1.00
H619   H     0.53819   0.27175   0.36822   0.00000  Uiso   1.00
H620   H     0.60843   0.27030   0.36848   0.00000  Uiso   1.00
N621   N     0.43557   0.11037   0.61039   0.00000  Uiso   1.00
H622   H     0.44628   0.08017   0.61642   0.00000  Uiso   1.00
C623   C     0.37952   0.11539   0.60275   0.00000  Uiso   1.00
H624   H     0.36462   0.10859   0.56663   0.00000  Uiso   1.00
H625   H     0.36988   0.14731   0.61152   0.00000  Uiso   1.00
H626   H     0.35920   0.09312   0.62331   0.00000  Uiso   1.00
N627   N     0.57064   0.21772   0.62635   0.00000  Uiso   1.00
H628   H     0.56604   0.24917   0.62933   0.00000  Uiso   1.00
C629   C     0.62459   0.20541   0.63354   0.00000  Uiso   1.00
H630   H     0.64465   0.21513   0.33413   0.00000  Uiso   1.00
H631   H     0.64600   0.22080   0.60796   0.00000  Uiso   1.00
H632   H     0.62642   0.17120   0.63018   0.00000  Uiso   1.00
N633   N     0.42649   0.11793   0.37277   0.00000  Uiso   1.00
H634   H     0.38889   0.12810   0.36455   0.00000  Uiso   1.00
C635   C     0.43025   0.07321   0.37381   0.00000  Uiso   1.00
H636   H     0.39863   0.05813   0.34946   0.00000  Uiso   1.00
H637   H     0.42475   0.06198   0.40808   0.00000  Uiso   1.00
H638   H     0.46865   0.06356   0.36535   0.00000  Uiso   1.00
C639   C     0.83449   0.08673   0.50025   0.00000  Uiso   1.00
C640   C     0.83276   0.24663   0.50003   0.00000  Uiso   1.00
C641   C     0.73382   0.16670   0.48812   0.00000  Uiso   1.00
C642   C     0.93284   0.16824   0.51167   0.00000  Uiso   1.00
C643   C     0.67874   0.16515   0.48169   0.00000  Uiso   1.00
C644   C     0.98778   0.17307   0.51699   0.00000  Uiso   1.00
C645   C     0.83934   0.02132   0.46074   0.00000  Uiso   1.00
C646   C     0.83208   0.31197   0.54141   0.00000  Uiso   1.00
C647   C     0.83475   0.31225   0.45999   0.00000  Uiso   1.00
C648   C     0.83313   0.02127   0.54156   0.00000  Uiso   1.00
C649   C     0.83269   0.29084   0.50043   0.00000  Uiso   1.00
C650   C     0.83614   0.04257   0.50096   0.00000  Uiso   1.00
C651   C     0.86804   0.19204   0.36181   0.00000  Uiso   1.00
C652   C     0.79970   0.14049   0.63842   0.00000  Uiso   1.00
C653   C     0.86794   0.19206   0.64674   0.00000  Uiso   1.00
C654   C     0.79875   0.14130   0.35322   0.00000  Uiso   1.00
H655   H     0.99174   0.15560   0.44855   0.00000  Uiso   1.00
H656   H     0.67503   0.18360   0.54947   0.00000  Uiso   1.00
H657   H     0.84476   0.03729   0.42980   0.00000  Uiso   1.00
H658   H     0.83034   0.29576   0.57311   0.00000  Uiso   1.00
H659   H     0.83303   0.29643   0.42787   0.00000  Uiso   1.00
H660   H     0.83162   0.03734   0.57326   0.00000  Uiso   1.00
N661   N     0.83332   0.16666   0.61907   0.00000  Uiso   1.00
N662   N     0.83335   0.16668   0.38093   0.00000  Uiso   1.00
O663   O     0.83333   0.10558   0.53821   0.00000  Uiso   1.00
O664   O     0.83334   0.22775   0.46179   0.00000  Uiso   1.00
O665   O     0.83333   0.10559   0.46176   0.00000  Uiso   1.00
O666   O     0.83334   0.22774   0.53824   0.00000  Uiso   1.00
O667   O     0.75725   0.16666   0.52928   0.00000  Uiso   1.00
O668   O     0.90942   0.16667   0.47072   0.00000  Uiso   1.00
O669   O     0.75725   0.16667   0.45284   0.00000  Uiso   1.00
O670   O     0.90942   0.16666   0.54716   0.00000  Uiso   1.00
Zn671  Zn    0.83333   0.16666   0.55104   0.00000  Uiso   1.00
Zn672  Zn    0.83333   0.16667   0.44896   0.00000  Uiso   1.00
N673   N     0.90645   0.21559   0.39131   0.00000  Uiso   1.00
H674   H     0.94226   0.20216   0.39860   0.00000  Uiso   1.00
C675   C     0.90877   0.26030   0.38667   0.00000  Uiso   1.00
H676   H     0.91657   0.27456   0.42099   0.00000  Uiso   1.00
H677   H     0.87153   0.27175   0.36822   0.00000  Uiso   1.00
H678   H     0.94176   0.27030   0.36848   0.00000  Uiso   1.00
N679   N     0.76890   0.11037   0.61039   0.00000  Uiso   1.00
H680   H     0.77962   0.08017   0.61642   0.00000  Uiso   1.00
C681   C     0.71285   0.11539   0.60275   0.00000  Uiso   1.00
H682   H     0.69795   0.10859   0.56663   0.00000  Uiso   1.00
H683   H     0.70321   0.14731   0.61152   0.00000  Uiso   1.00
H684   H     0.69253   0.09312   0.62331   0.00000  Uiso   1.00
N685   N     0.90398   0.21772   0.62635   0.00000  Uiso   1.00
H686   H     0.89937   0.24917   0.62933   0.00000  Uiso   1.00
C687   C     0.95792   0.20541   0.63354   0.00000  Uiso   1.00
H688   H     0.97798   0.21513   0.33413   0.00000  Uiso   1.00
H689   H     0.97934   0.22080   0.60796   0.00000  Uiso   1.00
H690   H     0.95975   0.17120   0.63018   0.00000  Uiso   1.00
N691   N     0.75982   0.11793   0.37277   0.00000  Uiso   1.00
H692   H     0.72222   0.12810   0.36455   0.00000  Uiso   1.00
C693   C     0.76358   0.07321   0.37381   0.00000  Uiso   1.00
H694   H     0.73197   0.05813   0.34946   0.00000  Uiso   1.00
H695   H     0.75809   0.06198   0.40808   0.00000  Uiso   1.00
H696   H     0.80199   0.06356   0.36535   0.00000  Uiso   1.00
C697   C     0.16782   0.42006   0.50025   0.00000  Uiso   1.00
C698   C     0.16610   0.57996   0.50003   0.00000  Uiso   1.00
C699   C     0.06715   0.50003   0.48812   0.00000  Uiso   1.00
C700   C     0.26617   0.50157   0.51167   0.00000  Uiso   1.00
C701   C     0.01207   0.49848   0.48169   0.00000  Uiso   1.00
C702   C     0.32111   0.50641   0.51699   0.00000  Uiso   1.00
C703   C     0.17267   0.35465   0.46074   0.00000  Uiso   1.00
C704   C     0.16542   0.64530   0.54141   0.00000  Uiso   1.00
C705   C     0.16809   0.64558   0.45999   0.00000  Uiso   1.00
C706   C     0.16646   0.35461   0.54156   0.00000  Uiso   1.00
C707   C     0.16603   0.62417   0.50043   0.00000  Uiso   1.00
C708   C     0.16948   0.37590   0.50096   0.00000  Uiso   1.00
C709   C     0.20138   0.52537   0.36181   0.00000  Uiso   1.00
C710   C     0.13303   0.47383   0.63842   0.00000  Uiso   1.00
C711   C     0.20127   0.52539   0.64674   0.00000  Uiso   1.00
C712   C     0.13209   0.47463   0.35322   0.00000  Uiso   1.00
H713   H     0.32507   0.48893   0.44855   0.00000  Uiso   1.00
H714   H     0.00836   0.51694   0.54947   0.00000  Uiso   1.00
H715   H     0.17809   0.37062   0.42980   0.00000  Uiso   1.00
H716   H     0.16368   0.62909   0.57311   0.00000  Uiso   1.00
H717   H     0.16636   0.62976   0.42787   0.00000  Uiso   1.00
H718   H     0.16495   0.37067   0.57326   0.00000  Uiso   1.00
N719   N     0.16665   0.49999   0.61907   0.00000  Uiso   1.00
N720   N     0.16668   0.50001   0.38093   0.00000  Uiso   1.00
O721   O     0.16666   0.43892   0.53821   0.00000  Uiso   1.00
O722   O     0.16667   0.56108   0.46179   0.00000  Uiso   1.00
O723   O     0.16666   0.43893   0.46176   0.00000  Uiso   1.00
O724   O     0.16667   0.56107   0.53824   0.00000  Uiso   1.00
O725   O     0.09058   0.50000   0.52928   0.00000  Uiso   1.00
O726   O     0.24275   0.50000   0.47072   0.00000  Uiso   1.00
O727   O     0.09058   0.50000   0.45284   0.00000  Uiso   1.00
O728   O     0.24275   0.50000   0.54716   0.00000  Uiso   1.00
Zn729  Zn    0.16667   0.49999   0.55104   0.00000  Uiso   1.00
Zn730  Zn    0.16667   0.50001   0.44896   0.00000  Uiso   1.00
N731   N     0.23979   0.54893   0.39131   0.00000  Uiso   1.00
H732   H     0.27560   0.53549   0.39860   0.00000  Uiso   1.00
C733   C     0.24210   0.59363   0.38667   0.00000  Uiso   1.00
H734   H     0.24990   0.60790   0.42099   0.00000  Uiso   1.00
H735   H     0.20486   0.60508   0.36822   0.00000  Uiso   1.00
H736   H     0.27509   0.60364   0.36848   0.00000  Uiso   1.00
N737   N     0.10223   0.44370   0.61039   0.00000  Uiso   1.00
H738   H     0.11295   0.41350   0.61642   0.00000  Uiso   1.00
C739   C     0.04619   0.44872   0.60275   0.00000  Uiso   1.00
H740   H     0.03129   0.44192   0.56663   0.00000  Uiso   1.00
H741   H     0.03655   0.48065   0.61152   0.00000  Uiso   1.00
H742   H     0.02586   0.42645   0.62331   0.00000  Uiso   1.00
N743   N     0.23731   0.55106   0.62635   0.00000  Uiso   1.00
H744   H     0.23271   0.58250   0.62933   0.00000  Uiso   1.00
C745   C     0.29126   0.53874   0.63354   0.00000  Uiso   1.00
H746   H     0.31132   0.54846   0.33413   0.00000  Uiso   1.00
H747   H     0.31267   0.55413   0.60796   0.00000  Uiso   1.00
H748   H     0.29308   0.50453   0.63018   0.00000  Uiso   1.00
N749   N     0.09315   0.45126   0.37277   0.00000  Uiso   1.00
H750   H     0.05556   0.46144   0.36455   0.00000  Uiso   1.00
C751   C     0.09692   0.40655   0.37381   0.00000  Uiso   1.00
H752   H     0.06530   0.39146   0.34946   0.00000  Uiso   1.00
H753   H     0.09142   0.39531   0.40808   0.00000  Uiso   1.00
H754   H     0.13532   0.39689   0.36535   0.00000  Uiso   1.00
C755   C     0.50116   0.42006   0.50025   0.00000  Uiso   1.00
C756   C     0.49943   0.57996   0.50003   0.00000  Uiso   1.00
C757   C     0.40049   0.50003   0.48812   0.00000  Uiso   1.00
C758   C     0.59951   0.50157   0.51167   0.00000  Uiso   1.00
C759   C     0.34541   0.49848   0.48169   0.00000  Uiso   1.00
C760   C     0.65445   0.50641   0.51699   0.00000  Uiso   1.00
C761   C     0.50601   0.35465   0.46074   0.00000  Uiso   1.00
C762   C     0.49875   0.64530   0.54141   0.00000  Uiso   1.00
C763   C     0.50142   0.64558   0.45999   0.00000  Uiso   1.00
C764   C     0.49980   0.35461   0.54156   0.00000  Uiso   1.00
C765   C     0.49936   0.62417   0.50043   0.00000  Uiso   1.00
C766   C     0.50281   0.37590   0.50096   0.00000  Uiso   1.00
C767   C     0.53471   0.52537   0.36181   0.00000  Uiso   1.00
C768   C     0.46636   0.47383   0.63842   0.00000  Uiso   1.00
C769   C     0.53460   0.52539   0.64674   0.00000  Uiso   1.00
C770   C     0.46542   0.47463   0.35322   0.00000  Uiso   1.00
H771   H     0.65841   0.48893   0.44855   0.00000  Uiso   1.00
H772   H     0.34170   0.51694   0.54947   0.00000  Uiso   1.00
H773   H     0.51142   0.37062   0.42980   0.00000  Uiso   1.00
H774   H     0.49701   0.62909   0.57311   0.00000  Uiso   1.00
H775   H     0.49970   0.62976   0.42787   0.00000  Uiso   1.00
H776   H     0.49828   0.37067   0.57326   0.00000  Uiso   1.00
N777   N     0.49999   0.49999   0.61907   0.00000  Uiso   1.00
N778   N     0.50001   0.50001   0.38093   0.00000  Uiso   1.00
O779   O     0.50000   0.43892   0.53821   0.00000  Uiso   1.00
O780   O     0.50000   0.56108   0.46179   0.00000  Uiso   1.00
O781   O     0.50000   0.43893   0.46176   0.00000  Uiso   1.00
O782   O     0.50000   0.56107   0.53824   0.00000  Uiso   1.00
O783   O     0.42392   0.50000   0.52928   0.00000  Uiso   1.00
O784   O     0.57608   0.50000   0.47072   0.00000  Uiso   1.00
O785   O     0.42392   0.50000   0.45284   0.00000  Uiso   1.00
O786   O     0.57608   0.50000   0.54716   0.00000  Uiso   1.00
Zn787  Zn    0.50000   0.49999   0.55104   0.00000  Uiso   1.00
Zn788  Zn    0.50000   0.50001   0.44896   0.00000  Uiso   1.00
N789   N     0.57312   0.54893   0.39131   0.00000  Uiso   1.00
H790   H     0.60893   0.53549   0.39860   0.00000  Uiso   1.00
C791   C     0.57544   0.59363   0.38667   0.00000  Uiso   1.00
H792   H     0.58324   0.60790   0.42099   0.00000  Uiso   1.00
H793   H     0.53819   0.60508   0.36822   0.00000  Uiso   1.00
H794   H     0.60843   0.60364   0.36848   0.00000  Uiso   1.00
N795   N     0.43557   0.44370   0.61039   0.00000  Uiso   1.00
H796   H     0.44628   0.41350   0.61642   0.00000  Uiso   1.00
C797   C     0.37952   0.44872   0.60275   0.00000  Uiso   1.00
H798   H     0.36462   0.44192   0.56663   0.00000  Uiso   1.00
H799   H     0.36988   0.48065   0.61152   0.00000  Uiso   1.00
H800   H     0.35920   0.42645   0.62331   0.00000  Uiso   1.00
N801   N     0.57064   0.55106   0.62635   0.00000  Uiso   1.00
H802   H     0.56604   0.58250   0.62933   0.00000  Uiso   1.00
C803   C     0.62459   0.53874   0.63354   0.00000  Uiso   1.00
H804   H     0.64465   0.54846   0.33413   0.00000  Uiso   1.00
H805   H     0.64600   0.55413   0.60796   0.00000  Uiso   1.00
H806   H     0.62642   0.50453   0.63018   0.00000  Uiso   1.00
N807   N     0.42649   0.45126   0.37277   0.00000  Uiso   1.00
H808   H     0.38889   0.46144   0.36455   0.00000  Uiso   1.00
C809   C     0.43025   0.40655   0.37381   0.00000  Uiso   1.00
H810   H     0.39863   0.39146   0.34946   0.00000  Uiso   1.00
H811   H     0.42475   0.39531   0.40808   0.00000  Uiso   1.00
H812   H     0.46865   0.39689   0.36535   0.00000  Uiso   1.00
C813   C     0.83449   0.42006   0.50025   0.00000  Uiso   1.00
C814   C     0.83276   0.57996   0.50003   0.00000  Uiso   1.00
C815   C     0.73382   0.50003   0.48812   0.00000  Uiso   1.00
C816   C     0.93284   0.50157   0.51167   0.00000  Uiso   1.00
C817   C     0.67874   0.49848   0.48169   0.00000  Uiso   1.00
C818   C     0.98778   0.50641   0.51699   0.00000  Uiso   1.00
C819   C     0.83934   0.35465   0.46074   0.00000  Uiso   1.00
C820   C     0.83208   0.64530   0.54141   0.00000  Uiso   1.00
C821   C     0.83475   0.64558   0.45999   0.00000  Uiso   1.00
C822   C     0.83313   0.35461   0.54156   0.00000  Uiso   1.00
C823   C     0.83269   0.62417   0.50043   0.00000  Uiso   1.00
C824   C     0.83614   0.37590   0.50096   0.00000  Uiso   1.00
C825   C     0.86804   0.52537   0.36181   0.00000  Uiso   1.00
C826   C     0.79970   0.47383   0.63842   0.00000  Uiso   1.00
C827   C     0.86794   0.52539   0.64674   0.00000  Uiso   1.00
C828   C     0.79875   0.47463   0.35322   0.00000  Uiso   1.00
H829   H     0.99174   0.48893   0.44855   0.00000  Uiso   1.00
H830   H     0.67503   0.51694   0.54947   0.00000  Uiso   1.00
H831   H     0.84476   0.37062   0.42980   0.00000  Uiso   1.00
H832   H     0.83034   0.62909   0.57311   0.00000  Uiso   1.00
H833   H     0.83303   0.62976   0.42787   0.00000  Uiso   1.00
H834   H     0.83162   0.37067   0.57326   0.00000  Uiso   1.00
N835   N     0.83332   0.49999   0.61907   0.00000  Uiso   1.00
N836   N     0.83335   0.50001   0.38093   0.00000  Uiso   1.00
O837   O     0.83333   0.43892   0.53821   0.00000  Uiso   1.00
O838   O     0.83334   0.56108   0.46179   0.00000  Uiso   1.00
O839   O     0.83333   0.43893   0.46176   0.00000  Uiso   1.00
O840   O     0.83334   0.56107   0.53824   0.00000  Uiso   1.00
O841   O     0.75725   0.50000   0.52928   0.00000  Uiso   1.00
O842   O     0.90942   0.50000   0.47072   0.00000  Uiso   1.00
O843   O     0.75725   0.50000   0.45284   0.00000  Uiso   1.00
O844   O     0.90942   0.50000   0.54716   0.00000  Uiso   1.00
Zn845  Zn    0.83333   0.49999   0.55104   0.00000  Uiso   1.00
Zn846  Zn    0.83333   0.50001   0.44896   0.00000  Uiso   1.00
N847   N     0.90645   0.54893   0.39131   0.00000  Uiso   1.00
H848   H     0.94226   0.53549   0.39860   0.00000  Uiso   1.00
C849   C     0.90877   0.59363   0.38667   0.00000  Uiso   1.00
H850   H     0.91657   0.60790   0.42099   0.00000  Uiso   1.00
H851   H     0.87153   0.60508   0.36822   0.00000  Uiso   1.00
H852   H     0.94176   0.60364   0.36848   0.00000  Uiso   1.00
N853   N     0.76890   0.44370   0.61039   0.00000  Uiso   1.00
H854   H     0.77962   0.41350   0.61642   0.00000  Uiso   1.00
C855   C     0.71285   0.44872   0.60275   0.00000  Uiso   1.00
H856   H     0.69795   0.44192   0.56663   0.00000  Uiso   1.00
H857   H     0.70321   0.48065   0.61152   0.00000  Uiso   1.00
H858   H     0.69253   0.42645   0.62331   0.00000  Uiso   1.00
N859   N     0.90398   0.55106   0.62635   0.00000  Uiso   1.00
H860   H     0.89937   0.58250   0.62933   0.00000  Uiso   1.00
C861   C     0.95792   0.53874   0.63354   0.00000  Uiso   1.00
H862   H     0.97798   0.54846   0.33413   0.00000  Uiso   1.00
H863   H     0.97934   0.55413   0.60796   0.00000  Uiso   1.00
H864   H     0.95975   0.50453   0.63018   0.00000  Uiso   1.00
N865   N     0.75982   0.45126   0.37277   0.00000  Uiso   1.00
H866   H     0.72222   0.46144   0.36455   0.00000  Uiso   1.00
C867   C     0.76358   0.40655   0.37381   0.00000  Uiso   1.00
H868   H     0.73197   0.39146   0.34946   0.00000  Uiso   1.00
H869   H     0.75809   0.39531   0.40808   0.00000  Uiso   1.00
H870   H     0.80199   0.39689   0.36535   0.00000  Uiso   1.00
C871   C     0.16782   0.75340   0.50025   0.00000  Uiso   1.00
C872   C     0.16610   0.91329   0.50003   0.00000  Uiso   1.00
C873   C     0.06715   0.83337   0.48812   0.00000  Uiso   1.00
C874   C     0.26617   0.83490   0.51167   0.00000  Uiso   1.00
C875   C     0.01207   0.83181   0.48169   0.00000  Uiso   1.00
C876   C     0.32111   0.83974   0.51699   0.00000  Uiso   1.00
C877   C     0.17267   0.68799   0.46074   0.00000  Uiso   1.00
C878   C     0.16542   0.97863   0.54141   0.00000  Uiso   1.00
C879   C     0.16809   0.97892   0.45999   0.00000  Uiso   1.00
C880   C     0.16646   0.68794   0.54156   0.00000  Uiso   1.00
C881   C     0.16603   0.95750   0.50043   0.00000  Uiso   1.00
C882   C     0.16948   0.70923   0.50096   0.00000  Uiso   1.00
C883   C     0.20138   0.85871   0.36181   0.00000  Uiso   1.00
C884   C     0.13303   0.80716   0.63842   0.00000  Uiso   1.00
C885   C     0.20127   0.85872   0.64674   0.00000  Uiso   1.00
C886   C     0.13209   0.80797   0.35322   0.00000  Uiso   1.00
H887   H     0.32507   0.82227   0.44855   0.00000  Uiso   1.00
H888   H     0.00836   0.85027   0.54947   0.00000  Uiso   1.00
H889   H     0.17809   0.70395   0.42980   0.00000  Uiso   1.00
H890   H     0.16368   0.96242   0.57311   0.00000  Uiso   1.00
H891   H     0.16636   0.96310   0.42787   0.00000  Uiso   1.00
H892   H     0.16495   0.70401   0.57326   0.00000  Uiso   1.00
N893   N     0.16665   0.83332   0.61907   0.00000  Uiso   1.00
N894   N     0.16668   0.83334   0.38093   0.00000  Uiso   1.00
O895   O     0.16666   0.77225   0.53821   0.00000  Uiso   1.00
O896   O     0.16667   0.89442   0.46179   0.00000  Uiso   1.00
O897   O     0.16666   0.77226   0.46176   0.00000  Uiso   1.00
O898   O     0.16667   0.89441   0.53824   0.00000  Uiso   1.00
O899   O     0.09058   0.83333   0.52928   0.00000  Uiso   1.00
O900   O     0.24275   0.83334   0.47072   0.00000  Uiso   1.00
O901   O     0.09058   0.83334   0.45284   0.00000  Uiso   1.00
O902   O     0.24275   0.83333   0.54716   0.00000  Uiso   1.00
Zn903  Zn    0.16667   0.83333   0.55104   0.00000  Uiso   1.00
Zn904  Zn    0.16667   0.83334   0.44896   0.00000  Uiso   1.00
N905   N     0.23979   0.88226   0.39131   0.00000  Uiso   1.00
H906   H     0.27560   0.86883   0.39860   0.00000  Uiso   1.00
C907   C     0.24210   0.92697   0.38667   0.00000  Uiso   1.00
H908   H     0.24990   0.94123   0.42099   0.00000  Uiso   1.00
H909   H     0.20486   0.93842   0.36822   0.00000  Uiso   1.00
H910   H     0.27509   0.93697   0.36848   0.00000  Uiso   1.00
N911   N     0.10223   0.77703   0.61039   0.00000  Uiso   1.00
H912   H     0.11295   0.74684   0.61642   0.00000  Uiso   1.00
C913   C     0.04619   0.78205   0.60275   0.00000  Uiso   1.00
H914   H     0.03129   0.77526   0.56663   0.00000  Uiso   1.00
H915   H     0.03655   0.81398   0.61152   0.00000  Uiso   1.00
H916   H     0.02586   0.75978   0.62331   0.00000  Uiso   1.00
N917   N     0.23731   0.88439   0.62635   0.00000  Uiso   1.00
H918   H     0.23271   0.91583   0.62933   0.00000  Uiso   1.00
C919   C     0.29126   0.87207   0.63354   0.00000  Uiso   1.00
H920   H     0.31132   0.88180   0.33413   0.00000  Uiso   1.00
H921   H     0.31267   0.88746   0.60796   0.00000  Uiso   1.00
H922   H     0.29308   0.83786   0.63018   0.00000  Uiso   1.00
N923   N     0.09315   0.78459   0.37277   0.00000  Uiso   1.00
H924   H     0.05556   0.79477   0.36455   0.00000  Uiso   1.00
C925   C     0.09692   0.73988   0.37381   0.00000  Uiso   1.00
H926   H     0.06530   0.72480   0.34946   0.00000  Uiso   1.00
H927   H     0.09142   0.72865   0.40808   0.00000  Uiso   1.00
H928   H     0.13532   0.73023   0.36535   0.00000  Uiso   1.00
C929   C     0.50116   0.75340   0.50025   0.00000  Uiso   1.00
C930   C     0.49943   0.91329   0.50003   0.00000  Uiso   1.00
C931   C     0.40049   0.83337   0.48812   0.00000  Uiso   1.00
C932   C     0.59951   0.83490   0.51167   0.00000  Uiso   1.00
C933   C     0.34541   0.83181   0.48169   0.00000  Uiso   1.00
C934   C     0.65445   0.83974   0.51699   0.00000  Uiso   1.00
C935   C     0.50601   0.68799   0.46074   0.00000  Uiso   1.00
C936   C     0.49875   0.97863   0.54141   0.00000  Uiso   1.00
C937   C     0.50142   0.97892   0.45999   0.00000  Uiso   1.00
C938   C     0.49980   0.68794   0.54156   0.00000  Uiso   1.00
C939   C     0.49936   0.95750   0.50043   0.00000  Uiso   1.00
C940   C     0.50281   0.70923   0.50096   0.00000  Uiso   1.00
C941   C     0.53471   0.85871   0.36181   0.00000  Uiso   1.00
C942   C     0.46636   0.80716   0.63842   0.00000  Uiso   1.00
C943   C     0.53460   0.85872   0.64674   0.00000  Uiso   1.00
C944   C     0.46542   0.80797   0.35322   0.00000  Uiso   1.00
H945   H     0.65841   0.82227   0.44855   0.00000  Uiso   1.00
H946   H     0.34170   0.85027   0.54947   0.00000  Uiso   1.00
H947   H     0.51142   0.70395   0.42980   0.00000  Uiso   1.00
H948   H     0.49701   0.96242   0.57311   0.00000  Uiso   1.00
H949   H     0.49970   0.96310   0.42787   0.00000  Uiso   1.00
H950   H     0.49828   0.70401   0.57326   0.00000  Uiso   1.00
N951   N     0.49999   0.83332   0.61907   0.00000  Uiso   1.00
N952   N     0.50001   0.83334   0.38093   0.00000  Uiso   1.00
O953   O     0.50000   0.77225   0.53821   0.00000  Uiso   1.00
O954   O     0.50000   0.89442   0.46179   0.00000  Uiso   1.00
O955   O     0.50000   0.77226   0.46176   0.00000  Uiso   1.00
O956   O     0.50000   0.89441   0.53824   0.00000  Uiso   1.00
O957   O     0.42392   0.83333   0.52928   0.00000  Uiso   1.00
O958   O     0.57608   0.83334   0.47072   0.00000  Uiso   1.00
O959   O     0.42392   0.83334   0.45284   0.00000  Uiso   1.00
O960   O     0.57608   0.83333   0.54716   0.00000  Uiso   1.00
Zn961  Zn    0.50000   0.83333   0.55104   0.00000  Uiso   1.00
Zn962  Zn    0.50000   0.83334   0.44896   0.00000  Uiso   1.00
N963   N     0.57312   0.88226   0.39131   0.00000  Uiso   1.00
H964   H     0.60893   0.86883   0.39860   0.00000  Uiso   1.00
C965   C     0.57544   0.92697   0.38667   0.00000  Uiso   1.00
H966   H     0.58324   0.94123   0.42099   0.00000  Uiso   1.00
H967   H     0.53819   0.93842   0.36822   0.00000  Uiso   1.00
H968   H     0.60843   0.93697   0.36848   0.00000  Uiso   1.00
N969   N     0.43557   0.77703   0.61039   0.00000  Uiso   1.00
H970   H     0.44628   0.74684   0.61642   0.00000  Uiso   1.00
C971   C     0.37952   0.78205   0.60275   0.00000  Uiso   1.00
H972   H     0.36462   0.77526   0.56663   0.00000  Uiso   1.00
H973   H     0.36988   0.81398   0.61152   0.00000  Uiso   1.00
H974   H     0.35920   0.75978   0.62331   0.00000  Uiso   1.00
N975   N     0.57064   0.88439   0.62635   0.00000  Uiso   1.00
H976   H     0.56604   0.91583   0.62933   0.00000  Uiso   1.00
C977   C     0.62459   0.87207   0.63354   0.00000  Uiso   1.00
H978   H     0.64465   0.88180   0.33413   0.00000  Uiso   1.00
H979   H     0.64600   0.88746   0.60796   0.00000  Uiso   1.00
H980   H     0.62642   0.83786   0.63018   0.00000  Uiso   1.00
N981   N     0.42649   0.78459   0.37277   0.00000  Uiso   1.00
H982   H     0.38889   0.79477   0.36455   0.00000  Uiso   1.00
C983   C     0.43025   0.73988   0.37381   0.00000  Uiso   1.00
H984   H     0.39863   0.72480   0.34946   0.00000  Uiso   1.00
H985   H     0.42475   0.72865   0.40808   0.00000  Uiso   1.00
H986   H     0.46865   0.73023   0.36535   0.00000  Uiso   1.00
C987   C     0.83449   0.75340   0.50025   0.00000  Uiso   1.00
C988   C     0.83276   0.91329   0.50003   0.00000  Uiso   1.00
C989   C     0.73382   0.83337   0.48812   0.00000  Uiso   1.00
C990   C     0.93284   0.83490   0.51167   0.00000  Uiso   1.00
C991   C     0.67874   0.83181   0.48169   0.00000  Uiso   1.00
C992   C     0.98778   0.83974   0.51699   0.00000  Uiso   1.00
C993   C     0.83934   0.68799   0.46074   0.00000  Uiso   1.00
C994   C     0.83208   0.97863   0.54141   0.00000  Uiso   1.00
C995   C     0.83475   0.97892   0.45999   0.00000  Uiso   1.00
C996   C     0.83313   0.68794   0.54156   0.00000  Uiso   1.00
C997   C     0.83269   0.95750   0.50043   0.00000  Uiso   1.00
C998   C     0.83614   0.70923   0.50096   0.00000  Uiso   1.00
C999   C     0.86804   0.85871   0.36181   0.00000  Uiso   1.00
C1000  C     0.79970   0.80716   0.63842   0.00000  Uiso   1.00
C1001  C     0.86794   0.85872   0.64674   0.00000  Uiso   1.00
C1002  C     0.79875   0.80797   0.35322   0.00000  Uiso   1.00
H1003  H     0.99174   0.82227   0.44855   0.00000  Uiso   1.00
H1004  H     0.67503   0.85027   0.54947   0.00000  Uiso   1.00
H1005  H     0.84476   0.70395   0.42980   0.00000  Uiso   1.00
H1006  H     0.83034   0.96242   0.57311   0.00000  Uiso   1.00
H1007  H     0.83303   0.96310   0.42787   0.00000  Uiso   1.00
H1008  H     0.83162   0.70401   0.57326   0.00000  Uiso   1.00
N1009  N     0.83332   0.83332   0.61907   0.00000  Uiso   1.00
N1010  N     0.83335   0.83334   0.38093   0.00000  Uiso   1.00
O1011  O     0.83333   0.77225   0.53821   0.00000  Uiso   1.00
O1012  O     0.83334   0.89442   0.46179   0.00000  Uiso   1.00
O1013  O     0.83333   0.77226   0.46176   0.00000  Uiso   1.00
O1014  O     0.83334   0.89441   0.53824   0.00000  Uiso   1.00
O1015  O     0.75725   0.83333   0.52928   0.00000  Uiso   1.00
O1016  O     0.90942   0.83334   0.47072   0.00000  Uiso   1.00
O1017  O     0.75725   0.83334   0.45284   0.00000  Uiso   1.00
O1018  O     0.90942   0.83333   0.54716   0.00000  Uiso   1.00
Zn1019 Zn    0.83333   0.83333   0.55104   0.00000  Uiso   1.00
Zn1020 Zn    0.83333   0.83334   0.44896   0.00000  Uiso   1.00
N1021  N     0.90645   0.88226   0.39131   0.00000  Uiso   1.00
H1022  H     0.94226   0.86883   0.39860   0.00000  Uiso   1.00
C1023  C     0.90877   0.92697   0.38667   0.00000  Uiso   1.00
H1024  H     0.91657   0.94123   0.42099   0.00000  Uiso   1.00
H1025  H     0.87153   0.93842   0.36822   0.00000  Uiso   1.00
H1026  H     0.94176   0.93697   0.36848   0.00000  Uiso   1.00
N1027  N     0.76890   0.77703   0.61039   0.00000  Uiso   1.00
H1028  H     0.77962   0.74684   0.61642   0.00000  Uiso   1.00
C1029  C     0.71285   0.78205   0.60275   0.00000  Uiso   1.00
H1030  H     0.69795   0.77526   0.56663   0.00000  Uiso   1.00
H1031  H     0.70321   0.81398   0.61152   0.00000  Uiso   1.00
H1032  H     0.69253   0.75978   0.62331   0.00000  Uiso   1.00
N1033  N     0.90398   0.88439   0.62635   0.00000  Uiso   1.00
H1034  H     0.89937   0.91583   0.62933   0.00000  Uiso   1.00
C1035  C     0.95792   0.87207   0.63354   0.00000  Uiso   1.00
H1036  H     0.97798   0.88180   0.33413   0.00000  Uiso   1.00
H1037  H     0.97934   0.88746   0.60796   0.00000  Uiso   1.00
H1038  H     0.95975   0.83786   0.63018   0.00000  Uiso   1.00
N1039  N     0.75982   0.78459   0.37277   0.00000  Uiso   1.00
H1040  H     0.72222   0.79477   0.36455   0.00000  Uiso   1.00
C1041  C     0.76358   0.73988   0.37381   0.00000  Uiso   1.00
H1042  H     0.73197   0.72480   0.34946   0.00000  Uiso   1.00
H1043  H     0.75809   0.72865   0.40808   0.00000  Uiso   1.00
H1044  H     0.80199   0.73023   0.36535   0.00000  Uiso   1.00
C1045  C     0.16782   0.08673   0.83358   0.00000  Uiso   1.00
C1046  C     0.16610   0.24663   0.83337   0.00000  Uiso   1.00
C1047  C     0.06715   0.16670   0.82146   0.00000  Uiso   1.00
C1048  C     0.26617   0.16824   0.84500   0.00000  Uiso   1.00
C1049  C     0.01207   0.16515   0.81502   0.00000  Uiso   1.00
C1050  C     0.32111   0.17307   0.85033   0.00000  Uiso   1.00
C1051  C     0.17267   0.02132   0.79407   0.00000  Uiso   1.00
C1052  C     0.16542   0.31197   0.87474   0.00000  Uiso   1.00
C1053  C     0.16809   0.31225   0.79333   0.00000  Uiso   1.00
C1054  C     0.16646   0.02127   0.87489   0.00000  Uiso   1.00
C1055  C     0.16603   0.29084   0.83377   0.00000  Uiso   1.00
C1056  C     0.16948   0.04257   0.83429   0.00000  Uiso   1.00
C1057  C     0.20138   0.19204   0.69514   0.00000  Uiso   1.00
C1058  C     0.13303   0.14049   0.97176   0.00000  Uiso   1.00
C1059  C     0.20127   0.19206   0.98008   0.00000  Uiso   1.00
C1060  C     0.13209   0.14130   0.68655   0.00000  Uiso   1.00
H1061  H     0.32507   0.15560   0.78188   0.00000  Uiso   1.00
H1062  H     0.00836   0.18360   0.88280   0.00000  Uiso   1.00
H1063  H     0.17809   0.03729   0.76314   0.00000  Uiso   1.00
H1064  H     0.16368   0.29576   0.90644   0.00000  Uiso   1.00
H1065  H     0.16636   0.29643   0.76121   0.00000  Uiso   1.00
H1066  H     0.16495   0.03734   0.90659   0.00000  Uiso   1.00
N1067  N     0.16665   0.16666   0.95240   0.00000  Uiso   1.00
N1068  N     0.16668   0.16668   0.71427   0.00000  Uiso   1.00
O1069  O     0.16666   0.10558   0.87154   0.00000  Uiso   1.00
O1070  O     0.16667   0.22775   0.79513   0.00000  Uiso   1.00
O1071  O     0.16666   0.10559   0.79510   0.00000  Uiso   1.00
O1072  O     0.16667   0.22774   0.87157   0.00000  Uiso   1.00
O1073  O     0.09058   0.16666   0.86261   0.00000  Uiso   1.00
O1074  O     0.24275   0.16667   0.80405   0.00000  Uiso   1.00
O1075  O     0.09058   0.16667   0.78617   0.00000  Uiso   1.00
O1076  O     0.24275   0.16666   0.88050   0.00000  Uiso   1.00
Zn1077 Zn    0.16667   0.16666   0.88437   0.00000  Uiso   1.00
Zn1078 Zn    0.16667   0.16667   0.78229   0.00000  Uiso   1.00
N1079  N     0.23979   0.21559   0.72464   0.00000  Uiso   1.00
H1080  H     0.27560   0.20216   0.73194   0.00000  Uiso   1.00
C1081  C     0.24210   0.26030   0.72001   0.00000  Uiso   1.00
H1082  H     0.24990   0.27456   0.75432   0.00000  Uiso   1.00
H1083  H     0.20486   0.27175   0.70155   0.00000  Uiso   1.00
H1084  H     0.27509   0.27030   0.70182   0.00000  Uiso   1.00
N1085  N     0.10223   0.11037   0.94373   0.00000  Uiso   1.00
H1086  H     0.11295   0.08017   0.94976   0.00000  Uiso   1.00
C1087  C     0.04619   0.11539   0.93609   0.00000  Uiso   1.00
H1088  H     0.03129   0.10859   0.89996   0.00000  Uiso   1.00
H1089  H     0.03655   0.14731   0.94485   0.00000  Uiso   1.00
H1090  H     0.02586   0.09312   0.95665   0.00000  Uiso   1.00
N1091  N     0.23731   0.21772   0.95968   0.00000  Uiso   1.00
H1092  H     0.23271   0.24917   0.96266   0.00000  Uiso   1.00
C1093  C     0.29126   0.20541   0.96688   0.00000  Uiso   1.00
H1094  H     0.31132   0.21513   0.66746   0.00000  Uiso   1.00
H1095  H     0.31267   0.22080   0.94129   0.00000  Uiso   1.00
H1096  H     0.29308   0.17120   0.96352   0.00000  Uiso   1.00
N1097  N     0.09315   0.11793   0.70610   0.00000  Uiso   1.00
H1098  H     0.05556   0.12810   0.69789   0.00000  Uiso   1.00
C1099  C     0.09692   0.07321   0.70715   0.00000  Uiso   1.00
H1100  H     0.06530   0.05813   0.68279   0.00000  Uiso   1.00
H1101  H     0.09142   0.06198   0.74141   0.00000  Uiso   1.00
H1102  H     0.13532   0.06356   0.69869   0.00000  Uiso   1.00
C1103  C     0.50116   0.08673   0.83358   0.00000  Uiso   1.00
C1104  C     0.49943   0.24663   0.83337   0.00000  Uiso   1.00
C1105  C     0.40049   0.16670   0.82146   0.00000  Uiso   1.00
C1106  C     0.59951   0.16824   0.84500   0.00000  Uiso   1.00
C1107  C     0.34541   0.16515   0.81502   0.00000  Uiso   1.00
C1108  C     0.65445   0.17307   0.85033   0.00000  Uiso   1.00
C1109  C     0.50601   0.02132   0.79407   0.00000  Uiso   1.00
C1110  C     0.49875   0.31197   0.87474   0.00000  Uiso   1.00
C1111  C     0.50142   0.31225   0.79333   0.00000  Uiso   1.00
C1112  C     0.49980   0.02127   0.87489   0.00000  Uiso   1.00
C1113  C     0.49936   0.29084   0.83377   0.00000  Uiso   1.00
C1114  C     0.50281   0.04257   0.83429   0.00000  Uiso   1.00
C1115  C     0.53471   0.19204   0.69514   0.00000  Uiso   1.00
C1116  C     0.46636   0.14049   0.97176   0.00000  Uiso   1.00
C1117  C     0.53460   0.19206   0.98008   0.00000  Uiso   1.00
C1118  C     0.46542   0.14130   0.68655   0.00000  Uiso   1.00
H1119  H     0.65841   0.15560   0.78188   0.00000  Uiso   1.00
H1120  H     0.34170   0.18360   0.88280   0.00000  Uiso   1.00
H1121  H     0.51142   0.03729   0.76314   0.00000  Uiso   1.00
H1122  H     0.49701   0.29576   0.90644   0.00000  Uiso   1.00
H1123  H     0.49970   0.29643   0.76121   0.00000  Uiso   1.00
H1124  H     0.49828   0.03734   0.90659   0.00000  Uiso   1.00
N1125  N     0.49999   0.16666   0.95240   0.00000  Uiso   1.00
N1126  N     0.50001   0.16668   0.71427   0.00000  Uiso   1.00
O1127  O     0.50000   0.10558   0.87154   0.00000  Uiso   1.00
O1128  O     0.50000   0.22775   0.79513   0.00000  Uiso   1.00
O1129  O     0.50000   0.10559   0.79510   0.00000  Uiso   1.00
O1130  O     0.50000   0.22774   0.87157   0.00000  Uiso   1.00
O1131  O     0.42392   0.16666   0.86261   0.00000  Uiso   1.00
O1132  O     0.57608   0.16667   0.80405   0.00000  Uiso   1.00
O1133  O     0.42392   0.16667   0.78617   0.00000  Uiso   1.00
O1134  O     0.57608   0.16666   0.88050   0.00000  Uiso   1.00
Zn1135 Zn    0.50000   0.16666   0.88437   0.00000  Uiso   1.00
Zn1136 Zn    0.50000   0.16667   0.78229   0.00000  Uiso   1.00
N1137  N     0.57312   0.21559   0.72464   0.00000  Uiso   1.00
H1138  H     0.60893   0.20216   0.73194   0.00000  Uiso   1.00
C1139  C     0.57544   0.26030   0.72001   0.00000  Uiso   1.00
H1140  H     0.58324   0.27456   0.75432   0.00000  Uiso   1.00
H1141  H     0.53819   0.27175   0.70155   0.00000  Uiso   1.00
H1142  H     0.60843   0.27030   0.70182   0.00000  Uiso   1.00
N1143  N     0.43557   0.11037   0.94373   0.00000  Uiso   1.00
H1144  H     0.44628   0.08017   0.94976   0.00000  Uiso   1.00
C1145  C     0.37952   0.11539   0.93609   0.00000  Uiso   1.00
H1146  H     0.36462   0.10859   0.89996   0.00000  Uiso   1.00
H1147  H     0.36988   0.14731   0.94485   0.00000  Uiso   1.00
H1148  H     0.35920   0.09312   0.95665   0.00000  Uiso   1.00
N1149  N     0.57064   0.21772   0.95968   0.00000  Uiso   1.00
H1150  H     0.56604   0.24917   0.96266   0.00000  Uiso   1.00
C1151  C     0.62459   0.20541   0.96688   0.00000  Uiso   1.00
H1152  H     0.64465   0.21513   0.66746   0.00000  Uiso   1.00
H1153  H     0.64600   0.22080   0.94129   0.00000  Uiso   1.00
H1154  H     0.62642   0.17120   0.96352   0.00000  Uiso   1.00
N1155  N     0.42649   0.11793   0.70610   0.00000  Uiso   1.00
H1156  H     0.38889   0.12810   0.69789   0.00000  Uiso   1.00
C1157  C     0.43025   0.07321   0.70715   0.00000  Uiso   1.00
H1158  H     0.39863   0.05813   0.68279   0.00000  Uiso   1.00
H1159  H     0.42475   0.06198   0.74141   0.00000  Uiso   1.00
H1160  H     0.46865   0.06356   0.69869   0.00000  Uiso   1.00
C1161  C     0.83449   0.08673   0.83358   0.00000  Uiso   1.00
C1162  C     0.83276   0.24663   0.83337   0.00000  Uiso   1.00
C1163  C     0.73382   0.16670   0.82146   0.00000  Uiso   1.00
C1164  C     0.93284   0.16824   0.84500   0.00000  Uiso   1.00
C1165  C     0.67874   0.16515   0.81502   0.00000  Uiso   1.00
C1166  C     0.98778   0.17307   0.85033   0.00000  Uiso   1.00
C1167  C     0.83934   0.02132   0.79407   0.00000  Uiso   1.00
C1168  C     0.83208   0.31197   0.87474   0.00000  Uiso   1.00
C1169  C     0.83475   0.31225   0.79333   0.00000  Uiso   1.00
C1170  C     0.83313   0.02127   0.87489   0.00000  Uiso   1.00
C1171  C     0.83269   0.29084   0.83377   0.00000  Uiso   1.00
C1172  C     0.83614   0.04257   0.83429   0.00000  Uiso   1.00
C1173  C     0.86804   0.19204   0.69514   0.00000  Uiso   1.00
C1174  C     0.79970   0.14049   0.97176   0.00000  Uiso   1.00
C1175  C     0.86794   0.19206   0.98008   0.00000  Uiso   1.00
C1176  C     0.79875   0.14130   0.68655   0.00000  Uiso   1.00
H1177  H     0.99174   0.15560   0.78188   0.00000  Uiso   1.00
H1178  H     0.67503   0.18360   0.88280   0.00000  Uiso   1.00
H1179  H     0.84476   0.03729   0.76314   0.00000  Uiso   1.00
H1180  H     0.83034   0.29576   0.90644   0.00000  Uiso   1.00
H1181  H     0.83303   0.29643   0.76121   0.00000  Uiso   1.00
H1182  H     0.83162   0.03734   0.90659   0.00000  Uiso   1.00
N1183  N     0.83332   0.16666   0.95240   0.00000  Uiso   1.00
N1184  N     0.83335   0.16668   0.71427   0.00000  Uiso   1.00
O1185  O     0.83333   0.10558   0.87154   0.00000  Uiso   1.00
O1186  O     0.83334   0.22775   0.79513   0.00000  Uiso   1.00
O1187  O     0.83333   0.10559   0.79510   0.00000  Uiso   1.00
O1188  O     0.83334   0.22774   0.87157   0.00000  Uiso   1.00
O1189  O     0.75725   0.16666   0.86261   0.00000  Uiso   1.00
O1190  O     0.90942   0.16667   0.80405   0.00000  Uiso   1.00
O1191  O     0.75725   0.16667   0.78617   0.00000  Uiso   1.00
O1192  O     0.90942   0.16666   0.88050   0.00000  Uiso   1.00
Zn1193 Zn    0.83333   0.16666   0.88437   0.00000  Uiso   1.00
Zn1194 Zn    0.83333   0.16667   0.78229   0.00000  Uiso   1.00
N1195  N     0.90645   0.21559   0.72464   0.00000  Uiso   1.00
H1196  H     0.94226   0.20216   0.73194   0.00000  Uiso   1.00
C1197  C     0.90877   0.26030   0.72001   0.00000  Uiso   1.00
H1198  H     0.91657   0.27456   0.75432   0.00000  Uiso   1.00
H1199  H     0.87153   0.27175   0.70155   0.00000  Uiso   1.00
H1200  H     0.94176   0.27030   0.70182   0.00000  Uiso   1.00
N1201  N     0.76890   0.11037   0.94373   0.00000  Uiso   1.00
H1202  H     0.77962   0.08017   0.94976   0.00000  Uiso   1.00
C1203  C     0.71285   0.11539   0.93609   0.00000  Uiso   1.00
H1204  H     0.69795   0.10859   0.89996   0.00000  Uiso   1.00
H1205  H     0.70321   0.14731   0.94485   0.00000  Uiso   1.00
H1206  H     0.69253   0.09312   0.95665   0.00000  Uiso   1.00
N1207  N     0.90398   0.21772   0.95968   0.00000  Uiso   1.00
H1208  H     0.89937   0.24917   0.96266   0.00000  Uiso   1.00
C1209  C     0.95792   0.20541   0.96688   0.00000  Uiso   1.00
H1210  H     0.97798   0.21513   0.66746   0.00000  Uiso   1.00
H1211  H     0.97934   0.22080   0.94129   0.00000  Uiso   1.00
H1212  H     0.95975   0.17120   0.96352   0.00000  Uiso   1.00
N1213  N     0.75982   0.11793   0.70610   0.00000  Uiso   1.00
H1214  H     0.72222   0.12810   0.69789   0.00000  Uiso   1.00
C1215  C     0.76358   0.07321   0.70715   0.00000  Uiso   1.00
H1216  H     0.73197   0.05813   0.68279   0.00000  Uiso   1.00
H1217  H     0.75809   0.06198   0.74141   0.00000  Uiso   1.00
H1218  H     0.80199   0.06356   0.69869   0.00000  Uiso   1.00
C1219  C     0.16782   0.42006   0.83358   0.00000  Uiso   1.00
C1220  C     0.16610   0.57996   0.83337   0.00000  Uiso   1.00
C1221  C     0.06715   0.50003   0.82146   0.00000  Uiso   1.00
C1222  C     0.26617   0.50157   0.84500   0.00000  Uiso   1.00
C1223  C     0.01207   0.49848   0.81502   0.00000  Uiso   1.00
C1224  C     0.32111   0.50641   0.85033   0.00000  Uiso   1.00
C1225  C     0.17267   0.35465   0.79407   0.00000  Uiso   1.00
C1226  C     0.16542   0.64530   0.87474   0.00000  Uiso   1.00
C1227  C     0.16809   0.64558   0.79333   0.00000  Uiso   1.00
C1228  C     0.16646   0.35461   0.87489   0.00000  Uiso   1.00
C1229  C     0.16603   0.62417   0.83377   0.00000  Uiso   1.00
C1230  C     0.16948   0.37590   0.83429   0.00000  Uiso   1.00
C1231  C     0.20138   0.52537   0.69514   0.00000  Uiso   1.00
C1232  C     0.13303   0.47383   0.97176   0.00000  Uiso   1.00
C1233  C     0.20127   0.52539   0.98008   0.00000  Uiso   1.00
C1234  C     0.13209   0.47463   0.68655   0.00000  Uiso   1.00
H1235  H     0.32507   0.48893   0.78188   0.00000  Uiso   1.00
H1236  H     0.00836   0.51694   0.88280   0.00000  Uiso   1.00
H1237  H     0.17809   0.37062   0.76314   0.00000  Uiso   1.00
H1238  H     0.16368   0.62909   0.90644   0.00000  Uiso   1.00
H1239  H     0.16636   0.62976   0.76121   0.00000  Uiso   1.00
H1240  H     0.16495   0.37067   0.90659   0.00000  Uiso   1.00
N1241  N     0.16665   0.49999   0.95240   0.00000  Uiso   1.00
N1242  N     0.16668   0.50001   0.71427   0.00000  Uiso   1.00
O1243  O     0.16666   0.43892   0.87154   0.00000  Uiso   1.00
O1244  O     0.16667   0.56108   0.79513   0.00000  Uiso   1.00
O1245  O     0.16666   0.43893   0.79510   0.00000  Uiso   1.00
O1246  O     0.16667   0.56107   0.87157   0.00000  Uiso   1.00
O1247  O     0.09058   0.50000   0.86261   0.00000  Uiso   1.00
O1248  O     0.24275   0.50000   0.80405   0.00000  Uiso   1.00
O1249  O     0.09058   0.50000   0.78617   0.00000  Uiso   1.00
O1250  O     0.24275   0.50000   0.88050   0.00000  Uiso   1.00
Zn1251 Zn    0.16667   0.49999   0.88437   0.00000  Uiso   1.00
Zn1252 Zn    0.16667   0.50001   0.78229   0.00000  Uiso   1.00
N1253  N     0.23979   0.54893   0.72464   0.00000  Uiso   1.00
H1254  H     0.27560   0.53549   0.73194   0.00000  Uiso   1.00
C1255  C     0.24210   0.59363   0.72001   0.00000  Uiso   1.00
H1256  H     0.24990   0.60790   0.75432   0.00000  Uiso   1.00
H1257  H     0.20486   0.60508   0.70155   0.00000  Uiso   1.00
H1258  H     0.27509   0.60364   0.70182   0.00000  Uiso   1.00
N1259  N     0.10223   0.44370   0.94373   0.00000  Uiso   1.00
H1260  H     0.11295   0.41350   0.94976   0.00000  Uiso   1.00
C1261  C     0.04619   0.44872   0.93609   0.00000  Uiso   1.00
H1262  H     0.03129   0.44192   0.89996   0.00000  Uiso   1.00
H1263  H     0.03655   0.48065   0.94485   0.00000  Uiso   1.00
H1264  H     0.02586   0.42645   0.95665   0.00000  Uiso   1.00
N1265  N     0.23731   0.55106   0.95968   0.00000  Uiso   1.00
H1266  H     0.23271   0.58250   0.96266   0.00000  Uiso   1.00
C1267  C     0.29126   0.53874   0.96688   0.00000  Uiso   1.00
H1268  H     0.31132   0.54846   0.66746   0.00000  Uiso   1.00
H1269  H     0.31267   0.55413   0.94129   0.00000  Uiso   1.00
H1270  H     0.29308   0.50453   0.96352   0.00000  Uiso   1.00
N1271  N     0.09315   0.45126   0.70610   0.00000  Uiso   1.00
H1272  H     0.05556   0.46144   0.69789   0.00000  Uiso   1.00
C1273  C     0.09692   0.40655   0.70715   0.00000  Uiso   1.00
H1274  H     0.06530   0.39146   0.68279   0.00000  Uiso   1.00
H1275  H     0.09142   0.39531   0.74141   0.00000  Uiso   1.00
H1276  H     0.13532   0.39689   0.69869   0.00000  Uiso   1.00
C1277  C     0.50116   0.42006   0.83358   0.00000  Uiso   1.00
C1278  C     0.49943   0.57996   0.83337   0.00000  Uiso   1.00
C1279  C     0.40049   0.50003   0.82146   0.00000  Uiso   1.00
C1280  C     0.59951   0.50157   0.84500   0.00000  Uiso   1.00
C1281  C     0.34541   0.49848   0.81502   0.00000  Uiso   1.00
C1282  C     0.65445   0.50641   0.85033   0.00000  Uiso   1.00
C1283  C     0.50601   0.35465   0.79407   0.00000  Uiso   1.00
C1284  C     0.49875   0.64530   0.87474   0.00000  Uiso   1.00
C1285  C     0.50142   0.64558   0.79333   0.00000  Uiso   1.00
C1286  C     0.49980   0.35461   0.87489   0.00000  Uiso   1.00
C1287  C     0.49936   0.62417   0.83377   0.00000  Uiso   1.00
C1288  C     0.50281   0.37590   0.83429   0.00000  Uiso   1.00
C1289  C     0.53471   0.52537   0.69514   0.00000  Uiso   1.00
C1290  C     0.46636   0.47383   0.97176   0.00000  Uiso   1.00
C1291  C     0.53460   0.52539   0.98008   0.00000  Uiso   1.00
C1292  C     0.46542   0.47463   0.68655   0.00000  Uiso   1.00
H1293  H     0.65841   0.48893   0.78188   0.00000  Uiso   1.00
H1294  H     0.34170   0.51694   0.88280   0.00000  Uiso   1.00
H1295  H     0.51142   0.37062   0.76314   0.00000  Uiso   1.00
H1296  H     0.49701   0.62909   0.90644   0.00000  Uiso   1.00
H1297  H     0.49970   0.62976   0.76121   0.00000  Uiso   1.00
H1298  H     0.49828   0.37067   0.90659   0.00000  Uiso   1.00
N1299  N     0.49999   0.49999   0.95240   0.00000  Uiso   1.00
N1300  N     0.50001   0.50001   0.71427   0.00000  Uiso   1.00
O1301  O     0.50000   0.43892   0.87154   0.00000  Uiso   1.00
O1302  O     0.50000   0.56108   0.79513   0.00000  Uiso   1.00
O1303  O     0.50000   0.43893   0.79510   0.00000  Uiso   1.00
O1304  O     0.50000   0.56107   0.87157   0.00000  Uiso   1.00
O1305  O     0.42392   0.50000   0.86261   0.00000  Uiso   1.00
O1306  O     0.57608   0.50000   0.80405   0.00000  Uiso   1.00
O1307  O     0.42392   0.50000   0.78617   0.00000  Uiso   1.00
O1308  O     0.57608   0.50000   0.88050   0.00000  Uiso   1.00
Zn1309 Zn    0.50000   0.49999   0.88437   0.00000  Uiso   1.00
Zn1310 Zn    0.50000   0.50001   0.78229   0.00000  Uiso   1.00
N1311  N     0.57312   0.54893   0.72464   0.00000  Uiso   1.00
H1312  H     0.60893   0.53549   0.73194   0.00000  Uiso   1.00
C1313  C     0.57544   0.59363   0.72001   0.00000  Uiso   1.00
H1314  H     0.58324   0.60790   0.75432   0.00000  Uiso   1.00
H1315  H     0.53819   0.60508   0.70155   0.00000  Uiso   1.00
H1316  H     0.60843   0.60364   0.70182   0.00000  Uiso   1.00
N1317  N     0.43557   0.44370   0.94373   0.00000  Uiso   1.00
H1318  H     0.44628   0.41350   0.94976   0.00000  Uiso   1.00
C1319  C     0.37952   0.44872   0.93609   0.00000  Uiso   1.00
H1320  H     0.36462   0.44192   0.89996   0.00000  Uiso   1.00
H1321  H     0.36988   0.48065   0.94485   0.00000  Uiso   1.00
H1322  H     0.35920   0.42645   0.95665   0.00000  Uiso   1.00
N1323  N     0.57064   0.55106   0.95968   0.00000  Uiso   1.00
H1324  H     0.56604   0.58250   0.96266   0.00000  Uiso   1.00
C1325  C     0.62459   0.53874   0.96688   0.00000  Uiso   1.00
H1326  H     0.64465   0.54846   0.66746   0.00000  Uiso   1.00
H1327  H     0.64600   0.55413   0.94129   0.00000  Uiso   1.00
H1328  H     0.62642   0.50453   0.96352   0.00000  Uiso   1.00
N1329  N     0.42649   0.45126   0.70610   0.00000  Uiso   1.00
H1330  H     0.38889   0.46144   0.69789   0.00000  Uiso   1.00
C1331  C     0.43025   0.40655   0.70715   0.00000  Uiso   1.00
H1332  H     0.39863   0.39146   0.68279   0.00000  Uiso   1.00
H1333  H     0.42475   0.39531   0.74141   0.00000  Uiso   1.00
H1334  H     0.46865   0.39689   0.69869   0.00000  Uiso   1.00
C1335  C     0.83449   0.42006   0.83358   0.00000  Uiso   1.00
C1336  C     0.83276   0.57996   0.83337   0.00000  Uiso   1.00
C1337  C     0.73382   0.50003   0.82146   0.00000  Uiso   1.00
C1338  C     0.93284   0.50157   0.84500   0.00000  Uiso   1.00
C1339  C     0.67874   0.49848   0.81502   0.00000  Uiso   1.00
C1340  C     0.98778   0.50641   0.85033   0.00000  Uiso   1.00
C1341  C     0.83934   0.35465   0.79407   0.00000  Uiso   1.00
C1342  C     0.83208   0.64530   0.87474   0.00000  Uiso   1.00
C1343  C     0.83475   0.64558   0.79333   0.00000  Uiso   1.00
C1344  C     0.83313   0.35461   0.87489   0.00000  Uiso   1.00
C1345  C     0.83269   0.62417   0.83377   0.00000  Uiso   1.00
C1346  C     0.83614   0.37590   0.83429   0.00000  Uiso   1.00
C1347  C     0.86804   0.52537   0.69514   0.00000  Uiso   1.00
C1348  C     0.79970   0.47383   0.97176   0.00000  Uiso   1.00
C1349  C     0.86794   0.52539   0.98008   0.00000  Uiso   1.00
C1350  C     0.79875   0.47463   0.68655   0.00000  Uiso   1.00
H1351  H     0.99174   0.48893   0.78188   0.00000  Uiso   1.00
H1352  H     0.67503   0.51694   0.88280   0.00000  Uiso   1.00
H1353  H     0.84476   0.37062   0.76314   0.00000  Uiso   1.00
H1354  H     0.83034   0.62909   0.90644   0.00000  Uiso   1.00
H1355  H     0.83303   0.62976   0.76121   0.00000  Uiso   1.00
H1356  H     0.83162   0.37067   0.90659   0.00000  Uiso   1.00
N1357  N     0.83332   0.49999   0.95240   0.00000  Uiso   1.00
N1358  N     0.83335   0.50001   0.71427   0.00000  Uiso   1.00
O1359  O     0.83333   0.43892   0.87154   0.00000  Uiso   1.00
O1360  O     0.83334   0.56108   0.79513   0.00000  Uiso   1.00
O1361  O     0.83333   0.43893   0.79510   0.00000  Uiso   1.00
O1362  O     0.83334   0.56107   0.87157   0.00000  Uiso   1.00
O1363  O     0.75725   0.50000   0.86261   0.00000  Uiso   1.00
O1364  O     0.90942   0.50000   0.80405   0.00000  Uiso   1.00
O1365  O     0.75725   0.50000   0.78617   0.00000  Uiso   1.00
O1366  O     0.90942   0.50000   0.88050   0.00000  Uiso   1.00
Zn1367 Zn    0.83333   0.49999   0.88437   0.00000  Uiso   1.00
Zn1368 Zn    0.83333   0.50001   0.78229   0.00000  Uiso   1.00
N1369  N     0.90645   0.54893   0.72464   0.00000  Uiso   1.00
H1370  H     0.94226   0.53549   0.73194   0.00000  Uiso   1.00
C1371  C     0.90877   0.59363   0.72001   0.00000  Uiso   1.00
H1372  H     0.91657   0.60790   0.75432   0.00000  Uiso   1.00
H1373  H     0.87153   0.60508   0.70155   0.00000  Uiso   1.00
H1374  H     0.94176   0.60364   0.70182   0.00000  Uiso   1.00
N1375  N     0.76890   0.44370   0.94373   0.00000  Uiso   1.00
H1376  H     0.77962   0.41350   0.94976   0.00000  Uiso   1.00
C1377  C     0.71285   0.44872   0.93609   0.00000  Uiso   1.00
H1378  H     0.69795   0.44192   0.89996   0.00000  Uiso   1.00
H1379  H     0.70321   0.48065   0.94485   0.00000  Uiso   1.00
H1380  H     0.69253   0.42645   0.95665   0.00000  Uiso   1.00
N1381  N     0.90398   0.55106   0.95968   0.00000  Uiso   1.00
H1382  H     0.89937   0.58250   0.96266   0.00000  Uiso   1.00
C1383  C     0.95792   0.53874   0.96688   0.00000  Uiso   1.00
H1384  H     0.97798   0.54846   0.66746   0.00000  Uiso   1.00
H1385  H     0.97934   0.55413   0.94129   0.00000  Uiso   1.00
H1386  H     0.95975   0.50453   0.96352   0.00000  Uiso   1.00
N1387  N     0.75982   0.45126   0.70610   0.00000  Uiso   1.00
H1388  H     0.72222   0.46144   0.69789   0.00000  Uiso   1.00
C1389  C     0.76358   0.40655   0.70715   0.00000  Uiso   1.00
H1390  H     0.73197   0.39146   0.68279   0.00000  Uiso   1.00
H1391  H     0.75809   0.39531   0.74141   0.00000  Uiso   1.00
H1392  H     0.80199   0.39689   0.69869   0.00000  Uiso   1.00
C1393  C     0.16782   0.75340   0.83358   0.00000  Uiso   1.00
C1394  C     0.16610   0.91329   0.83337   0.00000  Uiso   1.00
C1395  C     0.06715   0.83337   0.82146   0.00000  Uiso   1.00
C1396  C     0.26617   0.83490   0.84500   0.00000  Uiso   1.00
C1397  C     0.01207   0.83181   0.81502   0.00000  Uiso   1.00
C1398  C     0.32111   0.83974   0.85033   0.00000  Uiso   1.00
C1399  C     0.17267   0.68799   0.79407   0.00000  Uiso   1.00
C1400  C     0.16542   0.97863   0.87474   0.00000  Uiso   1.00
C1401  C     0.16809   0.97892   0.79333   0.00000  Uiso   1.00
C1402  C     0.16646   0.68794   0.87489   0.00000  Uiso   1.00
C1403  C     0.16603   0.95750   0.83377   0.00000  Uiso   1.00
C1404  C     0.16948   0.70923   0.83429   0.00000  Uiso   1.00
C1405  C     0.20138   0.85871   0.69514   0.00000  Uiso   1.00
C1406  C     0.13303   0.80716   0.97176   0.00000  Uiso   1.00
C1407  C     0.20127   0.85872   0.98008   0.00000  Uiso   1.00
C1408  C     0.13209   0.80797   0.68655   0.00000  Uiso   1.00
H1409  H     0.32507   0.82227   0.78188   0.00000  Uiso   1.00
H1410  H     0.00836   0.85027   0.88280   0.00000  Uiso   1.00
H1411  H     0.17809   0.70395   0.76314   0.00000  Uiso   1.00
H1412  H     0.16368   0.96242   0.90644   0.00000  Uiso   1.00
H1413  H     0.16636   0.96310   0.76121   0.00000  Uiso   1.00
H1414  H     0.16495   0.70401   0.90659   0.00000  Uiso   1.00
N1415  N     0.16665   0.83332   0.95240   0.00000  Uiso   1.00
N1416  N     0.16668   0.83334   0.71427   0.00000  Uiso   1.00
O1417  O     0.16666   0.77225   0.87154   0.00000  Uiso   1.00
O1418  O     0.16667   0.89442   0.79513   0.00000  Uiso   1.00
O1419  O     0.16666   0.77226   0.79510   0.00000  Uiso   1.00
O1420  O     0.16667   0.89441   0.87157   0.00000  Uiso   1.00
O1421  O     0.09058   0.83333   0.86261   0.00000  Uiso   1.00
O1422  O     0.24275   0.83334   0.80405   0.00000  Uiso   1.00
O1423  O     0.09058   0.83334   0.78617   0.00000  Uiso   1.00
O1424  O     0.24275   0.83333   0.88050   0.00000  Uiso   1.00
Zn1425 Zn    0.16667   0.83333   0.88437   0.00000  Uiso   1.00
Zn1426 Zn    0.16667   0.83334   0.78229   0.00000  Uiso   1.00
N1427  N     0.23979   0.88226   0.72464   0.00000  Uiso   1.00
H1428  H     0.27560   0.86883   0.73194   0.00000  Uiso   1.00
C1429  C     0.24210   0.92697   0.72001   0.00000  Uiso   1.00
H1430  H     0.24990   0.94123   0.75432   0.00000  Uiso   1.00
H1431  H     0.20486   0.93842   0.70155   0.00000  Uiso   1.00
H1432  H     0.27509   0.93697   0.70182   0.00000  Uiso   1.00
N1433  N     0.10223   0.77703   0.94373   0.00000  Uiso   1.00
H1434  H     0.11295   0.74684   0.94976   0.00000  Uiso   1.00
C1435  C     0.04619   0.78205   0.93609   0.00000  Uiso   1.00
H1436  H     0.03129   0.77526   0.89996   0.00000  Uiso   1.00
H1437  H     0.03655   0.81398   0.94485   0.00000  Uiso   1.00
H1438  H     0.02586   0.75978   0.95665   0.00000  Uiso   1.00
N1439  N     0.23731   0.88439   0.95968   0.00000  Uiso   1.00
H1440  H     0.23271   0.91583   0.96266   0.00000  Uiso   1.00
C1441  C     0.29126   0.87207   0.96688   0.00000  Uiso   1.00
H1442  H     0.31132   0.88180   0.66746   0.00000  Uiso   1.00
H1443  H     0.31267   0.88746   0.94129   0.00000  Uiso   1.00
H1444  H     0.29308   0.83786   0.96352   0.00000  Uiso   1.00
N1445  N     0.09315   0.78459   0.70610   0.00000  Uiso   1.00
H1446  H     0.05556   0.79477   0.69789   0.00000  Uiso   1.00
C1447  C     0.09692   0.73988   0.70715   0.00000  Uiso   1.00
H1448  H     0.06530   0.72480   0.68279   0.00000  Uiso   1.00
H1449  H     0.09142   0.72865   0.74141   0.00000  Uiso   1.00
H1450  H     0.13532   0.73023   0.69869   0.00000  Uiso   1.00
C1451  C     0.50116   0.75340   0.83358   0.00000  Uiso   1.00
C1452  C     0.49943   0.91329   0.83337   0.00000  Uiso   1.00
C1453  C     0.40049   0.83337   0.82146   0.00000  Uiso   1.00
C1454  C     0.59951   0.83490   0.84500   0.00000  Uiso   1.00
C1455  C     0.34541   0.83181   0.81502   0.00000  Uiso   1.00
C1456  C     0.65445   0.83974   0.85033   0.00000  Uiso   1.00
C1457  C     0.50601   0.68799   0.79407   0.00000  Uiso   1.00
C1458  C     0.49875   0.97863   0.87474   0.00000  Uiso   1.00
C1459  C     0.50142   0.97892   0.79333   0.00000  Uiso   1.00
C1460  C     0.49980   0.68794   0.87489   0.00000  Uiso   1.00
C1461  C     0.49936   0.95750   0.83377   0.00000  Uiso   1.00
C1462  C     0.50281   0.70923   0.83429   0.00000  Uiso   1.00
C1463  C     0.53471   0.85871   0.69514   0.00000  Uiso   1.00
C1464  C     0.46636   0.80716   0.97176   0.00000  Uiso   1.00
C1465  C     0.53460   0.85872   0.98008   0.00000  Uiso   1.00
C1466  C     0.46542   0.80797   0.68655   0.00000  Uiso   1.00
H1467  H     0.65841   0.82227   0.78188   0.00000  Uiso   1.00
H1468  H     0.34170   0.85027   0.88280   0.00000  Uiso   1.00
H1469  H     0.51142   0.70395   0.76314   0.00000  Uiso   1.00
H1470  H     0.49701   0.96242   0.90644   0.00000  Uiso   1.00
H1471  H     0.49970   0.96310   0.76121   0.00000  Uiso   1.00
H1472  H     0.49828   0.70401   0.90659   0.00000  Uiso   1.00
N1473  N     0.49999   0.83332   0.95240   0.00000  Uiso   1.00
N1474  N     0.50001   0.83334   0.71427   0.00000  Uiso   1.00
O1475  O     0.50000   0.77225   0.87154   0.00000  Uiso   1.00
O1476  O     0.50000   0.89442   0.79513   0.00000  Uiso   1.00
O1477  O     0.50000   0.77226   0.79510   0.00000  Uiso   1.00
O1478  O     0.50000   0.89441   0.87157   0.00000  Uiso   1.00
O1479  O     0.42392   0.83333   0.86261   0.00000  Uiso   1.00
O1480  O     0.57608   0.83334   0.80405   0.00000  Uiso   1.00
O1481  O     0.42392   0.83334   0.78617   0.00000  Uiso   1.00
O1482  O     0.57608   0.83333   0.88050   0.00000  Uiso   1.00
Zn1483 Zn    0.50000   0.83333   0.88437   0.00000  Uiso   1.00
Zn1484 Zn    0.50000   0.83334   0.78229   0.00000  Uiso   1.00
N1485  N     0.57312   0.88226   0.72464   0.00000  Uiso   1.00
H1486  H     0.60893   0.86883   0.73194   0.00000  Uiso   1.00
C1487  C     0.57544   0.92697   0.72001   0.00000  Uiso   1.00
H1488  H     0.58324   0.94123   0.75432   0.00000  Uiso   1.00
H1489  H     0.53819   0.93842   0.70155   0.00000  Uiso   1.00
H1490  H     0.60843   0.93697   0.70182   0.00000  Uiso   1.00
N1491  N     0.43557   0.77703   0.94373   0.00000  Uiso   1.00
H1492  H     0.44628   0.74684   0.94976   0.00000  Uiso   1.00
C1493  C     0.37952   0.78205   0.93609   0.00000  Uiso   1.00
H1494  H     0.36462   0.77526   0.89996   0.00000  Uiso   1.00
H1495  H     0.36988   0.81398   0.94485   0.00000  Uiso   1.00
H1496  H     0.35920   0.75978   0.95665   0.00000  Uiso   1.00
N1497  N     0.57064   0.88439   0.95968   0.00000  Uiso   1.00
H1498  H     0.56604   0.91583   0.96266   0.00000  Uiso   1.00
C1499  C     0.62459   0.87207   0.96688   0.00000  Uiso   1.00
H1500  H     0.64465   0.88180   0.66746   0.00000  Uiso   1.00
H1501  H     0.64600   0.88746   0.94129   0.00000  Uiso   1.00
H1502  H     0.62642   0.83786   0.96352   0.00000  Uiso   1.00
N1503  N     0.42649   0.78459   0.70610   0.00000  Uiso   1.00
H1504  H     0.38889   0.79477   0.69789   0.00000  Uiso   1.00
C1505  C     0.43025   0.73988   0.70715   0.00000  Uiso   1.00
H1506  H     0.39863   0.72480   0.68279   0.00000  Uiso   1.00
H1507  H     0.42475   0.72865   0.74141   0.00000  Uiso   1.00
H1508  H     0.46865   0.73023   0.69869   0.00000  Uiso   1.00
C1509  C     0.83449   0.75340   0.83358   0.00000  Uiso   1.00
C1510  C     0.83276   0.91329   0.83337   0.00000  Uiso   1.00
C1511  C     0.73382   0.83337   0.82146   0.00000  Uiso   1.00
C1512  C     0.93284   0.83490   0.84500   0.00000  Uiso   1.00
C1513  C     0.67874   0.83181   0.81502   0.00000  Uiso   1.00
C1514  C     0.98778   0.83974   0.85033   0.00000  Uiso   1.00
C1515  C     0.83934   0.68799   0.79407   0.00000  Uiso   1.00
C1516  C     0.83208   0.97863   0.87474   0.00000  Uiso   1.00
C1517  C     0.83475   0.97892   0.79333   0.00000  Uiso   1.00
C1518  C     0.83313   0.68794   0.87489   0.00000  Uiso   1.00
C1519  C     0.83269   0.95750   0.83377   0.00000  Uiso   1.00
C1520  C     0.83614   0.70923   0.83429   0.00000  Uiso   1.00
C1521  C     0.86804   0.85871   0.69514   0.00000  Uiso   1.00
C1522  C     0.79970   0.80716   0.97176   0.00000  Uiso   1.00
C1523  C     0.86794   0.85872   0.98008   0.00000  Uiso   1.00
C1524  C     0.79875   0.80797   0.68655   0.00000  Uiso   1.00
H1525  H     0.99174   0.82227   0.78188   0.00000  Uiso   1.00
H1526  H     0.67503   0.85027   0.88280   0.00000  Uiso   1.00
H1527  H     0.84476   0.70395   0.76314   0.00000  Uiso   1.00
H1528  H     0.83034   0.96242   0.90644   0.00000  Uiso   1.00
H1529  H     0.83303   0.96310   0.76121   0.00000  Uiso   1.00
H1530  H     0.83162   0.70401   0.90659   0.00000  Uiso   1.00
N1531  N     0.83332   0.83332   0.95240   0.00000  Uiso   1.00
N1532  N     0.83335   0.83334   0.71427   0.00000  Uiso   1.00
O1533  O     0.83333   0.77225   0.87154   0.00000  Uiso   1.00
O1534  O     0.83334   0.89442   0.79513   0.00000  Uiso   1.00
O1535  O     0.83333   0.77226   0.79510   0.00000  Uiso   1.00
O1536  O     0.83334   0.89441   0.87157   0.00000  Uiso   1.00
O1537  O     0.75725   0.83333   0.86261   0.00000  Uiso   1.00
O1538  O     0.90942   0.83334   0.80405   0.00000  Uiso   1.00
O1539  O     0.75725   0.83334   0.78617   0.00000  Uiso   1.00
O1540  O     0.90942   0.83333   0.88050   0.00000  Uiso   1.00
Zn1541 Zn    0.83333   0.83333   0.88437   0.00000  Uiso   1.00
Zn1542 Zn    0.83333   0.83334   0.78229   0.00000  Uiso   1.00
N1543  N     0.90645   0.88226   0.72464   0.00000  Uiso   1.00
H1544  H     0.94226   0.86883   0.73194   0.00000  Uiso   1.00
C1545  C     0.90877   0.92697   0.72001   0.00000  Uiso   1.00
H1546  H     0.91657   0.94123   0.75432   0.00000  Uiso   1.00
H1547  H     0.87153   0.93842   0.70155   0.00000  Uiso   1.00
H1548  H     0.94176   0.93697   0.70182   0.00000  Uiso   1.00
N1549  N     0.76890   0.77703   0.94373   0.00000  Uiso   1.00
H1550  H     0.77962   0.74684   0.94976   0.00000  Uiso   1.00
C1551  C     0.71285   0.78205   0.93609   0.00000  Uiso   1.00
H1552  H     0.69795   0.77526   0.89996   0.00000  Uiso   1.00
H1553  H     0.70321   0.81398   0.94485   0.00000  Uiso   1.00
H1554  H     0.69253   0.75978   0.95665   0.00000  Uiso   1.00
N1555  N     0.90398   0.88439   0.95968   0.00000  Uiso   1.00
H1556  H     0.89937   0.91583   0.96266   0.00000  Uiso   1.00
C1557  C     0.95792   0.87207   0.96688   0.00000  Uiso   1.00
H1558  H     0.97798   0.88180   0.66746   0.00000  Uiso   1.00
H1559  H     0.97934   0.88746   0.94129   0.00000  Uiso   1.00
H1560  H     0.95975   0.83786   0.96352   0.00000  Uiso   1.00
N1561  N     0.75982   0.78459   0.70610   0.00000  Uiso   1.00
H1562  H     0.72222   0.79477   0.69789   0.00000  Uiso   1.00
C1563  C     0.76358   0.73988   0.70715   0.00000  Uiso   1.00
H1564  H     0.73197   0.72480   0.68279   0.00000  Uiso   1.00
H1565  H     0.75809   0.72865   0.74141   0.00000  Uiso   1.00
H1566  H     0.80199   0.73023   0.69869   0.00000  Uiso   1.00
loop_
_geom_bond_atom_site_label_1
_geom_bond_atom_site_label_2
_geom_bond_distance
_geom_bond_site_symmetry_2
_ccdc_geom_bond_type
C1     O25     1.287   .     A
C1     C12     1.425   .     S
C1     O27     1.293   .     A
C2     O26     1.292   .     A
C2     C11     1.424   .     S
C2     O28     1.287   .     A
C3     O31     1.284   .     A
C3     O29     1.286   .     A
C3     C5      1.404   .     S
C4     O32     1.289   .     A
C4     C6      1.405   .     S
C4     O30     1.280   .     A
C5     C122    1.327   1_455 S
C5     H133    1.087   1_455 S
C6     C63     1.327   .     S
C6     H76     1.082   .     S
C7     H19     1.078   .     S
C7     C12     1.393   .     A
C7     C357    1.366   1_545 S
C8     H20     1.083   .     S
C8     C11     1.399   .     A
C8     C184    1.373   .     S
C9     C11     1.393   .     A
C9     H21     1.078   .     S
C9     C181    1.366   .     S
C10    H22     1.082   .     S
C10    C12     1.399   .     A
C10    C356    1.373   1_545 S
C13    N35     1.422   .     S
C13    N24     1.371   .     A
C13    C1059   1.440   1_554 S
C14    N23     1.371   .     A
C14    N41     1.421   .     S
C14    C538    1.436   .     S
C15    N47     1.420   .     S
C15    N23     1.371   .     A
C15    C535    1.440   .     S
C16    N24     1.371   .     A
C16    N53     1.421   .     S
C16    C1058   1.436   1_554 S
H17    C63     1.087   .     S
H18    C122    1.082   1_455 S
N23    Zn33    2.024   .     S
N24    Zn34    2.024   .     S
O25    Zn33    2.004   .     S
O26    Zn34    2.004   .     S
O27    Zn34    2.004   .     S
O28    Zn33    2.004   .     S
O29    Zn33    1.975   .     S
O30    Zn34    1.975   .     S
O31    Zn34    1.980   .     S
O32    Zn33    1.980   .     S
N35    C37     1.446   .     S
N35    H36     1.029   .     S
C37    H38     1.108   .     S
C37    H40     1.109   .     S
C37    H39     1.111   .     S
N41    H42     1.030   .     S
N41    C43     1.445   .     S
C43    H45     1.107   .     S
C43    H44     1.108   .     S
C43    H46     1.107   .     S
N47    H48     1.029   .     S
N47    C49     1.447   .     S
C49    H52     1.110   .     S
C49    H51     1.108   .     S
C49    H572    1.106   .     S
H50    C1093   1.106   1_554 S
N53    C55     1.447   .     S
N53    H54     1.031   .     S
C55    H56     1.108   .     S
C55    H57     1.108   .     S
C55    H58     1.111   .     S
C59    O83     1.287   .     A
C59    C70     1.425   .     S
C59    O85     1.293   .     A
C60    O84     1.292   .     A
C60    C69     1.424   .     S
C60    O86     1.287   .     A
C61    O89     1.284   .     A
C61    O87     1.286   .     A
C61    C63     1.404   .     S
C62    O90     1.289   .     A
C62    C64     1.405   .     S
C62    O88     1.280   .     A
C64    C121    1.327   .     S
C64    H134    1.082   .     S
C65    H77     1.078   .     S
C65    C70     1.393   .     A
C65    C415    1.366   1_545 S
C66    H78     1.083   .     S
C66    C69     1.399   .     A
C66    C242    1.373   .     S
C67    C69     1.393   .     A
C67    H79     1.078   .     S
C67    C239    1.366   .     S
C68    H80     1.082   .     S
C68    C70     1.399   .     A
C68    C414    1.373   1_545 S
C71    N93     1.422   .     S
C71    N82     1.371   .     A
C71    C1117   1.440   1_554 S
C72    N81     1.371   .     A
C72    N99     1.421   .     S
C72    C596    1.436   .     S
C73    N105    1.420   .     S
C73    N81     1.371   .     A
C73    C593    1.440   .     S
C74    N82     1.371   .     A
C74    N111    1.421   .     S
C74    C1116   1.436   1_554 S
H75    C121    1.087   .     S
N81    Zn91    2.024   .     S
N82    Zn92    2.024   .     S
O83    Zn91    2.004   .     S
O84    Zn92    2.004   .     S
O85    Zn92    2.004   .     S
O86    Zn91    2.004   .     S
O87    Zn91    1.975   .     S
O88    Zn92    1.975   .     S
O89    Zn92    1.980   .     S
O90    Zn91    1.980   .     S
N93    C95     1.446   .     S
N93    H94     1.029   .     S
C95    H96     1.108   .     S
C95    H98     1.109   .     S
C95    H97     1.111   .     S
N99    H100    1.030   .     S
N99    C101    1.445   .     S
C101   H103    1.107   .     S
C101   H102    1.108   .     S
C101   H104    1.107   .     S
N105   H106    1.029   .     S
N105   C107    1.447   .     S
C107   H110    1.110   .     S
C107   H109    1.108   .     S
C107   H630    1.106   .     S
H108   C1151   1.106   1_554 S
N111   C113    1.447   .     S
N111   H112    1.031   .     S
C113   H114    1.108   .     S
C113   H115    1.108   .     S
C113   H116    1.111   .     S
C117   O141    1.287   .     A
C117   C128    1.425   .     S
C117   O143    1.293   .     A
C118   O142    1.292   .     A
C118   C127    1.424   .     S
C118   O144    1.287   .     A
C119   O147    1.284   .     A
C119   O145    1.286   .     A
C119   C121    1.404   .     S
C120   O148    1.289   .     A
C120   C122    1.405   .     S
C120   O146    1.280   .     A
C122   C5      1.327   1_655 S
C122   H18     1.082   1_655 S
C123   H135    1.078   .     S
C123   C128    1.393   .     A
C123   C473    1.366   1_545 S
C124   H136    1.083   .     S
C124   C127    1.399   .     A
C124   C300    1.373   .     S
C125   C127    1.393   .     A
C125   H137    1.078   .     S
C125   C297    1.366   .     S
C126   H138    1.082   .     S
C126   C128    1.399   .     A
C126   C472    1.373   1_545 S
C129   N151    1.422   .     S
C129   N140    1.371   .     A
C129   C1175   1.440   1_554 S
C130   N139    1.371   .     A
C130   N157    1.421   .     S
C130   C654    1.436   .     S
C131   N163    1.420   .     S
C131   N139    1.371   .     A
C131   C651    1.440   .     S
C132   N140    1.371   .     A
C132   N169    1.421   .     S
C132   C1174   1.436   1_554 S
H133   C5      1.087   1_655 S
N139   Zn149   2.024   .     S
N140   Zn150   2.024   .     S
O141   Zn149   2.004   .     S
O142   Zn150   2.004   .     S
O143   Zn150   2.004   .     S
O144   Zn149   2.004   .     S
O145   Zn149   1.975   .     S
O146   Zn150   1.975   .     S
O147   Zn150   1.980   .     S
O148   Zn149   1.980   .     S
N151   C153    1.446   .     S
N151   H152    1.029   .     S
C153   H154    1.108   .     S
C153   H156    1.109   .     S
C153   H155    1.111   .     S
N157   H158    1.030   .     S
N157   C159    1.445   .     S
C159   H161    1.107   .     S
C159   H160    1.108   .     S
C159   H162    1.107   .     S
N163   H164    1.029   .     S
N163   C165    1.447   .     S
C165   H168    1.110   .     S
C165   H167    1.108   .     S
C165   H688    1.106   .     S
H166   C1209   1.106   1_554 S
N169   C171    1.447   .     S
N169   H170    1.031   .     S
C171   H172    1.108   .     S
C171   H173    1.108   .     S
C171   H174    1.111   .     S
C175   O199    1.287   .     A
C175   C186    1.425   .     S
C175   O201    1.293   .     A
C176   O200    1.292   .     A
C176   C185    1.424   .     S
C176   O202    1.287   .     A
C177   O205    1.284   .     A
C177   O203    1.286   .     A
C177   C179    1.404   .     S
C178   O206    1.289   .     A
C178   C180    1.405   .     S
C178   O204    1.280   .     A
C179   C296    1.327   1_455 S
C179   H307    1.087   1_455 S
C180   C237    1.327   .     S
C180   H250    1.082   .     S
C181   H193    1.078   .     S
C181   C186    1.393   .     A
C182   H194    1.083   .     S
C182   C185    1.399   .     A
C182   C358    1.373   .     S
C183   C185    1.393   .     A
C183   H195    1.078   .     S
C183   C355    1.366   .     S
C184   H196    1.082   .     S
C184   C186    1.399   .     A
C187   N209    1.422   .     S
C187   N198    1.371   .     A
C187   C1233   1.440   1_554 S
C188   N197    1.371   .     A
C188   N215    1.421   .     S
C188   C712    1.436   .     S
C189   N221    1.420   .     S
C189   N197    1.371   .     A
C189   C709    1.440   .     S
C190   N198    1.371   .     A
C190   N227    1.421   .     S
C190   C1232   1.436   1_554 S
H191   C237    1.087   .     S
H192   C296    1.082   1_455 S
N197   Zn207   2.024   .     S
N198   Zn208   2.024   .     S
O199   Zn207   2.004   .     S
O200   Zn208   2.004   .     S
O201   Zn208   2.004   .     S
O202   Zn207   2.004   .     S
O203   Zn207   1.975   .     S
O204   Zn208   1.975   .     S
O205   Zn208   1.980   .     S
O206   Zn207   1.980   .     S
N209   C211    1.446   .     S
N209   H210    1.029   .     S
C211   H212    1.108   .     S
C211   H214    1.109   .     S
C211   H213    1.111   .     S
N215   H216    1.030   .     S
N215   C217    1.445   .     S
C217   H219    1.107   .     S
C217   H218    1.108   .     S
C217   H220    1.107   .     S
N221   H222    1.029   .     S
N221   C223    1.447   .     S
C223   H226    1.110   .     S
C223   H225    1.108   .     S
C223   H746    1.106   .     S
H224   C1267   1.106   1_554 S
N227   C229    1.447   .     S
N227   H228    1.031   .     S
C229   H230    1.108   .     S
C229   H231    1.108   .     S
C229   H232    1.111   .     S
C233   O257    1.287   .     A
C233   C244    1.425   .     S
C233   O259    1.293   .     A
C234   O258    1.292   .     A
C234   C243    1.424   .     S
C234   O260    1.287   .     A
C235   O263    1.284   .     A
C235   O261    1.286   .     A
C235   C237    1.404   .     S
C236   O264    1.289   .     A
C236   C238    1.405   .     S
C236   O262    1.280   .     A
C238   C295    1.327   .     S
C238   H308    1.082   .     S
C239   H251    1.078   .     S
C239   C244    1.393   .     A
C240   H252    1.083   .     S
C240   C243    1.399   .     A
C240   C416    1.373   .     S
C241   C243    1.393   .     A
C241   H253    1.078   .     S
C241   C413    1.366   .     S
C242   H254    1.082   .     S
C242   C244    1.399   .     A
C245   N267    1.422   .     S
C245   N256    1.371   .     A
C245   C1291   1.440   1_554 S
C246   N255    1.371   .     A
C246   N273    1.421   .     S
C246   C770    1.436   .     S
C247   N279    1.420   .     S
C247   N255    1.371   .     A
C247   C767    1.440   .     S
C248   N256    1.371   .     A
C248   N285    1.421   .     S
C248   C1290   1.436   1_554 S
H249   C295    1.087   .     S
N255   Zn265   2.024   .     S
N256   Zn266   2.024   .     S
O257   Zn265   2.004   .     S
O258   Zn266   2.004   .     S
O259   Zn266   2.004   .     S
O260   Zn265   2.004   .     S
O261   Zn265   1.975   .     S
O262   Zn266   1.975   .     S
O263   Zn266   1.980   .     S
O264   Zn265   1.980   .     S
N267   C269    1.446   .     S
N267   H268    1.029   .     S
C269   H270    1.108   .     S
C269   H272    1.109   .     S
C269   H271    1.111   .     S
N273   H274    1.030   .     S
N273   C275    1.445   .     S
C275   H277    1.107   .     S
C275   H276    1.108   .     S
C275   H278    1.107   .     S
N279   H280    1.029   .     S
N279   C281    1.447   .     S
C281   H284    1.110   .     S
C281   H283    1.108   .     S
C281   H804    1.106   .     S
H282   C1325   1.106   1_554 S
N285   C287    1.447   .     S
N285   H286    1.031   .     S
C287   H288    1.108   .     S
C287   H289    1.108   .     S
C287   H290    1.111   .     S
C291   O315    1.287   .     A
C291   C302    1.425   .     S
C291   O317    1.293   .     A
C292   O316    1.292   .     A
C292   C301    1.424   .     S
C292   O318    1.287   .     A
C293   O321    1.284   .     A
C293   O319    1.286   .     A
C293   C295    1.404   .     S
C294   O322    1.289   .     A
C294   C296    1.405   .     S
C294   O320    1.280   .     A
C296   C179    1.327   1_655 S
C296   H192    1.082   1_655 S
C297   H309    1.078   .     S
C297   C302    1.393   .     A
C298   H310    1.083   .     S
C298   C301    1.399   .     A
C298   C474    1.373   .     S
C299   C301    1.393   .     A
C299   H311    1.078   .     S
C299   C471    1.366   .     S
C300   H312    1.082   .     S
C300   C302    1.399   .     A
C303   N325    1.422   .     S
C303   N314    1.371   .     A
C303   C1349   1.440   1_554 S
C304   N313    1.371   .     A
C304   N331    1.421   .     S
C304   C828    1.436   .     S
C305   N337    1.420   .     S
C305   N313    1.371   .     A
C305   C825    1.440   .     S
C306   N314    1.371   .     A
C306   N343    1.421   .     S
C306   C1348   1.436   1_554 S
H307   C179    1.087   1_655 S
N313   Zn323   2.024   .     S
N314   Zn324   2.024   .     S
O315   Zn323   2.004   .     S
O316   Zn324   2.004   .     S
O317   Zn324   2.004   .     S
O318   Zn323   2.004   .     S
O319   Zn323   1.975   .     S
O320   Zn324   1.975   .     S
O321   Zn324   1.980   .     S
O322   Zn323   1.980   .     S
N325   C327    1.446   .     S
N325   H326    1.029   .     S
C327   H328    1.108   .     S
C327   H330    1.109   .     S
C327   H329    1.111   .     S
N331   H332    1.030   .     S
N331   C333    1.445   .     S
C333   H335    1.107   .     S
C333   H334    1.108   .     S
C333   H336    1.107   .     S
N337   H338    1.029   .     S
N337   C339    1.447   .     S
C339   H342    1.110   .     S
C339   H341    1.108   .     S
C339   H862    1.106   .     S
H340   C1383   1.106   1_554 S
N343   C345    1.447   .     S
N343   H344    1.031   .     S
C345   H346    1.108   .     S
C345   H347    1.108   .     S
C345   H348    1.111   .     S
C349   O373    1.287   .     A
C349   C360    1.425   .     S
C349   O375    1.293   .     A
C350   O374    1.292   .     A
C350   C359    1.424   .     S
C350   O376    1.287   .     A
C351   O379    1.284   .     A
C351   O377    1.286   .     A
C351   C353    1.404   .     S
C352   O380    1.289   .     A
C352   C354    1.405   .     S
C352   O378    1.280   .     A
C353   C470    1.327   1_455 S
C353   H481    1.087   1_455 S
C354   C411    1.327   .     S
C354   H424    1.082   .     S
C355   H367    1.078   .     S
C355   C360    1.393   .     A
C356   H368    1.083   .     S
C356   C359    1.399   .     A
C356   C10     1.373   1_565 S
C357   C359    1.393   .     A
C357   H369    1.078   .     S
C357   C7      1.366   1_565 S
C358   H370    1.082   .     S
C358   C360    1.399   .     A
C361   N383    1.422   .     S
C361   N372    1.371   .     A
C361   C1407   1.440   1_554 S
C362   N371    1.371   .     A
C362   N389    1.421   .     S
C362   C886    1.436   .     S
C363   N395    1.420   .     S
C363   N371    1.371   .     A
C363   C883    1.440   .     S
C364   N372    1.371   .     A
C364   N401    1.421   .     S
C364   C1406   1.436   1_554 S
H365   C411    1.087   .     S
H366   C470    1.082   1_455 S
N371   Zn381   2.024   .     S
N372   Zn382   2.024   .     S
O373   Zn381   2.004   .     S
O374   Zn382   2.004   .     S
O375   Zn382   2.004   .     S
O376   Zn381   2.004   .     S
O377   Zn381   1.975   .     S
O378   Zn382   1.975   .     S
O379   Zn382   1.980   .     S
O380   Zn381   1.980   .     S
N383   C385    1.446   .     S
N383   H384    1.029   .     S
C385   H386    1.108   .     S
C385   H388    1.109   .     S
C385   H387    1.111   .     S
N389   H390    1.030   .     S
N389   C391    1.445   .     S
C391   H393    1.107   .     S
C391   H392    1.108   .     S
C391   H394    1.107   .     S
N395   H396    1.029   .     S
N395   C397    1.447   .     S
C397   H400    1.110   .     S
C397   H399    1.108   .     S
C397   H920    1.106   .     S
H398   C1441   1.106   1_554 S
N401   C403    1.447   .     S
N401   H402    1.031   .     S
C403   H404    1.108   .     S
C403   H405    1.108   .     S
C403   H406    1.111   .     S
C407   O431    1.287   .     A
C407   C418    1.425   .     S
C407   O433    1.293   .     A
C408   O432    1.292   .     A
C408   C417    1.424   .     S
C408   O434    1.287   .     A
C409   O437    1.284   .     A
C409   O435    1.286   .     A
C409   C411    1.404   .     S
C410   O438    1.289   .     A
C410   C412    1.405   .     S
C410   O436    1.280   .     A
C412   C469    1.327   .     S
C412   H482    1.082   .     S
C413   H425    1.078   .     S
C413   C418    1.393   .     A
C414   H426    1.083   .     S
C414   C417    1.399   .     A
C414   C68     1.373   1_565 S
C415   C417    1.393   .     A
C415   H427    1.078   .     S
C415   C65     1.366   1_565 S
C416   H428    1.082   .     S
C416   C418    1.399   .     A
C419   N441    1.422   .     S
C419   N430    1.371   .     A
C419   C1465   1.440   1_554 S
C420   N429    1.371   .     A
C420   N447    1.421   .     S
C420   C944    1.436   .     S
C421   N453    1.420   .     S
C421   N429    1.371   .     A
C421   C941    1.440   .     S
C422   N430    1.371   .     A
C422   N459    1.421   .     S
C422   C1464   1.436   1_554 S
H423   C469    1.087   .     S
N429   Zn439   2.024   .     S
N430   Zn440   2.024   .     S
O431   Zn439   2.004   .     S
O432   Zn440   2.004   .     S
O433   Zn440   2.004   .     S
O434   Zn439   2.004   .     S
O435   Zn439   1.975   .     S
O436   Zn440   1.975   .     S
O437   Zn440   1.980   .     S
O438   Zn439   1.980   .     S
N441   C443    1.446   .     S
N441   H442    1.029   .     S
C443   H444    1.108   .     S
C443   H446    1.109   .     S
C443   H445    1.111   .     S
N447   H448    1.030   .     S
N447   C449    1.445   .     S
C449   H451    1.107   .     S
C449   H450    1.108   .     S
C449   H452    1.107   .     S
N453   H454    1.029   .     S
N453   C455    1.447   .     S
C455   H458    1.110   .     S
C455   H457    1.108   .     S
C455   H978    1.106   .     S
H456   C1499   1.106   1_554 S
N459   C461    1.447   .     S
N459   H460    1.031   .     S
C461   H462    1.108   .     S
C461   H463    1.108   .     S
C461   H464    1.111   .     S
C465   O489    1.287   .     A
C465   C476    1.425   .     S
C465   O491    1.293   .     A
C466   O490    1.292   .     A
C466   C475    1.424   .     S
C466   O492    1.287   .     A
C467   O495    1.284   .     A
C467   O493    1.286   .     A
C467   C469    1.404   .     S
C468   O496    1.289   .     A
C468   C470    1.405   .     S
C468   O494    1.280   .     A
C470   C353    1.327   1_655 S
C470   H366    1.082   1_655 S
C471   H483    1.078   .     S
C471   C476    1.393   .     A
C472   H484    1.083   .     S
C472   C475    1.399   .     A
C472   C126    1.373   1_565 S
C473   C475    1.393   .     A
C473   H485    1.078   .     S
C473   C123    1.366   1_565 S
C474   H486    1.082   .     S
C474   C476    1.399   .     A
C477   N499    1.422   .     S
C477   N488    1.371   .     A
C477   C1523   1.440   1_554 S
C478   N487    1.371   .     A
C478   N505    1.421   .     S
C478   C1002   1.436   .     S
C479   N511    1.420   .     S
C479   N487    1.371   .     A
C479   C999    1.440   .     S
C480   N488    1.371   .     A
C480   N517    1.421   .     S
C480   C1522   1.436   1_554 S
H481   C353    1.087   1_655 S
N487   Zn497   2.024   .     S
N488   Zn498   2.024   .     S
O489   Zn497   2.004   .     S
O490   Zn498   2.004   .     S
O491   Zn498   2.004   .     S
O492   Zn497   2.004   .     S
O493   Zn497   1.975   .     S
O494   Zn498   1.975   .     S
O495   Zn498   1.980   .     S
O496   Zn497   1.980   .     S
N499   C501    1.446   .     S
N499   H500    1.029   .     S
C501   H502    1.108   .     S
C501   H504    1.109   .     S
C501   H503    1.111   .     S
N505   H506    1.030   .     S
N505   C507    1.445   .     S
C507   H509    1.107   .     S
C507   H508    1.108   .     S
C507   H510    1.107   .     S
N511   H512    1.029   .     S
N511   C513    1.447   .     S
C513   H516    1.110   .     S
C513   H515    1.108   .     S
C513   H1036   1.106   .     S
H514   C1557   1.106   1_554 S
N517   C519    1.447   .     S
N517   H518    1.031   .     S
C519   H520    1.108   .     S
C519   H521    1.108   .     S
C519   H522    1.111   .     S
C523   O547    1.287   .     A
C523   C534    1.425   .     S
C523   O549    1.293   .     A
C524   O548    1.292   .     A
C524   C533    1.424   .     S
C524   O550    1.287   .     A
C525   O553    1.284   .     A
C525   O551    1.286   .     A
C525   C527    1.404   .     S
C526   O554    1.289   .     A
C526   C528    1.405   .     S
C526   O552    1.280   .     A
C527   C644    1.327   1_455 S
C527   H655    1.087   1_455 S
C528   C585    1.327   .     S
C528   H598    1.082   .     S
C529   H541    1.078   .     S
C529   C534    1.393   .     A
C529   C879    1.366   1_545 S
C530   H542    1.083   .     S
C530   C533    1.399   .     A
C530   C706    1.373   .     S
C531   C533    1.393   .     A
C531   H543    1.078   .     S
C531   C703    1.366   .     S
C532   H544    1.082   .     S
C532   C534    1.399   .     A
C532   C878    1.373   1_545 S
C535   N557    1.422   .     S
C535   N546    1.371   .     A
C536   N545    1.371   .     A
C536   N563    1.421   .     S
C536   C1060   1.436   .     S
C537   N569    1.420   .     S
C537   N545    1.371   .     A
C537   C1057   1.440   .     S
C538   N546    1.371   .     A
C538   N575    1.421   .     S
H539   C585    1.087   .     S
H540   C644    1.082   1_455 S
N545   Zn555   2.024   .     S
N546   Zn556   2.024   .     S
O547   Zn555   2.004   .     S
O548   Zn556   2.004   .     S
O549   Zn556   2.004   .     S
O550   Zn555   2.004   .     S
O551   Zn555   1.975   .     S
O552   Zn556   1.975   .     S
O553   Zn556   1.980   .     S
O554   Zn555   1.980   .     S
N557   C559    1.446   .     S
N557   H558    1.029   .     S
C559   H560    1.108   .     S
C559   H562    1.109   .     S
C559   H561    1.111   .     S
N563   H564    1.030   .     S
N563   C565    1.445   .     S
C565   H567    1.107   .     S
C565   H566    1.108   .     S
C565   H568    1.107   .     S
N569   H570    1.029   .     S
N569   C571    1.447   .     S
C571   H574    1.110   .     S
C571   H573    1.108   .     S
C571   H1094   1.106   .     S
N575   C577    1.447   .     S
N575   H576    1.031   .     S
C577   H578    1.108   .     S
C577   H579    1.108   .     S
C577   H580    1.111   .     S
C581   O605    1.287   .     A
C581   C592    1.425   .     S
C581   O607    1.293   .     A
C582   O606    1.292   .     A
C582   C591    1.424   .     S
C582   O608    1.287   .     A
C583   O611    1.284   .     A
C583   O609    1.286   .     A
C583   C585    1.404   .     S
C584   O612    1.289   .     A
C584   C586    1.405   .     S
C584   O610    1.280   .     A
C586   C643    1.327   .     S
C586   H656    1.082   .     S
C587   H599    1.078   .     S
C587   C592    1.393   .     A
C587   C937    1.366   1_545 S
C588   H600    1.083   .     S
C588   C591    1.399   .     A
C588   C764    1.373   .     S
C589   C591    1.393   .     A
C589   H601    1.078   .     S
C589   C761    1.366   .     S
C590   H602    1.082   .     S
C590   C592    1.399   .     A
C590   C936    1.373   1_545 S
C593   N615    1.422   .     S
C593   N604    1.371   .     A
C594   N603    1.371   .     A
C594   N621    1.421   .     S
C594   C1118   1.436   .     S
C595   N627    1.420   .     S
C595   N603    1.371   .     A
C595   C1115   1.440   .     S
C596   N604    1.371   .     A
C596   N633    1.421   .     S
H597   C643    1.087   .     S
N603   Zn613   2.024   .     S
N604   Zn614   2.024   .     S
O605   Zn613   2.004   .     S
O606   Zn614   2.004   .     S
O607   Zn614   2.004   .     S
O608   Zn613   2.004   .     S
O609   Zn613   1.975   .     S
O610   Zn614   1.975   .     S
O611   Zn614   1.980   .     S
O612   Zn613   1.980   .     S
N615   C617    1.446   .     S
N615   H616    1.029   .     S
C617   H618    1.108   .     S
C617   H620    1.109   .     S
C617   H619    1.111   .     S
N621   H622    1.030   .     S
N621   C623    1.445   .     S
C623   H625    1.107   .     S
C623   H624    1.108   .     S
C623   H626    1.107   .     S
N627   H628    1.029   .     S
N627   C629    1.447   .     S
C629   H632    1.110   .     S
C629   H631    1.108   .     S
C629   H1152   1.106   .     S
N633   C635    1.447   .     S
N633   H634    1.031   .     S
C635   H636    1.108   .     S
C635   H637    1.108   .     S
C635   H638    1.111   .     S
C639   O663    1.287   .     A
C639   C650    1.425   .     S
C639   O665    1.293   .     A
C640   O664    1.292   .     A
C640   C649    1.424   .     S
C640   O666    1.287   .     A
C641   O669    1.284   .     A
C641   O667    1.286   .     A
C641   C643    1.404   .     S
C642   O670    1.289   .     A
C642   C644    1.405   .     S
C642   O668    1.280   .     A
C644   C527    1.327   1_655 S
C644   H540    1.082   1_655 S
C645   H657    1.078   .     S
C645   C650    1.393   .     A
C645   C995    1.366   1_545 S
C646   H658    1.083   .     S
C646   C649    1.399   .     A
C646   C822    1.373   .     S
C647   C649    1.393   .     A
C647   H659    1.078   .     S
C647   C819    1.366   .     S
C648   H660    1.082   .     S
C648   C650    1.399   .     A
C648   C994    1.373   1_545 S
C651   N673    1.422   .     S
C651   N662    1.371   .     A
C652   N661    1.371   .     A
C652   N679    1.421   .     S
C652   C1176   1.436   .     S
C653   N685    1.420   .     S
C653   N661    1.371   .     A
C653   C1173   1.440   .     S
C654   N662    1.371   .     A
C654   N691    1.421   .     S
H655   C527    1.087   1_655 S
N661   Zn671   2.024   .     S
N662   Zn672   2.024   .     S
O663   Zn671   2.004   .     S
O664   Zn672   2.004   .     S
O665   Zn672   2.004   .     S
O666   Zn671   2.004   .     S
O667   Zn671   1.975   .     S
O668   Zn672   1.975   .     S
O669   Zn672   1.980   .     S
O670   Zn671   1.980   .     S
N673   C675    1.446   .     S
N673   H674    1.029   .     S
C675   H676    1.108   .     S
C675   H678    1.109   .     S
C675   H677    1.111   .     S
N679   H680    1.030   .     S
N679   C681    1.445   .     S
C681   H683    1.107   .     S
C681   H682    1.108   .     S
C681   H684    1.107   .     S
N685   H686    1.029   .     S
N685   C687    1.447   .     S
C687   H690    1.110   .     S
C687   H689    1.108   .     S
C687   H1210   1.106   .     S
N691   C693    1.447   .     S
N691   H692    1.031   .     S
C693   H694    1.108   .     S
C693   H695    1.108   .     S
C693   H696    1.111   .     S
C697   O721    1.287   .     A
C697   C708    1.425   .     S
C697   O723    1.293   .     A
C698   O722    1.292   .     A
C698   C707    1.424   .     S
C698   O724    1.287   .     A
C699   O727    1.284   .     A
C699   O725    1.286   .     A
C699   C701    1.404   .     S
C700   O728    1.289   .     A
C700   C702    1.405   .     S
C700   O726    1.280   .     A
C701   C818    1.327   1_455 S
C701   H829    1.087   1_455 S
C702   C759    1.327   .     S
C702   H772    1.082   .     S
C703   H715    1.078   .     S
C703   C708    1.393   .     A
C704   H716    1.083   .     S
C704   C707    1.399   .     A
C704   C880    1.373   .     S
C705   C707    1.393   .     A
C705   H717    1.078   .     S
C705   C877    1.366   .     S
C706   H718    1.082   .     S
C706   C708    1.399   .     A
C709   N731    1.422   .     S
C709   N720    1.371   .     A
C710   N719    1.371   .     A
C710   N737    1.421   .     S
C710   C1234   1.436   .     S
C711   N743    1.420   .     S
C711   N719    1.371   .     A
C711   C1231   1.440   .     S
C712   N720    1.371   .     A
C712   N749    1.421   .     S
H713   C759    1.087   .     S
H714   C818    1.082   1_455 S
N719   Zn729   2.024   .     S
N720   Zn730   2.024   .     S
O721   Zn729   2.004   .     S
O722   Zn730   2.004   .     S
O723   Zn730   2.004   .     S
O724   Zn729   2.004   .     S
O725   Zn729   1.975   .     S
O726   Zn730   1.975   .     S
O727   Zn730   1.980   .     S
O728   Zn729   1.980   .     S
N731   C733    1.446   .     S
N731   H732    1.029   .     S
C733   H734    1.108   .     S
C733   H736    1.109   .     S
C733   H735    1.111   .     S
N737   H738    1.030   .     S
N737   C739    1.445   .     S
C739   H741    1.107   .     S
C739   H740    1.108   .     S
C739   H742    1.107   .     S
N743   H744    1.029   .     S
N743   C745    1.447   .     S
C745   H748    1.110   .     S
C745   H747    1.108   .     S
C745   H1268   1.106   .     S
N749   C751    1.447   .     S
N749   H750    1.031   .     S
C751   H752    1.108   .     S
C751   H753    1.108   .     S
C751   H754    1.111   .     S
C755   O779    1.287   .     A
C755   C766    1.425   .     S
C755   O781    1.293   .     A
C756   O780    1.292   .     A
C756   C765    1.424   .     S
C756   O782    1.287   .     A
C757   O785    1.284   .     A
C757   O783    1.286   .     A
C757   C759    1.404   .     S
C758   O786    1.289   .     A
C758   C760    1.405   .     S
C758   O784    1.280   .     A
C760   C817    1.327   .     S
C760   H830    1.082   .     S
C761   H773    1.078   .     S
C761   C766    1.393   .     A
C762   H774    1.083   .     S
C762   C765    1.399   .     A
C762   C938    1.373   .     S
C763   C765    1.393   .     A
C763   H775    1.078   .     S
C763   C935    1.366   .     S
C764   H776    1.082   .     S
C764   C766    1.399   .     A
C767   N789    1.422   .     S
C767   N778    1.371   .     A
C768   N777    1.371   .     A
C768   N795    1.421   .     S
C768   C1292   1.436   .     S
C769   N801    1.420   .     S
C769   N777    1.371   .     A
C769   C1289   1.440   .     S
C770   N778    1.371   .     A
C770   N807    1.421   .     S
H771   C817    1.087   .     S
N777   Zn787   2.024   .     S
N778   Zn788   2.024   .     S
O779   Zn787   2.004   .     S
O780   Zn788   2.004   .     S
O781   Zn788   2.004   .     S
O782   Zn787   2.004   .     S
O783   Zn787   1.975   .     S
O784   Zn788   1.975   .     S
O785   Zn788   1.980   .     S
O786   Zn787   1.980   .     S
N789   C791    1.446   .     S
N789   H790    1.029   .     S
C791   H792    1.108   .     S
C791   H794    1.109   .     S
C791   H793    1.111   .     S
N795   H796    1.030   .     S
N795   C797    1.445   .     S
C797   H799    1.107   .     S
C797   H798    1.108   .     S
C797   H800    1.107   .     S
N801   H802    1.029   .     S
N801   C803    1.447   .     S
C803   H806    1.110   .     S
C803   H805    1.108   .     S
C803   H1326   1.106   .     S
N807   C809    1.447   .     S
N807   H808    1.031   .     S
C809   H810    1.108   .     S
C809   H811    1.108   .     S
C809   H812    1.111   .     S
C813   O837    1.287   .     A
C813   C824    1.425   .     S
C813   O839    1.293   .     A
C814   O838    1.292   .     A
C814   C823    1.424   .     S
C814   O840    1.287   .     A
C815   O843    1.284   .     A
C815   O841    1.286   .     A
C815   C817    1.404   .     S
C816   O844    1.289   .     A
C816   C818    1.405   .     S
C816   O842    1.280   .     A
C818   C701    1.327   1_655 S
C818   H714    1.082   1_655 S
C819   H831    1.078   .     S
C819   C824    1.393   .     A
C820   H832    1.083   .     S
C820   C823    1.399   .     A
C820   C996    1.373   .     S
C821   C823    1.393   .     A
C821   H833    1.078   .     S
C821   C993    1.366   .     S
C822   H834    1.082   .     S
C822   C824    1.399   .     A
C825   N847    1.422   .     S
C825   N836    1.371   .     A
C826   N835    1.371   .     A
C826   N853    1.421   .     S
C826   C1350   1.436   .     S
C827   N859    1.420   .     S
C827   N835    1.371   .     A
C827   C1347   1.440   .     S
C828   N836    1.371   .     A
C828   N865    1.421   .     S
H829   C701    1.087   1_655 S
N835   Zn845   2.024   .     S
N836   Zn846   2.024   .     S
O837   Zn845   2.004   .     S
O838   Zn846   2.004   .     S
O839   Zn846   2.004   .     S
O840   Zn845   2.004   .     S
O841   Zn845   1.975   .     S
O842   Zn846   1.975   .     S
O843   Zn846   1.980   .     S
O844   Zn845   1.980   .     S
N847   C849    1.446   .     S
N847   H848    1.029   .     S
C849   H850    1.108   .     S
C849   H852    1.109   .     S
C849   H851    1.111   .     S
N853   H854    1.030   .     S
N853   C855    1.445   .     S
C855   H857    1.107   .     S
C855   H856    1.108   .     S
C855   H858    1.107   .     S
N859   H860    1.029   .     S
N859   C861    1.447   .     S
C861   H864    1.110   .     S
C861   H863    1.108   .     S
C861   H1384   1.106   .     S
N865   C867    1.447   .     S
N865   H866    1.031   .     S
C867   H868    1.108   .     S
C867   H869    1.108   .     S
C867   H870    1.111   .     S
C871   O895    1.287   .     A
C871   C882    1.425   .     S
C871   O897    1.293   .     A
C872   O896    1.292   .     A
C872   C881    1.424   .     S
C872   O898    1.287   .     A
C873   O901    1.284   .     A
C873   O899    1.286   .     A
C873   C875    1.404   .     S
C874   O902    1.289   .     A
C874   C876    1.405   .     S
C874   O900    1.280   .     A
C875   C992    1.327   1_455 S
C875   H1003   1.087   1_455 S
C876   C933    1.327   .     S
C876   H946    1.082   .     S
C877   H889    1.078   .     S
C877   C882    1.393   .     A
C878   H890    1.083   .     S
C878   C881    1.399   .     A
C878   C532    1.373   1_565 S
C879   C881    1.393   .     A
C879   H891    1.078   .     S
C879   C529    1.366   1_565 S
C880   H892    1.082   .     S
C880   C882    1.399   .     A
C883   N905    1.422   .     S
C883   N894    1.371   .     A
C884   N893    1.371   .     A
C884   N911    1.421   .     S
C884   C1408   1.436   .     S
C885   N917    1.420   .     S
C885   N893    1.371   .     A
C885   C1405   1.440   .     S
C886   N894    1.371   .     A
C886   N923    1.421   .     S
H887   C933    1.087   .     S
H888   C992    1.082   1_455 S
N893   Zn903   2.024   .     S
N894   Zn904   2.024   .     S
O895   Zn903   2.004   .     S
O896   Zn904   2.004   .     S
O897   Zn904   2.004   .     S
O898   Zn903   2.004   .     S
O899   Zn903   1.975   .     S
O900   Zn904   1.975   .     S
O901   Zn904   1.980   .     S
O902   Zn903   1.980   .     S
N905   C907    1.446   .     S
N905   H906    1.029   .     S
C907   H908    1.108   .     S
C907   H910    1.109   .     S
C907   H909    1.111   .     S
N911   H912    1.030   .     S
N911   C913    1.445   .     S
C913   H915    1.107   .     S
C913   H914    1.108   .     S
C913   H916    1.107   .     S
N917   H918    1.029   .     S
N917   C919    1.447   .     S
C919   H922    1.110   .     S
C919   H921    1.108   .     S
C919   H1442   1.106   .     S
N923   C925    1.447   .     S
N923   H924    1.031   .     S
C925   H926    1.108   .     S
C925   H927    1.108   .     S
C925   H928    1.111   .     S
C929   O953    1.287   .     A
C929   C940    1.425   .     S
C929   O955    1.293   .     A
C930   O954    1.292   .     A
C930   C939    1.424   .     S
C930   O956    1.287   .     A
C931   O959    1.284   .     A
C931   O957    1.286   .     A
C931   C933    1.404   .     S
C932   O960    1.289   .     A
C932   C934    1.405   .     S
C932   O958    1.280   .     A
C934   C991    1.327   .     S
C934   H1004   1.082   .     S
C935   H947    1.078   .     S
C935   C940    1.393   .     A
C936   H948    1.083   .     S
C936   C939    1.399   .     A
C936   C590    1.373   1_565 S
C937   C939    1.393   .     A
C937   H949    1.078   .     S
C937   C587    1.366   1_565 S
C938   H950    1.082   .     S
C938   C940    1.399   .     A
C941   N963    1.422   .     S
C941   N952    1.371   .     A
C942   N951    1.371   .     A
C942   N969    1.421   .     S
C942   C1466   1.436   .     S
C943   N975    1.420   .     S
C943   N951    1.371   .     A
C943   C1463   1.440   .     S
C944   N952    1.371   .     A
C944   N981    1.421   .     S
H945   C991    1.087   .     S
N951   Zn961   2.024   .     S
N952   Zn962   2.024   .     S
O953   Zn961   2.004   .     S
O954   Zn962   2.004   .     S
O955   Zn962   2.004   .     S
O956   Zn961   2.004   .     S
O957   Zn961   1.975   .     S
O958   Zn962   1.975   .     S
O959   Zn962   1.980   .     S
O960   Zn961   1.980   .     S
N963   C965    1.446   .     S
N963   H964    1.029   .     S
C965   H966    1.108   .     S
C965   H968    1.109   .     S
C965   H967    1.111   .     S
N969   H970    1.030   .     S
N969   C971    1.445   .     S
C971   H973    1.107   .     S
C971   H972    1.108   .     S
C971   H974    1.107   .     S
N975   H976    1.029   .     S
N975   C977    1.447   .     S
C977   H980    1.110   .     S
C977   H979    1.108   .     S
C977   H1500   1.106   .     S
N981   C983    1.447   .     S
N981   H982    1.031   .     S
C983   H984    1.108   .     S
C983   H985    1.108   .     S
C983   H986    1.111   .     S
C987   O1011   1.287   .     A
C987   C998    1.425   .     S
C987   O1013   1.293   .     A
C988   O1012   1.292   .     A
C988   C997    1.424   .     S
C988   O1014   1.287   .     A
C989   O1017   1.284   .     A
C989   O1015   1.286   .     A
C989   C991    1.404   .     S
C990   O1018   1.289   .     A
C990   C992    1.405   .     S
C990   O1016   1.280   .     A
C992   C875    1.327   1_655 S
C992   H888    1.082   1_655 S
C993   H1005   1.078   .     S
C993   C998    1.393   .     A
C994   H1006   1.083   .     S
C994   C997    1.399   .     A
C994   C648    1.373   1_565 S
C995   C997    1.393   .     A
C995   H1007   1.078   .     S
C995   C645    1.366   1_565 S
C996   H1008   1.082   .     S
C996   C998    1.399   .     A
C999   N1021   1.422   .     S
C999   N1010   1.371   .     A
C1000  N1009   1.371   .     A
C1000  N1027   1.421   .     S
C1000  C1524   1.436   .     S
C1001  N1033   1.420   .     S
C1001  N1009   1.371   .     A
C1001  C1521   1.440   .     S
C1002  N1010   1.371   .     A
C1002  N1039   1.421   .     S
H1003  C875    1.087   1_655 S
N1009  Zn1019  2.024   .     S
N1010  Zn1020  2.024   .     S
O1011  Zn1019  2.004   .     S
O1012  Zn1020  2.004   .     S
O1013  Zn1020  2.004   .     S
O1014  Zn1019  2.004   .     S
O1015  Zn1019  1.975   .     S
O1016  Zn1020  1.975   .     S
O1017  Zn1020  1.980   .     S
O1018  Zn1019  1.980   .     S
N1021  C1023   1.446   .     S
N1021  H1022   1.029   .     S
C1023  H1024   1.108   .     S
C1023  H1026   1.109   .     S
C1023  H1025   1.111   .     S
N1027  H1028   1.030   .     S
N1027  C1029   1.445   .     S
C1029  H1031   1.107   .     S
C1029  H1030   1.108   .     S
C1029  H1032   1.107   .     S
N1033  H1034   1.029   .     S
N1033  C1035   1.447   .     S
C1035  H1038   1.110   .     S
C1035  H1037   1.108   .     S
C1035  H1558   1.106   .     S
N1039  C1041   1.447   .     S
N1039  H1040   1.031   .     S
C1041  H1042   1.108   .     S
C1041  H1043   1.108   .     S
C1041  H1044   1.111   .     S
C1045  O1069   1.287   .     A
C1045  C1056   1.425   .     S
C1045  O1071   1.293   .     A
C1046  O1070   1.292   .     A
C1046  C1055   1.424   .     S
C1046  O1072   1.287   .     A
C1047  O1075   1.284   .     A
C1047  O1073   1.286   .     A
C1047  C1049   1.404   .     S
C1048  O1076   1.289   .     A
C1048  C1050   1.405   .     S
C1048  O1074   1.280   .     A
C1049  C1166   1.327   1_455 S
C1049  H1177   1.087   1_455 S
C1050  C1107   1.327   .     S
C1050  H1120   1.082   .     S
C1051  H1063   1.078   .     S
C1051  C1056   1.393   .     A
C1051  C1401   1.366   1_545 S
C1052  H1064   1.083   .     S
C1052  C1055   1.399   .     A
C1052  C1228   1.373   .     S
C1053  C1055   1.393   .     A
C1053  H1065   1.078   .     S
C1053  C1225   1.366   .     S
C1054  H1066   1.082   .     S
C1054  C1056   1.399   .     A
C1054  C1400   1.373   1_545 S
C1057  N1079   1.422   .     S
C1057  N1068   1.371   .     A
C1058  N1067   1.371   .     A
C1058  N1085   1.421   .     S
C1058  C16     1.436   1_556 S
C1059  N1091   1.420   .     S
C1059  N1067   1.371   .     A
C1059  C13     1.440   1_556 S
C1060  N1068   1.371   .     A
C1060  N1097   1.421   .     S
H1061  C1107   1.087   .     S
H1062  C1166   1.082   1_455 S
N1067  Zn1077  2.024   .     S
N1068  Zn1078  2.024   .     S
O1069  Zn1077  2.004   .     S
O1070  Zn1078  2.004   .     S
O1071  Zn1078  2.004   .     S
O1072  Zn1077  2.004   .     S
O1073  Zn1077  1.975   .     S
O1074  Zn1078  1.975   .     S
O1075  Zn1078  1.980   .     S
O1076  Zn1077  1.980   .     S
N1079  C1081   1.446   .     S
N1079  H1080   1.029   .     S
C1081  H1082   1.108   .     S
C1081  H1084   1.109   .     S
C1081  H1083   1.111   .     S
N1085  H1086   1.030   .     S
N1085  C1087   1.445   .     S
C1087  H1089   1.107   .     S
C1087  H1088   1.108   .     S
C1087  H1090   1.107   .     S
N1091  H1092   1.029   .     S
N1091  C1093   1.447   .     S
C1093  H1096   1.110   .     S
C1093  H1095   1.108   .     S
C1093  H50     1.106   1_556 S
N1097  C1099   1.447   .     S
N1097  H1098   1.031   .     S
C1099  H1100   1.108   .     S
C1099  H1101   1.108   .     S
C1099  H1102   1.111   .     S
C1103  O1127   1.287   .     A
C1103  C1114   1.425   .     S
C1103  O1129   1.293   .     A
C1104  O1128   1.292   .     A
C1104  C1113   1.424   .     S
C1104  O1130   1.287   .     A
C1105  O1133   1.284   .     A
C1105  O1131   1.286   .     A
C1105  C1107   1.404   .     S
C1106  O1134   1.289   .     A
C1106  C1108   1.405   .     S
C1106  O1132   1.280   .     A
C1108  C1165   1.327   .     S
C1108  H1178   1.082   .     S
C1109  H1121   1.078   .     S
C1109  C1114   1.393   .     A
C1109  C1459   1.366   1_545 S
C1110  H1122   1.083   .     S
C1110  C1113   1.399   .     A
C1110  C1286   1.373   .     S
C1111  C1113   1.393   .     A
C1111  H1123   1.078   .     S
C1111  C1283   1.366   .     S
C1112  H1124   1.082   .     S
C1112  C1114   1.399   .     A
C1112  C1458   1.373   1_545 S
C1115  N1137   1.422   .     S
C1115  N1126   1.371   .     A
C1116  N1125   1.371   .     A
C1116  N1143   1.421   .     S
C1116  C74     1.436   1_556 S
C1117  N1149   1.420   .     S
C1117  N1125   1.371   .     A
C1117  C71     1.440   1_556 S
C1118  N1126   1.371   .     A
C1118  N1155   1.421   .     S
H1119  C1165   1.087   .     S
N1125  Zn1135  2.024   .     S
N1126  Zn1136  2.024   .     S
O1127  Zn1135  2.004   .     S
O1128  Zn1136  2.004   .     S
O1129  Zn1136  2.004   .     S
O1130  Zn1135  2.004   .     S
O1131  Zn1135  1.975   .     S
O1132  Zn1136  1.975   .     S
O1133  Zn1136  1.980   .     S
O1134  Zn1135  1.980   .     S
N1137  C1139   1.446   .     S
N1137  H1138   1.029   .     S
C1139  H1140   1.108   .     S
C1139  H1142   1.109   .     S
C1139  H1141   1.111   .     S
N1143  H1144   1.030   .     S
N1143  C1145   1.445   .     S
C1145  H1147   1.107   .     S
C1145  H1146   1.108   .     S
C1145  H1148   1.107   .     S
N1149  H1150   1.029   .     S
N1149  C1151   1.447   .     S
C1151  H1154   1.110   .     S
C1151  H1153   1.108   .     S
C1151  H108    1.106   1_556 S
N1155  C1157   1.447   .     S
N1155  H1156   1.031   .     S
C1157  H1158   1.108   .     S
C1157  H1159   1.108   .     S
C1157  H1160   1.111   .     S
C1161  O1185   1.287   .     A
C1161  C1172   1.425   .     S
C1161  O1187   1.293   .     A
C1162  O1186   1.292   .     A
C1162  C1171   1.424   .     S
C1162  O1188   1.287   .     A
C1163  O1191   1.284   .     A
C1163  O1189   1.286   .     A
C1163  C1165   1.404   .     S
C1164  O1192   1.289   .     A
C1164  C1166   1.405   .     S
C1164  O1190   1.280   .     A
C1166  C1049   1.327   1_655 S
C1166  H1062   1.082   1_655 S
C1167  H1179   1.078   .     S
C1167  C1172   1.393   .     A
C1167  C1517   1.366   1_545 S
C1168  H1180   1.083   .     S
C1168  C1171   1.399   .     A
C1168  C1344   1.373   .     S
C1169  C1171   1.393   .     A
C1169  H1181   1.078   .     S
C1169  C1341   1.366   .     S
C1170  H1182   1.082   .     S
C1170  C1172   1.399   .     A
C1170  C1516   1.373   1_545 S
C1173  N1195   1.422   .     S
C1173  N1184   1.371   .     A
C1174  N1183   1.371   .     A
C1174  N1201   1.421   .     S
C1174  C132    1.436   1_556 S
C1175  N1207   1.420   .     S
C1175  N1183   1.371   .     A
C1175  C129    1.440   1_556 S
C1176  N1184   1.371   .     A
C1176  N1213   1.421   .     S
H1177  C1049   1.087   1_655 S
N1183  Zn1193  2.024   .     S
N1184  Zn1194  2.024   .     S
O1185  Zn1193  2.004   .     S
O1186  Zn1194  2.004   .     S
O1187  Zn1194  2.004   .     S
O1188  Zn1193  2.004   .     S
O1189  Zn1193  1.975   .     S
O1190  Zn1194  1.975   .     S
O1191  Zn1194  1.980   .     S
O1192  Zn1193  1.980   .     S
N1195  C1197   1.446   .     S
N1195  H1196   1.029   .     S
C1197  H1198   1.108   .     S
C1197  H1200   1.109   .     S
C1197  H1199   1.111   .     S
N1201  H1202   1.030   .     S
N1201  C1203   1.445   .     S
C1203  H1205   1.107   .     S
C1203  H1204   1.108   .     S
C1203  H1206   1.107   .     S
N1207  H1208   1.029   .     S
N1207  C1209   1.447   .     S
C1209  H1212   1.110   .     S
C1209  H1211   1.108   .     S
C1209  H166    1.106   1_556 S
N1213  C1215   1.447   .     S
N1213  H1214   1.031   .     S
C1215  H1216   1.108   .     S
C1215  H1217   1.108   .     S
C1215  H1218   1.111   .     S
C1219  O1243   1.287   .     A
C1219  C1230   1.425   .     S
C1219  O1245   1.293   .     A
C1220  O1244   1.292   .     A
C1220  C1229   1.424   .     S
C1220  O1246   1.287   .     A
C1221  O1249   1.284   .     A
C1221  O1247   1.286   .     A
C1221  C1223   1.404   .     S
C1222  O1250   1.289   .     A
C1222  C1224   1.405   .     S
C1222  O1248   1.280   .     A
C1223  C1340   1.327   1_455 S
C1223  H1351   1.087   1_455 S
C1224  C1281   1.327   .     S
C1224  H1294   1.082   .     S
C1225  H1237   1.078   .     S
C1225  C1230   1.393   .     A
C1226  H1238   1.083   .     S
C1226  C1229   1.399   .     A
C1226  C1402   1.373   .     S
C1227  C1229   1.393   .     A
C1227  H1239   1.078   .     S
C1227  C1399   1.366   .     S
C1228  H1240   1.082   .     S
C1228  C1230   1.399   .     A
C1231  N1253   1.422   .     S
C1231  N1242   1.371   .     A
C1232  N1241   1.371   .     A
C1232  N1259   1.421   .     S
C1232  C190    1.436   1_556 S
C1233  N1265   1.420   .     S
C1233  N1241   1.371   .     A
C1233  C187    1.440   1_556 S
C1234  N1242   1.371   .     A
C1234  N1271   1.421   .     S
H1235  C1281   1.087   .     S
H1236  C1340   1.082   1_455 S
N1241  Zn1251  2.024   .     S
N1242  Zn1252  2.024   .     S
O1243  Zn1251  2.004   .     S
O1244  Zn1252  2.004   .     S
O1245  Zn1252  2.004   .     S
O1246  Zn1251  2.004   .     S
O1247  Zn1251  1.975   .     S
O1248  Zn1252  1.975   .     S
O1249  Zn1252  1.980   .     S
O1250  Zn1251  1.980   .     S
N1253  C1255   1.446   .     S
N1253  H1254   1.029   .     S
C1255  H1256   1.108   .     S
C1255  H1258   1.109   .     S
C1255  H1257   1.111   .     S
N1259  H1260   1.030   .     S
N1259  C1261   1.445   .     S
C1261  H1263   1.107   .     S
C1261  H1262   1.108   .     S
C1261  H1264   1.107   .     S
N1265  H1266   1.029   .     S
N1265  C1267   1.447   .     S
C1267  H1270   1.110   .     S
C1267  H1269   1.108   .     S
C1267  H224    1.106   1_556 S
N1271  C1273   1.447   .     S
N1271  H1272   1.031   .     S
C1273  H1274   1.108   .     S
C1273  H1275   1.108   .     S
C1273  H1276   1.111   .     S
C1277  O1301   1.287   .     A
C1277  C1288   1.425   .     S
C1277  O1303   1.293   .     A
C1278  O1302   1.292   .     A
C1278  C1287   1.424   .     S
C1278  O1304   1.287   .     A
C1279  O1307   1.284   .     A
C1279  O1305   1.286   .     A
C1279  C1281   1.404   .     S
C1280  O1308   1.289   .     A
C1280  C1282   1.405   .     S
C1280  O1306   1.280   .     A
C1282  C1339   1.327   .     S
C1282  H1352   1.082   .     S
C1283  H1295   1.078   .     S
C1283  C1288   1.393   .     A
C1284  H1296   1.083   .     S
C1284  C1287   1.399   .     A
C1284  C1460   1.373   .     S
C1285  C1287   1.393   .     A
C1285  H1297   1.078   .     S
C1285  C1457   1.366   .     S
C1286  H1298   1.082   .     S
C1286  C1288   1.399   .     A
C1289  N1311   1.422   .     S
C1289  N1300   1.371   .     A
C1290  N1299   1.371   .     A
C1290  N1317   1.421   .     S
C1290  C248    1.436   1_556 S
C1291  N1323   1.420   .     S
C1291  N1299   1.371   .     A
C1291  C245    1.440   1_556 S
C1292  N1300   1.371   .     A
C1292  N1329   1.421   .     S
H1293  C1339   1.087   .     S
N1299  Zn1309  2.024   .     S
N1300  Zn1310  2.024   .     S
O1301  Zn1309  2.004   .     S
O1302  Zn1310  2.004   .     S
O1303  Zn1310  2.004   .     S
O1304  Zn1309  2.004   .     S
O1305  Zn1309  1.975   .     S
O1306  Zn1310  1.975   .     S
O1307  Zn1310  1.980   .     S
O1308  Zn1309  1.980   .     S
N1311  C1313   1.446   .     S
N1311  H1312   1.029   .     S
C1313  H1314   1.108   .     S
C1313  H1316   1.109   .     S
C1313  H1315   1.111   .     S
N1317  H1318   1.030   .     S
N1317  C1319   1.445   .     S
C1319  H1321   1.107   .     S
C1319  H1320   1.108   .     S
C1319  H1322   1.107   .     S
N1323  H1324   1.029   .     S
N1323  C1325   1.447   .     S
C1325  H1328   1.110   .     S
C1325  H1327   1.108   .     S
C1325  H282    1.106   1_556 S
N1329  C1331   1.447   .     S
N1329  H1330   1.031   .     S
C1331  H1332   1.108   .     S
C1331  H1333   1.108   .     S
C1331  H1334   1.111   .     S
C1335  O1359   1.287   .     A
C1335  C1346   1.425   .     S
C1335  O1361   1.293   .     A
C1336  O1360   1.292   .     A
C1336  C1345   1.424   .     S
C1336  O1362   1.287   .     A
C1337  O1365   1.284   .     A
C1337  O1363   1.286   .     A
C1337  C1339   1.404   .     S
C1338  O1366   1.289   .     A
C1338  C1340   1.405   .     S
C1338  O1364   1.280   .     A
C1340  C1223   1.327   1_655 S
C1340  H1236   1.082   1_655 S
C1341  H1353   1.078   .     S
C1341  C1346   1.393   .     A
C1342  H1354   1.083   .     S
C1342  C1345   1.399   .     A
C1342  C1518   1.373   .     S
C1343  C1345   1.393   .     A
C1343  H1355   1.078   .     S
C1343  C1515   1.366   .     S
C1344  H1356   1.082   .     S
C1344  C1346   1.399   .     A
C1347  N1369   1.422   .     S
C1347  N1358   1.371   .     A
C1348  N1357   1.371   .     A
C1348  N1375   1.421   .     S
C1348  C306    1.436   1_556 S
C1349  N1381   1.420   .     S
C1349  N1357   1.371   .     A
C1349  C303    1.440   1_556 S
C1350  N1358   1.371   .     A
C1350  N1387   1.421   .     S
H1351  C1223   1.087   1_655 S
N1357  Zn1367  2.024   .     S
N1358  Zn1368  2.024   .     S
O1359  Zn1367  2.004   .     S
O1360  Zn1368  2.004   .     S
O1361  Zn1368  2.004   .     S
O1362  Zn1367  2.004   .     S
O1363  Zn1367  1.975   .     S
O1364  Zn1368  1.975   .     S
O1365  Zn1368  1.980   .     S
O1366  Zn1367  1.980   .     S
N1369  C1371   1.446   .     S
N1369  H1370   1.029   .     S
C1371  H1372   1.108   .     S
C1371  H1374   1.109   .     S
C1371  H1373   1.111   .     S
N1375  H1376   1.030   .     S
N1375  C1377   1.445   .     S
C1377  H1379   1.107   .     S
C1377  H1378   1.108   .     S
C1377  H1380   1.107   .     S
N1381  H1382   1.029   .     S
N1381  C1383   1.447   .     S
C1383  H1386   1.110   .     S
C1383  H1385   1.108   .     S
C1383  H340    1.106   1_556 S
N1387  C1389   1.447   .     S
N1387  H1388   1.031   .     S
C1389  H1390   1.108   .     S
C1389  H1391   1.108   .     S
C1389  H1392   1.111   .     S
C1393  O1417   1.287   .     A
C1393  C1404   1.425   .     S
C1393  O1419   1.293   .     A
C1394  O1418   1.292   .     A
C1394  C1403   1.424   .     S
C1394  O1420   1.287   .     A
C1395  O1423   1.284   .     A
C1395  O1421   1.286   .     A
C1395  C1397   1.404   .     S
C1396  O1424   1.289   .     A
C1396  C1398   1.405   .     S
C1396  O1422   1.280   .     A
C1397  C1514   1.327   1_455 S
C1397  H1525   1.087   1_455 S
C1398  C1455   1.327   .     S
C1398  H1468   1.082   .     S
C1399  H1411   1.078   .     S
C1399  C1404   1.393   .     A
C1400  H1412   1.083   .     S
C1400  C1403   1.399   .     A
C1400  C1054   1.373   1_565 S
C1401  C1403   1.393   .     A
C1401  H1413   1.078   .     S
C1401  C1051   1.366   1_565 S
C1402  H1414   1.082   .     S
C1402  C1404   1.399   .     A
C1405  N1427   1.422   .     S
C1405  N1416   1.371   .     A
C1406  N1415   1.371   .     A
C1406  N1433   1.421   .     S
C1406  C364    1.436   1_556 S
C1407  N1439   1.420   .     S
C1407  N1415   1.371   .     A
C1407  C361    1.440   1_556 S
C1408  N1416   1.371   .     A
C1408  N1445   1.421   .     S
H1409  C1455   1.087   .     S
H1410  C1514   1.082   1_455 S
N1415  Zn1425  2.024   .     S
N1416  Zn1426  2.024   .     S
O1417  Zn1425  2.004   .     S
O1418  Zn1426  2.004   .     S
O1419  Zn1426  2.004   .     S
O1420  Zn1425  2.004   .     S
O1421  Zn1425  1.975   .     S
O1422  Zn1426  1.975   .     S
O1423  Zn1426  1.980   .     S
O1424  Zn1425  1.980   .     S
N1427  C1429   1.446   .     S
N1427  H1428   1.029   .     S
C1429  H1430   1.108   .     S
C1429  H1432   1.109   .     S
C1429  H1431   1.111   .     S
N1433  H1434   1.030   .     S
N1433  C1435   1.445   .     S
C1435  H1437   1.107   .     S
C1435  H1436   1.108   .     S
C1435  H1438   1.107   .     S
N1439  H1440   1.029   .     S
N1439  C1441   1.447   .     S
C1441  H1444   1.110   .     S
C1441  H1443   1.108   .     S
C1441  H398    1.106   1_556 S
N1445  C1447   1.447   .     S
N1445  H1446   1.031   .     S
C1447  H1448   1.108   .     S
C1447  H1449   1.108   .     S
C1447  H1450   1.111   .     S
C1451  O1475   1.287   .     A
C1451  C1462   1.425   .     S
C1451  O1477   1.293   .     A
C1452  O1476   1.292   .     A
C1452  C1461   1.424   .     S
C1452  O1478   1.287   .     A
C1453  O1481   1.284   .     A
C1453  O1479   1.286   .     A
C1453  C1455   1.404   .     S
C1454  O1482   1.289   .     A
C1454  C1456   1.405   .     S
C1454  O1480   1.280   .     A
C1456  C1513   1.327   .     S
C1456  H1526   1.082   .     S
C1457  H1469   1.078   .     S
C1457  C1462   1.393   .     A
C1458  H1470   1.083   .     S
C1458  C1461   1.399   .     A
C1458  C1112   1.373   1_565 S
C1459  C1461   1.393   .     A
C1459  H1471   1.078   .     S
C1459  C1109   1.366   1_565 S
C1460  H1472   1.082   .     S
C1460  C1462   1.399   .     A
C1463  N1485   1.422   .     S
C1463  N1474   1.371   .     A
C1464  N1473   1.371   .     A
C1464  N1491   1.421   .     S
C1464  C422    1.436   1_556 S
C1465  N1497   1.420   .     S
C1465  N1473   1.371   .     A
C1465  C419    1.440   1_556 S
C1466  N1474   1.371   .     A
C1466  N1503   1.421   .     S
H1467  C1513   1.087   .     S
N1473  Zn1483  2.024   .     S
N1474  Zn1484  2.024   .     S
O1475  Zn1483  2.004   .     S
O1476  Zn1484  2.004   .     S
O1477  Zn1484  2.004   .     S
O1478  Zn1483  2.004   .     S
O1479  Zn1483  1.975   .     S
O1480  Zn1484  1.975   .     S
O1481  Zn1484  1.980   .     S
O1482  Zn1483  1.980   .     S
N1485  C1487   1.446   .     S
N1485  H1486   1.029   .     S
C1487  H1488   1.108   .     S
C1487  H1490   1.109   .     S
C1487  H1489   1.111   .     S
N1491  H1492   1.030   .     S
N1491  C1493   1.445   .     S
C1493  H1495   1.107   .     S
C1493  H1494   1.108   .     S
C1493  H1496   1.107   .     S
N1497  H1498   1.029   .     S
N1497  C1499   1.447   .     S
C1499  H1502   1.110   .     S
C1499  H1501   1.108   .     S
C1499  H456    1.106   1_556 S
N1503  C1505   1.447   .     S
N1503  H1504   1.031   .     S
C1505  H1506   1.108   .     S
C1505  H1507   1.108   .     S
C1505  H1508   1.111   .     S
C1509  O1533   1.287   .     A
C1509  C1520   1.425   .     S
C1509  O1535   1.293   .     A
C1510  O1534   1.292   .     A
C1510  C1519   1.424   .     S
C1510  O1536   1.287   .     A
C1511  O1539   1.284   .     A
C1511  O1537   1.286   .     A
C1511  C1513   1.404   .     S
C1512  O1540   1.289   .     A
C1512  C1514   1.405   .     S
C1512  O1538   1.280   .     A
C1514  C1397   1.327   1_655 S
C1514  H1410   1.082   1_655 S
C1515  H1527   1.078   .     S
C1515  C1520   1.393   .     A
C1516  H1528   1.083   .     S
C1516  C1519   1.399   .     A
C1516  C1170   1.373   1_565 S
C1517  C1519   1.393   .     A
C1517  H1529   1.078   .     S
C1517  C1167   1.366   1_565 S
C1518  H1530   1.082   .     S
C1518  C1520   1.399   .     A
C1521  N1543   1.422   .     S
C1521  N1532   1.371   .     A
C1522  N1531   1.371   .     A
C1522  N1549   1.421   .     S
C1522  C480    1.436   1_556 S
C1523  N1555   1.420   .     S
C1523  N1531   1.371   .     A
C1523  C477    1.440   1_556 S
C1524  N1532   1.371   .     A
C1524  N1561   1.421   .     S
H1525  C1397   1.087   1_655 S
N1531  Zn1541  2.024   .     S
N1532  Zn1542  2.024   .     S
O1533  Zn1541  2.004   .     S
O1534  Zn1542  2.004   .     S
O1535  Zn1542  2.004   .     S
O1536  Zn1541  2.004   .     S
O1537  Zn1541  1.975   .     S
O1538  Zn1542  1.975   .     S
O1539  Zn1542  1.980   .     S
O1540  Zn1541  1.980   .     S
N1543  C1545   1.446   .     S
N1543  H1544   1.029   .     S
C1545  H1546   1.108   .     S
C1545  H1548   1.109   .     S
C1545  H1547   1.111   .     S
N1549  H1550   1.030   .     S
N1549  C1551   1.445   .     S
C1551  H1553   1.107   .     S
C1551  H1552   1.108   .     S
C1551  H1554   1.107   .     S
N1555  H1556   1.029   .     S
N1555  C1557   1.447   .     S
C1557  H1560   1.110   .     S
C1557  H1559   1.108   .     S
C1557  H514    1.106   1_556 S
N1561  C1563   1.447   .     S
N1561  H1562   1.031   .     S
C1563  H1564   1.108   .     S
C1563  H1565   1.108   .     S
C1563  H1566   1.111   .     S
