data_str_m3_o1_o18_pcu_sym.181
_audit_creation_date              2020-01-03
_audit_creation_method            'Materials Studio'
_symmetry_space_group_name_H-M    'P1'
_symmetry_Int_Tables_number       1
_symmetry_cell_setting            triclinic
loop_
_symmetry_equiv_pos_as_xyz
  x,y,z
_cell_length_a                    29.6754
_cell_length_b                    32.1125
_cell_length_c                    31.0992
_cell_angle_alpha                 90.6373
_cell_angle_beta                  67.3292
_cell_angle_gamma                 89.4845
loop_
_atom_site_label
_atom_site_type_symbol
_atom_site_fract_x
_atom_site_fract_y
_atom_site_fract_z
_atom_site_U_iso_or_equiv
_atom_site_adp_type
_atom_site_occupancy
C1     C     0.16649   0.24665   0.25016   0.00000  Uiso   1.00
C2     C     0.16685   0.08668   0.24982   0.00000  Uiso   1.00
C3     C     0.11786   0.20777   0.04650   0.00000  Uiso   1.00
C4     C     0.22782   0.17023   0.44605   0.00000  Uiso   1.00
C5     C     0.08392   0.21254   0.02613   0.00000  Uiso   1.00
C6     C     0.26175   0.16518   0.46631   0.00000  Uiso   1.00
C7     C     0.20125   0.31184   0.26195   0.00000  Uiso   1.00
C8     C     0.13214   0.02149   0.23797   0.00000  Uiso   1.00
C9     C     0.20159   0.02116   0.26159   0.00000  Uiso   1.00
C10    C     0.13181   0.31217   0.23830   0.00000  Uiso   1.00
C11    C     0.16700   0.04250   0.24966   0.00000  Uiso   1.00
C12    C     0.16638   0.29083   0.25027   0.00000  Uiso   1.00
C13    C     0.32189   0.14024   0.22110   0.00000  Uiso   1.00
C14    C     0.01148   0.19330   0.27865   0.00000  Uiso   1.00
C15    C     0.03613   0.14029   0.22139   0.00000  Uiso   1.00
C16    C     0.29719   0.19305   0.27858   0.00000  Uiso   1.00
C17    C     0.13609   0.16682   0.33806   0.00000  Uiso   1.00
C18    C     0.19729   0.16728   0.16200   0.00000  Uiso   1.00
C19    C     0.11769   0.17223   0.38866   0.00000  Uiso   1.00
C20    C     0.21654   0.17005   0.11128   0.00000  Uiso   1.00
C21    C     0.06026   0.20272   0.46043   0.00000  Uiso   1.00
C22    C     0.28044   0.15947   0.03516   0.00000  Uiso   1.00
C23    C     0.07167   0.18969   0.41446   0.00000  Uiso   1.00
C24    C     0.26525   0.16038   0.08349   0.00000  Uiso   1.00
C25    C     0.15094   0.16594   0.40973   0.00000  Uiso   1.00
C26    C     0.18415   0.18138   0.09059   0.00000  Uiso   1.00
C27    C     0.14201   0.18178   0.45425   0.00000  Uiso   1.00
C28    C     0.19859   0.18136   0.04224   0.00000  Uiso   1.00
C29    C     0.09515   0.19899   0.48048   0.00000  Uiso   1.00
C30    C     0.24725   0.16900   0.01438   0.00000  Uiso   1.00
C31    C     0.17831   0.18033   0.47338   0.00000  Uiso   1.00
C32    C     0.16478   0.19006   0.02125   0.00000  Uiso   1.00
H33    H     0.04848   0.22634   0.04646   0.00000  Uiso   1.00
H34    H     0.29910   0.15672   0.44440   0.00000  Uiso   1.00
H35    H     0.14676   0.18790   0.11306   0.00000  Uiso   1.00
H36    H     0.18431   0.14908   0.39017   0.00000  Uiso   1.00
H37    H     0.29099   0.15205   0.09899   0.00000  Uiso   1.00
H38    H     0.04528   0.19444   0.39886   0.00000  Uiso   1.00
H39    H     0.02473   0.21673   0.47986   0.00000  Uiso   1.00
H40    H     0.31760   0.14985   0.01415   0.00000  Uiso   1.00
H41    H     0.10680   0.21957   0.08171   0.00000  Uiso   1.00
H42    H     0.24174   0.16696   0.40860   0.00000  Uiso   1.00
H43    H     0.22793   0.29543   0.27162   0.00000  Uiso   1.00
H44    H     0.10545   0.03790   0.22830   0.00000  Uiso   1.00
H45    H     0.22843   0.03731   0.27105   0.00000  Uiso   1.00
H46    H     0.10499   0.29601   0.22883   0.00000  Uiso   1.00
H47    H     0.06395   0.11925   0.19852   0.00000  Uiso   1.00
H48    H     0.26937   0.21415   0.30135   0.00000  Uiso   1.00
N49    N     0.04759   0.16668   0.25001   0.00000  Uiso   1.00
N50    N     0.28574   0.16666   0.24999   0.00000  Uiso   1.00
O51    O     0.12846   0.22775   0.25000   0.00000  Uiso   1.00
O52    O     0.20488   0.10558   0.25000   0.00000  Uiso   1.00
O53    O     0.20490   0.22774   0.25000   0.00000  Uiso   1.00
O54    O     0.12843   0.10559   0.25000   0.00000  Uiso   1.00
O55    O     0.10661   0.16667   0.31612   0.00000  Uiso   1.00
O56    O     0.22672   0.16666   0.18388   0.00000  Uiso   1.00
O57    O     0.18305   0.16666   0.31612   0.00000  Uiso   1.00
O58    O     0.15028   0.16667   0.18388   0.00000  Uiso   1.00
Zn59   Zn    0.11562   0.16667   0.25000   0.00000  Uiso   1.00
Zn60   Zn    0.21771   0.16666   0.25000   0.00000  Uiso   1.00
I61    I     0.31040   0.09801   0.17387   0.00000  Uiso   1.00
I62    I     0.02310   0.23695   0.32443   0.00000  Uiso   1.00
C63    C     0.49983   0.24665   0.25016   0.00000  Uiso   1.00
C64    C     0.50018   0.08668   0.24982   0.00000  Uiso   1.00
C65    C     0.45119   0.20777   0.04650   0.00000  Uiso   1.00
C66    C     0.56115   0.17023   0.44605   0.00000  Uiso   1.00
C67    C     0.41726   0.21254   0.02613   0.00000  Uiso   1.00
C68    C     0.59509   0.16518   0.46631   0.00000  Uiso   1.00
C69    C     0.53458   0.31184   0.26195   0.00000  Uiso   1.00
C70    C     0.46547   0.02149   0.23797   0.00000  Uiso   1.00
C71    C     0.53492   0.02116   0.26159   0.00000  Uiso   1.00
C72    C     0.46514   0.31217   0.23830   0.00000  Uiso   1.00
C73    C     0.50033   0.04250   0.24966   0.00000  Uiso   1.00
C74    C     0.49971   0.29083   0.25027   0.00000  Uiso   1.00
C75    C     0.65522   0.14024   0.22110   0.00000  Uiso   1.00
C76    C     0.34481   0.19330   0.27865   0.00000  Uiso   1.00
C77    C     0.36946   0.14029   0.22139   0.00000  Uiso   1.00
C78    C     0.63052   0.19305   0.27858   0.00000  Uiso   1.00
C79    C     0.46942   0.16682   0.33806   0.00000  Uiso   1.00
C80    C     0.53062   0.16728   0.16200   0.00000  Uiso   1.00
C81    C     0.45103   0.17223   0.38866   0.00000  Uiso   1.00
C82    C     0.54988   0.17005   0.11128   0.00000  Uiso   1.00
C83    C     0.39360   0.20272   0.46043   0.00000  Uiso   1.00
C84    C     0.61377   0.15947   0.03516   0.00000  Uiso   1.00
C85    C     0.40500   0.18969   0.41446   0.00000  Uiso   1.00
C86    C     0.59859   0.16038   0.08349   0.00000  Uiso   1.00
C87    C     0.48427   0.16594   0.40973   0.00000  Uiso   1.00
C88    C     0.51748   0.18138   0.09059   0.00000  Uiso   1.00
C89    C     0.47534   0.18178   0.45425   0.00000  Uiso   1.00
C90    C     0.53192   0.18136   0.04224   0.00000  Uiso   1.00
C91    C     0.42848   0.19899   0.48048   0.00000  Uiso   1.00
C92    C     0.58058   0.16900   0.01438   0.00000  Uiso   1.00
C93    C     0.51164   0.18033   0.47338   0.00000  Uiso   1.00
C94    C     0.49811   0.19006   0.02125   0.00000  Uiso   1.00
H95    H     0.38181   0.22634   0.04646   0.00000  Uiso   1.00
H96    H     0.63243   0.15672   0.44440   0.00000  Uiso   1.00
H97    H     0.48010   0.18790   0.11306   0.00000  Uiso   1.00
H98    H     0.51765   0.14908   0.39017   0.00000  Uiso   1.00
H99    H     0.62432   0.15205   0.09899   0.00000  Uiso   1.00
H100   H     0.37861   0.19444   0.39886   0.00000  Uiso   1.00
H101   H     0.35806   0.21673   0.47986   0.00000  Uiso   1.00
H102   H     0.65094   0.14985   0.01415   0.00000  Uiso   1.00
H103   H     0.44013   0.21957   0.08171   0.00000  Uiso   1.00
H104   H     0.57507   0.16696   0.40860   0.00000  Uiso   1.00
H105   H     0.56126   0.29543   0.27162   0.00000  Uiso   1.00
H106   H     0.43878   0.03790   0.22830   0.00000  Uiso   1.00
H107   H     0.56176   0.03731   0.27105   0.00000  Uiso   1.00
H108   H     0.43832   0.29601   0.22883   0.00000  Uiso   1.00
H109   H     0.39729   0.11925   0.19852   0.00000  Uiso   1.00
H110   H     0.60271   0.21415   0.30135   0.00000  Uiso   1.00
N111   N     0.38093   0.16668   0.25001   0.00000  Uiso   1.00
N112   N     0.61907   0.16666   0.24999   0.00000  Uiso   1.00
O113   O     0.46179   0.22775   0.25000   0.00000  Uiso   1.00
O114   O     0.53821   0.10558   0.25000   0.00000  Uiso   1.00
O115   O     0.53823   0.22774   0.25000   0.00000  Uiso   1.00
O116   O     0.46177   0.10559   0.25000   0.00000  Uiso   1.00
O117   O     0.43994   0.16667   0.31612   0.00000  Uiso   1.00
O118   O     0.56006   0.16666   0.18388   0.00000  Uiso   1.00
O119   O     0.51639   0.16666   0.31612   0.00000  Uiso   1.00
O120   O     0.48361   0.16667   0.18388   0.00000  Uiso   1.00
Zn121  Zn    0.44896   0.16667   0.25000   0.00000  Uiso   1.00
Zn122  Zn    0.55104   0.16666   0.25000   0.00000  Uiso   1.00
I123   I     0.64374   0.09801   0.17387   0.00000  Uiso   1.00
I124   I     0.35644   0.23695   0.32443   0.00000  Uiso   1.00
C125   C     0.83316   0.24665   0.25016   0.00000  Uiso   1.00
C126   C     0.83352   0.08668   0.24982   0.00000  Uiso   1.00
C127   C     0.78453   0.20777   0.04650   0.00000  Uiso   1.00
C128   C     0.89449   0.17023   0.44605   0.00000  Uiso   1.00
C129   C     0.75059   0.21254   0.02613   0.00000  Uiso   1.00
C130   C     0.92842   0.16518   0.46631   0.00000  Uiso   1.00
C131   C     0.86791   0.31184   0.26195   0.00000  Uiso   1.00
C132   C     0.79880   0.02149   0.23797   0.00000  Uiso   1.00
C133   C     0.86825   0.02116   0.26159   0.00000  Uiso   1.00
C134   C     0.79848   0.31217   0.23830   0.00000  Uiso   1.00
C135   C     0.83366   0.04250   0.24966   0.00000  Uiso   1.00
C136   C     0.83304   0.29083   0.25027   0.00000  Uiso   1.00
C137   C     0.98856   0.14024   0.22110   0.00000  Uiso   1.00
C138   C     0.67815   0.19330   0.27865   0.00000  Uiso   1.00
C139   C     0.70279   0.14029   0.22139   0.00000  Uiso   1.00
C140   C     0.96385   0.19305   0.27858   0.00000  Uiso   1.00
C141   C     0.80275   0.16682   0.33806   0.00000  Uiso   1.00
C142   C     0.86395   0.16728   0.16200   0.00000  Uiso   1.00
C143   C     0.78436   0.17223   0.38866   0.00000  Uiso   1.00
C144   C     0.88321   0.17005   0.11128   0.00000  Uiso   1.00
C145   C     0.72693   0.20272   0.46043   0.00000  Uiso   1.00
C146   C     0.94711   0.15947   0.03516   0.00000  Uiso   1.00
C147   C     0.73834   0.18969   0.41446   0.00000  Uiso   1.00
C148   C     0.93192   0.16038   0.08349   0.00000  Uiso   1.00
C149   C     0.81761   0.16594   0.40973   0.00000  Uiso   1.00
C150   C     0.85082   0.18138   0.09059   0.00000  Uiso   1.00
C151   C     0.80867   0.18178   0.45425   0.00000  Uiso   1.00
C152   C     0.86525   0.18136   0.04224   0.00000  Uiso   1.00
C153   C     0.76181   0.19899   0.48048   0.00000  Uiso   1.00
C154   C     0.91392   0.16900   0.01438   0.00000  Uiso   1.00
C155   C     0.84497   0.18033   0.47338   0.00000  Uiso   1.00
C156   C     0.83144   0.19006   0.02125   0.00000  Uiso   1.00
H157   H     0.71514   0.22634   0.04646   0.00000  Uiso   1.00
H158   H     0.96576   0.15672   0.44440   0.00000  Uiso   1.00
H159   H     0.81343   0.18790   0.11306   0.00000  Uiso   1.00
H160   H     0.85098   0.14908   0.39017   0.00000  Uiso   1.00
H161   H     0.95765   0.15205   0.09899   0.00000  Uiso   1.00
H162   H     0.71194   0.19444   0.39886   0.00000  Uiso   1.00
H163   H     0.69139   0.21673   0.47986   0.00000  Uiso   1.00
H164   H     0.98427   0.14985   0.01415   0.00000  Uiso   1.00
H165   H     0.77346   0.21957   0.08171   0.00000  Uiso   1.00
H166   H     0.90840   0.16696   0.40860   0.00000  Uiso   1.00
H167   H     0.89460   0.29543   0.27162   0.00000  Uiso   1.00
H168   H     0.77211   0.03790   0.22830   0.00000  Uiso   1.00
H169   H     0.89509   0.03731   0.27105   0.00000  Uiso   1.00
H170   H     0.77165   0.29601   0.22883   0.00000  Uiso   1.00
H171   H     0.73062   0.11925   0.19852   0.00000  Uiso   1.00
H172   H     0.93604   0.21415   0.30135   0.00000  Uiso   1.00
N173   N     0.71426   0.16668   0.25001   0.00000  Uiso   1.00
N174   N     0.95241   0.16666   0.24999   0.00000  Uiso   1.00
O175   O     0.79512   0.22775   0.25000   0.00000  Uiso   1.00
O176   O     0.87154   0.10558   0.25000   0.00000  Uiso   1.00
O177   O     0.87157   0.22774   0.25000   0.00000  Uiso   1.00
O178   O     0.79510   0.10559   0.25000   0.00000  Uiso   1.00
O179   O     0.77328   0.16667   0.31612   0.00000  Uiso   1.00
O180   O     0.89339   0.16666   0.18388   0.00000  Uiso   1.00
O181   O     0.84972   0.16666   0.31612   0.00000  Uiso   1.00
O182   O     0.81695   0.16667   0.18388   0.00000  Uiso   1.00
Zn183  Zn    0.78229   0.16667   0.25000   0.00000  Uiso   1.00
Zn184  Zn    0.88438   0.16666   0.25000   0.00000  Uiso   1.00
I185   I     0.97707   0.09801   0.17387   0.00000  Uiso   1.00
I186   I     0.68977   0.23695   0.32443   0.00000  Uiso   1.00
C187   C     0.16649   0.57999   0.25016   0.00000  Uiso   1.00
C188   C     0.16685   0.42001   0.24982   0.00000  Uiso   1.00
C189   C     0.11786   0.54110   0.04650   0.00000  Uiso   1.00
C190   C     0.22782   0.50356   0.44605   0.00000  Uiso   1.00
C191   C     0.08392   0.54587   0.02613   0.00000  Uiso   1.00
C192   C     0.26175   0.49851   0.46631   0.00000  Uiso   1.00
C193   C     0.20125   0.64517   0.26195   0.00000  Uiso   1.00
C194   C     0.13214   0.35482   0.23797   0.00000  Uiso   1.00
C195   C     0.20159   0.35449   0.26159   0.00000  Uiso   1.00
C196   C     0.13181   0.64550   0.23830   0.00000  Uiso   1.00
C197   C     0.16700   0.37584   0.24966   0.00000  Uiso   1.00
C198   C     0.16638   0.62416   0.25027   0.00000  Uiso   1.00
C199   C     0.32189   0.47357   0.22110   0.00000  Uiso   1.00
C200   C     0.01148   0.52663   0.27865   0.00000  Uiso   1.00
C201   C     0.03613   0.47362   0.22139   0.00000  Uiso   1.00
C202   C     0.29719   0.52638   0.27858   0.00000  Uiso   1.00
C203   C     0.13609   0.50015   0.33806   0.00000  Uiso   1.00
C204   C     0.19729   0.50061   0.16200   0.00000  Uiso   1.00
C205   C     0.11769   0.50556   0.38866   0.00000  Uiso   1.00
C206   C     0.21654   0.50339   0.11128   0.00000  Uiso   1.00
C207   C     0.06026   0.53605   0.46043   0.00000  Uiso   1.00
C208   C     0.28044   0.49281   0.03516   0.00000  Uiso   1.00
C209   C     0.07167   0.52303   0.41446   0.00000  Uiso   1.00
C210   C     0.26525   0.49371   0.08349   0.00000  Uiso   1.00
C211   C     0.15094   0.49927   0.40973   0.00000  Uiso   1.00
C212   C     0.18415   0.51471   0.09059   0.00000  Uiso   1.00
C213   C     0.14201   0.51511   0.45425   0.00000  Uiso   1.00
C214   C     0.19859   0.51469   0.04224   0.00000  Uiso   1.00
C215   C     0.09515   0.53233   0.48048   0.00000  Uiso   1.00
C216   C     0.24725   0.50233   0.01438   0.00000  Uiso   1.00
C217   C     0.17831   0.51367   0.47338   0.00000  Uiso   1.00
C218   C     0.16478   0.52340   0.02125   0.00000  Uiso   1.00
H219   H     0.04848   0.55968   0.04646   0.00000  Uiso   1.00
H220   H     0.29910   0.49005   0.44440   0.00000  Uiso   1.00
H221   H     0.14676   0.52123   0.11306   0.00000  Uiso   1.00
H222   H     0.18431   0.48241   0.39017   0.00000  Uiso   1.00
H223   H     0.29099   0.48538   0.09899   0.00000  Uiso   1.00
H224   H     0.04528   0.52778   0.39886   0.00000  Uiso   1.00
H225   H     0.02473   0.55006   0.47986   0.00000  Uiso   1.00
H226   H     0.31760   0.48319   0.01415   0.00000  Uiso   1.00
H227   H     0.10680   0.55291   0.08171   0.00000  Uiso   1.00
H228   H     0.24174   0.50029   0.40860   0.00000  Uiso   1.00
H229   H     0.22793   0.62876   0.27162   0.00000  Uiso   1.00
H230   H     0.10545   0.37123   0.22830   0.00000  Uiso   1.00
H231   H     0.22843   0.37065   0.27105   0.00000  Uiso   1.00
H232   H     0.10499   0.62935   0.22883   0.00000  Uiso   1.00
H233   H     0.06395   0.45258   0.19852   0.00000  Uiso   1.00
H234   H     0.26937   0.54748   0.30135   0.00000  Uiso   1.00
N235   N     0.04759   0.50001   0.25001   0.00000  Uiso   1.00
N236   N     0.28574   0.49999   0.24999   0.00000  Uiso   1.00
O237   O     0.12846   0.56108   0.25000   0.00000  Uiso   1.00
O238   O     0.20488   0.43892   0.25000   0.00000  Uiso   1.00
O239   O     0.20490   0.56107   0.25000   0.00000  Uiso   1.00
O240   O     0.12843   0.43893   0.25000   0.00000  Uiso   1.00
O241   O     0.10661   0.50001   0.31612   0.00000  Uiso   1.00
O242   O     0.22672   0.49999   0.18388   0.00000  Uiso   1.00
O243   O     0.18305   0.50000   0.31612   0.00000  Uiso   1.00
O244   O     0.15028   0.50000   0.18388   0.00000  Uiso   1.00
Zn245  Zn    0.11562   0.50001   0.25000   0.00000  Uiso   1.00
Zn246  Zn    0.21771   0.49999   0.25000   0.00000  Uiso   1.00
I247   I     0.31040   0.43135   0.17387   0.00000  Uiso   1.00
I248   I     0.02310   0.57028   0.32443   0.00000  Uiso   1.00
C249   C     0.49983   0.57999   0.25016   0.00000  Uiso   1.00
C250   C     0.50018   0.42001   0.24982   0.00000  Uiso   1.00
C251   C     0.45119   0.54110   0.04650   0.00000  Uiso   1.00
C252   C     0.56115   0.50356   0.44605   0.00000  Uiso   1.00
C253   C     0.41726   0.54587   0.02613   0.00000  Uiso   1.00
C254   C     0.59509   0.49851   0.46631   0.00000  Uiso   1.00
C255   C     0.53458   0.64517   0.26195   0.00000  Uiso   1.00
C256   C     0.46547   0.35482   0.23797   0.00000  Uiso   1.00
C257   C     0.53492   0.35449   0.26159   0.00000  Uiso   1.00
C258   C     0.46514   0.64550   0.23830   0.00000  Uiso   1.00
C259   C     0.50033   0.37584   0.24966   0.00000  Uiso   1.00
C260   C     0.49971   0.62416   0.25027   0.00000  Uiso   1.00
C261   C     0.65522   0.47357   0.22110   0.00000  Uiso   1.00
C262   C     0.34481   0.52663   0.27865   0.00000  Uiso   1.00
C263   C     0.36946   0.47362   0.22139   0.00000  Uiso   1.00
C264   C     0.63052   0.52638   0.27858   0.00000  Uiso   1.00
C265   C     0.46942   0.50015   0.33806   0.00000  Uiso   1.00
C266   C     0.53062   0.50061   0.16200   0.00000  Uiso   1.00
C267   C     0.45103   0.50556   0.38866   0.00000  Uiso   1.00
C268   C     0.54988   0.50339   0.11128   0.00000  Uiso   1.00
C269   C     0.39360   0.53605   0.46043   0.00000  Uiso   1.00
C270   C     0.61377   0.49281   0.03516   0.00000  Uiso   1.00
C271   C     0.40500   0.52303   0.41446   0.00000  Uiso   1.00
C272   C     0.59859   0.49371   0.08349   0.00000  Uiso   1.00
C273   C     0.48427   0.49927   0.40973   0.00000  Uiso   1.00
C274   C     0.51748   0.51471   0.09059   0.00000  Uiso   1.00
C275   C     0.47534   0.51511   0.45425   0.00000  Uiso   1.00
C276   C     0.53192   0.51469   0.04224   0.00000  Uiso   1.00
C277   C     0.42848   0.53233   0.48048   0.00000  Uiso   1.00
C278   C     0.58058   0.50233   0.01438   0.00000  Uiso   1.00
C279   C     0.51164   0.51367   0.47338   0.00000  Uiso   1.00
C280   C     0.49811   0.52340   0.02125   0.00000  Uiso   1.00
H281   H     0.38181   0.55968   0.04646   0.00000  Uiso   1.00
H282   H     0.63243   0.49005   0.44440   0.00000  Uiso   1.00
H283   H     0.48010   0.52123   0.11306   0.00000  Uiso   1.00
H284   H     0.51765   0.48241   0.39017   0.00000  Uiso   1.00
H285   H     0.62432   0.48538   0.09899   0.00000  Uiso   1.00
H286   H     0.37861   0.52778   0.39886   0.00000  Uiso   1.00
H287   H     0.35806   0.55006   0.47986   0.00000  Uiso   1.00
H288   H     0.65094   0.48319   0.01415   0.00000  Uiso   1.00
H289   H     0.44013   0.55291   0.08171   0.00000  Uiso   1.00
H290   H     0.57507   0.50029   0.40860   0.00000  Uiso   1.00
H291   H     0.56126   0.62876   0.27162   0.00000  Uiso   1.00
H292   H     0.43878   0.37123   0.22830   0.00000  Uiso   1.00
H293   H     0.56176   0.37065   0.27105   0.00000  Uiso   1.00
H294   H     0.43832   0.62935   0.22883   0.00000  Uiso   1.00
H295   H     0.39729   0.45258   0.19852   0.00000  Uiso   1.00
H296   H     0.60271   0.54748   0.30135   0.00000  Uiso   1.00
N297   N     0.38093   0.50001   0.25001   0.00000  Uiso   1.00
N298   N     0.61907   0.49999   0.24999   0.00000  Uiso   1.00
O299   O     0.46179   0.56108   0.25000   0.00000  Uiso   1.00
O300   O     0.53821   0.43892   0.25000   0.00000  Uiso   1.00
O301   O     0.53823   0.56107   0.25000   0.00000  Uiso   1.00
O302   O     0.46177   0.43893   0.25000   0.00000  Uiso   1.00
O303   O     0.43994   0.50001   0.31612   0.00000  Uiso   1.00
O304   O     0.56006   0.49999   0.18388   0.00000  Uiso   1.00
O305   O     0.51639   0.50000   0.31612   0.00000  Uiso   1.00
O306   O     0.48361   0.50000   0.18388   0.00000  Uiso   1.00
Zn307  Zn    0.44896   0.50001   0.25000   0.00000  Uiso   1.00
Zn308  Zn    0.55104   0.49999   0.25000   0.00000  Uiso   1.00
I309   I     0.64374   0.43135   0.17387   0.00000  Uiso   1.00
I310   I     0.35644   0.57028   0.32443   0.00000  Uiso   1.00
C311   C     0.83316   0.57999   0.25016   0.00000  Uiso   1.00
C312   C     0.83352   0.42001   0.24982   0.00000  Uiso   1.00
C313   C     0.78453   0.54110   0.04650   0.00000  Uiso   1.00
C314   C     0.89449   0.50356   0.44605   0.00000  Uiso   1.00
C315   C     0.75059   0.54587   0.02613   0.00000  Uiso   1.00
C316   C     0.92842   0.49851   0.46631   0.00000  Uiso   1.00
C317   C     0.86791   0.64517   0.26195   0.00000  Uiso   1.00
C318   C     0.79880   0.35482   0.23797   0.00000  Uiso   1.00
C319   C     0.86825   0.35449   0.26159   0.00000  Uiso   1.00
C320   C     0.79848   0.64550   0.23830   0.00000  Uiso   1.00
C321   C     0.83366   0.37584   0.24966   0.00000  Uiso   1.00
C322   C     0.83304   0.62416   0.25027   0.00000  Uiso   1.00
C323   C     0.98856   0.47357   0.22110   0.00000  Uiso   1.00
C324   C     0.67815   0.52663   0.27865   0.00000  Uiso   1.00
C325   C     0.70279   0.47362   0.22139   0.00000  Uiso   1.00
C326   C     0.96385   0.52638   0.27858   0.00000  Uiso   1.00
C327   C     0.80275   0.50015   0.33806   0.00000  Uiso   1.00
C328   C     0.86395   0.50061   0.16200   0.00000  Uiso   1.00
C329   C     0.78436   0.50556   0.38866   0.00000  Uiso   1.00
C330   C     0.88321   0.50339   0.11128   0.00000  Uiso   1.00
C331   C     0.72693   0.53605   0.46043   0.00000  Uiso   1.00
C332   C     0.94711   0.49281   0.03516   0.00000  Uiso   1.00
C333   C     0.73834   0.52303   0.41446   0.00000  Uiso   1.00
C334   C     0.93192   0.49371   0.08349   0.00000  Uiso   1.00
C335   C     0.81761   0.49927   0.40973   0.00000  Uiso   1.00
C336   C     0.85082   0.51471   0.09059   0.00000  Uiso   1.00
C337   C     0.80867   0.51511   0.45425   0.00000  Uiso   1.00
C338   C     0.86525   0.51469   0.04224   0.00000  Uiso   1.00
C339   C     0.76181   0.53233   0.48048   0.00000  Uiso   1.00
C340   C     0.91392   0.50233   0.01438   0.00000  Uiso   1.00
C341   C     0.84497   0.51367   0.47338   0.00000  Uiso   1.00
C342   C     0.83144   0.52340   0.02125   0.00000  Uiso   1.00
H343   H     0.71514   0.55968   0.04646   0.00000  Uiso   1.00
H344   H     0.96576   0.49005   0.44440   0.00000  Uiso   1.00
H345   H     0.81343   0.52123   0.11306   0.00000  Uiso   1.00
H346   H     0.85098   0.48241   0.39017   0.00000  Uiso   1.00
H347   H     0.95765   0.48538   0.09899   0.00000  Uiso   1.00
H348   H     0.71194   0.52778   0.39886   0.00000  Uiso   1.00
H349   H     0.69139   0.55006   0.47986   0.00000  Uiso   1.00
H350   H     0.98427   0.48319   0.01415   0.00000  Uiso   1.00
H351   H     0.77346   0.55291   0.08171   0.00000  Uiso   1.00
H352   H     0.90840   0.50029   0.40860   0.00000  Uiso   1.00
H353   H     0.89460   0.62876   0.27162   0.00000  Uiso   1.00
H354   H     0.77211   0.37123   0.22830   0.00000  Uiso   1.00
H355   H     0.89509   0.37065   0.27105   0.00000  Uiso   1.00
H356   H     0.77165   0.62935   0.22883   0.00000  Uiso   1.00
H357   H     0.73062   0.45258   0.19852   0.00000  Uiso   1.00
H358   H     0.93604   0.54748   0.30135   0.00000  Uiso   1.00
N359   N     0.71426   0.50001   0.25001   0.00000  Uiso   1.00
N360   N     0.95241   0.49999   0.24999   0.00000  Uiso   1.00
O361   O     0.79512   0.56108   0.25000   0.00000  Uiso   1.00
O362   O     0.87154   0.43892   0.25000   0.00000  Uiso   1.00
O363   O     0.87157   0.56107   0.25000   0.00000  Uiso   1.00
O364   O     0.79510   0.43893   0.25000   0.00000  Uiso   1.00
O365   O     0.77328   0.50001   0.31612   0.00000  Uiso   1.00
O366   O     0.89339   0.49999   0.18388   0.00000  Uiso   1.00
O367   O     0.84972   0.50000   0.31612   0.00000  Uiso   1.00
O368   O     0.81695   0.50000   0.18388   0.00000  Uiso   1.00
Zn369  Zn    0.78229   0.50001   0.25000   0.00000  Uiso   1.00
Zn370  Zn    0.88438   0.49999   0.25000   0.00000  Uiso   1.00
I371   I     0.97707   0.43135   0.17387   0.00000  Uiso   1.00
I372   I     0.68977   0.57028   0.32443   0.00000  Uiso   1.00
C373   C     0.16649   0.91332   0.25016   0.00000  Uiso   1.00
C374   C     0.16685   0.75335   0.24982   0.00000  Uiso   1.00
C375   C     0.11786   0.87444   0.04650   0.00000  Uiso   1.00
C376   C     0.22782   0.83689   0.44605   0.00000  Uiso   1.00
C377   C     0.08392   0.87920   0.02613   0.00000  Uiso   1.00
C378   C     0.26175   0.83184   0.46631   0.00000  Uiso   1.00
C379   C     0.20125   0.97850   0.26195   0.00000  Uiso   1.00
C380   C     0.13214   0.68816   0.23797   0.00000  Uiso   1.00
C381   C     0.20159   0.68783   0.26159   0.00000  Uiso   1.00
C382   C     0.13181   0.97883   0.23830   0.00000  Uiso   1.00
C383   C     0.16700   0.70917   0.24966   0.00000  Uiso   1.00
C384   C     0.16638   0.95749   0.25027   0.00000  Uiso   1.00
C385   C     0.32189   0.80690   0.22110   0.00000  Uiso   1.00
C386   C     0.01148   0.85997   0.27865   0.00000  Uiso   1.00
C387   C     0.03613   0.80695   0.22139   0.00000  Uiso   1.00
C388   C     0.29719   0.85972   0.27858   0.00000  Uiso   1.00
C389   C     0.13609   0.83349   0.33806   0.00000  Uiso   1.00
C390   C     0.19729   0.83395   0.16200   0.00000  Uiso   1.00
C391   C     0.11769   0.83889   0.38866   0.00000  Uiso   1.00
C392   C     0.21654   0.83672   0.11128   0.00000  Uiso   1.00
C393   C     0.06026   0.86938   0.46043   0.00000  Uiso   1.00
C394   C     0.28044   0.82614   0.03516   0.00000  Uiso   1.00
C395   C     0.07167   0.85636   0.41446   0.00000  Uiso   1.00
C396   C     0.26525   0.82704   0.08349   0.00000  Uiso   1.00
C397   C     0.15094   0.83260   0.40973   0.00000  Uiso   1.00
C398   C     0.18415   0.84805   0.09059   0.00000  Uiso   1.00
C399   C     0.14201   0.84844   0.45425   0.00000  Uiso   1.00
C400   C     0.19859   0.84803   0.04224   0.00000  Uiso   1.00
C401   C     0.09515   0.86566   0.48048   0.00000  Uiso   1.00
C402   C     0.24725   0.83566   0.01438   0.00000  Uiso   1.00
C403   C     0.17831   0.84700   0.47338   0.00000  Uiso   1.00
C404   C     0.16478   0.85673   0.02125   0.00000  Uiso   1.00
H405   H     0.04848   0.89301   0.04646   0.00000  Uiso   1.00
H406   H     0.29910   0.82339   0.44440   0.00000  Uiso   1.00
H407   H     0.14676   0.85457   0.11306   0.00000  Uiso   1.00
H408   H     0.18431   0.81574   0.39017   0.00000  Uiso   1.00
H409   H     0.29099   0.81872   0.09899   0.00000  Uiso   1.00
H410   H     0.04528   0.86111   0.39886   0.00000  Uiso   1.00
H411   H     0.02473   0.88339   0.47986   0.00000  Uiso   1.00
H412   H     0.31760   0.81652   0.01415   0.00000  Uiso   1.00
H413   H     0.10680   0.88624   0.08171   0.00000  Uiso   1.00
H414   H     0.24174   0.83363   0.40860   0.00000  Uiso   1.00
H415   H     0.22793   0.96210   0.27162   0.00000  Uiso   1.00
H416   H     0.10545   0.70457   0.22830   0.00000  Uiso   1.00
H417   H     0.22843   0.70398   0.27105   0.00000  Uiso   1.00
H418   H     0.10499   0.96268   0.22883   0.00000  Uiso   1.00
H419   H     0.06395   0.78592   0.19852   0.00000  Uiso   1.00
H420   H     0.26937   0.88082   0.30135   0.00000  Uiso   1.00
N421   N     0.04759   0.83334   0.25001   0.00000  Uiso   1.00
N422   N     0.28574   0.83332   0.24999   0.00000  Uiso   1.00
O423   O     0.12846   0.89442   0.25000   0.00000  Uiso   1.00
O424   O     0.20488   0.77225   0.25000   0.00000  Uiso   1.00
O425   O     0.20490   0.89441   0.25000   0.00000  Uiso   1.00
O426   O     0.12843   0.77226   0.25000   0.00000  Uiso   1.00
O427   O     0.10661   0.83334   0.31612   0.00000  Uiso   1.00
O428   O     0.22672   0.83333   0.18388   0.00000  Uiso   1.00
O429   O     0.18305   0.83333   0.31612   0.00000  Uiso   1.00
O430   O     0.15028   0.83334   0.18388   0.00000  Uiso   1.00
Zn431  Zn    0.11562   0.83334   0.25000   0.00000  Uiso   1.00
Zn432  Zn    0.21771   0.83333   0.25000   0.00000  Uiso   1.00
I433   I     0.31040   0.76468   0.17387   0.00000  Uiso   1.00
I434   I     0.02310   0.90362   0.32443   0.00000  Uiso   1.00
C435   C     0.49983   0.91332   0.25016   0.00000  Uiso   1.00
C436   C     0.50018   0.75335   0.24982   0.00000  Uiso   1.00
C437   C     0.45119   0.87444   0.04650   0.00000  Uiso   1.00
C438   C     0.56115   0.83689   0.44605   0.00000  Uiso   1.00
C439   C     0.41726   0.87920   0.02613   0.00000  Uiso   1.00
C440   C     0.59509   0.83184   0.46631   0.00000  Uiso   1.00
C441   C     0.53458   0.97850   0.26195   0.00000  Uiso   1.00
C442   C     0.46547   0.68816   0.23797   0.00000  Uiso   1.00
C443   C     0.53492   0.68783   0.26159   0.00000  Uiso   1.00
C444   C     0.46514   0.97883   0.23830   0.00000  Uiso   1.00
C445   C     0.50033   0.70917   0.24966   0.00000  Uiso   1.00
C446   C     0.49971   0.95749   0.25027   0.00000  Uiso   1.00
C447   C     0.65522   0.80690   0.22110   0.00000  Uiso   1.00
C448   C     0.34481   0.85997   0.27865   0.00000  Uiso   1.00
C449   C     0.36946   0.80695   0.22139   0.00000  Uiso   1.00
C450   C     0.63052   0.85972   0.27858   0.00000  Uiso   1.00
C451   C     0.46942   0.83349   0.33806   0.00000  Uiso   1.00
C452   C     0.53062   0.83395   0.16200   0.00000  Uiso   1.00
C453   C     0.45103   0.83889   0.38866   0.00000  Uiso   1.00
C454   C     0.54988   0.83672   0.11128   0.00000  Uiso   1.00
C455   C     0.39360   0.86938   0.46043   0.00000  Uiso   1.00
C456   C     0.61377   0.82614   0.03516   0.00000  Uiso   1.00
C457   C     0.40500   0.85636   0.41446   0.00000  Uiso   1.00
C458   C     0.59859   0.82704   0.08349   0.00000  Uiso   1.00
C459   C     0.48427   0.83260   0.40973   0.00000  Uiso   1.00
C460   C     0.51748   0.84805   0.09059   0.00000  Uiso   1.00
C461   C     0.47534   0.84844   0.45425   0.00000  Uiso   1.00
C462   C     0.53192   0.84803   0.04224   0.00000  Uiso   1.00
C463   C     0.42848   0.86566   0.48048   0.00000  Uiso   1.00
C464   C     0.58058   0.83566   0.01438   0.00000  Uiso   1.00
C465   C     0.51164   0.84700   0.47338   0.00000  Uiso   1.00
C466   C     0.49811   0.85673   0.02125   0.00000  Uiso   1.00
H467   H     0.38181   0.89301   0.04646   0.00000  Uiso   1.00
H468   H     0.63243   0.82339   0.44440   0.00000  Uiso   1.00
H469   H     0.48010   0.85457   0.11306   0.00000  Uiso   1.00
H470   H     0.51765   0.81574   0.39017   0.00000  Uiso   1.00
H471   H     0.62432   0.81872   0.09899   0.00000  Uiso   1.00
H472   H     0.37861   0.86111   0.39886   0.00000  Uiso   1.00
H473   H     0.35806   0.88339   0.47986   0.00000  Uiso   1.00
H474   H     0.65094   0.81652   0.01415   0.00000  Uiso   1.00
H475   H     0.44013   0.88624   0.08171   0.00000  Uiso   1.00
H476   H     0.57507   0.83363   0.40860   0.00000  Uiso   1.00
H477   H     0.56126   0.96210   0.27162   0.00000  Uiso   1.00
H478   H     0.43878   0.70457   0.22830   0.00000  Uiso   1.00
H479   H     0.56176   0.70398   0.27105   0.00000  Uiso   1.00
H480   H     0.43832   0.96268   0.22883   0.00000  Uiso   1.00
H481   H     0.39729   0.78592   0.19852   0.00000  Uiso   1.00
H482   H     0.60271   0.88082   0.30135   0.00000  Uiso   1.00
N483   N     0.38093   0.83334   0.25001   0.00000  Uiso   1.00
N484   N     0.61907   0.83332   0.24999   0.00000  Uiso   1.00
O485   O     0.46179   0.89442   0.25000   0.00000  Uiso   1.00
O486   O     0.53821   0.77225   0.25000   0.00000  Uiso   1.00
O487   O     0.53823   0.89441   0.25000   0.00000  Uiso   1.00
O488   O     0.46177   0.77226   0.25000   0.00000  Uiso   1.00
O489   O     0.43994   0.83334   0.31612   0.00000  Uiso   1.00
O490   O     0.56006   0.83333   0.18388   0.00000  Uiso   1.00
O491   O     0.51639   0.83333   0.31612   0.00000  Uiso   1.00
O492   O     0.48361   0.83334   0.18388   0.00000  Uiso   1.00
Zn493  Zn    0.44896   0.83334   0.25000   0.00000  Uiso   1.00
Zn494  Zn    0.55104   0.83333   0.25000   0.00000  Uiso   1.00
I495   I     0.64374   0.76468   0.17387   0.00000  Uiso   1.00
I496   I     0.35644   0.90362   0.32443   0.00000  Uiso   1.00
C497   C     0.83316   0.91332   0.25016   0.00000  Uiso   1.00
C498   C     0.83352   0.75335   0.24982   0.00000  Uiso   1.00
C499   C     0.78453   0.87444   0.04650   0.00000  Uiso   1.00
C500   C     0.89449   0.83689   0.44605   0.00000  Uiso   1.00
C501   C     0.75059   0.87920   0.02613   0.00000  Uiso   1.00
C502   C     0.92842   0.83184   0.46631   0.00000  Uiso   1.00
C503   C     0.86791   0.97850   0.26195   0.00000  Uiso   1.00
C504   C     0.79880   0.68816   0.23797   0.00000  Uiso   1.00
C505   C     0.86825   0.68783   0.26159   0.00000  Uiso   1.00
C506   C     0.79848   0.97883   0.23830   0.00000  Uiso   1.00
C507   C     0.83366   0.70917   0.24966   0.00000  Uiso   1.00
C508   C     0.83304   0.95749   0.25027   0.00000  Uiso   1.00
C509   C     0.98856   0.80690   0.22110   0.00000  Uiso   1.00
C510   C     0.67815   0.85997   0.27865   0.00000  Uiso   1.00
C511   C     0.70279   0.80695   0.22139   0.00000  Uiso   1.00
C512   C     0.96385   0.85972   0.27858   0.00000  Uiso   1.00
C513   C     0.80275   0.83349   0.33806   0.00000  Uiso   1.00
C514   C     0.86395   0.83395   0.16200   0.00000  Uiso   1.00
C515   C     0.78436   0.83889   0.38866   0.00000  Uiso   1.00
C516   C     0.88321   0.83672   0.11128   0.00000  Uiso   1.00
C517   C     0.72693   0.86938   0.46043   0.00000  Uiso   1.00
C518   C     0.94711   0.82614   0.03516   0.00000  Uiso   1.00
C519   C     0.73834   0.85636   0.41446   0.00000  Uiso   1.00
C520   C     0.93192   0.82704   0.08349   0.00000  Uiso   1.00
C521   C     0.81761   0.83260   0.40973   0.00000  Uiso   1.00
C522   C     0.85082   0.84805   0.09059   0.00000  Uiso   1.00
C523   C     0.80867   0.84844   0.45425   0.00000  Uiso   1.00
C524   C     0.86525   0.84803   0.04224   0.00000  Uiso   1.00
C525   C     0.76181   0.86566   0.48048   0.00000  Uiso   1.00
C526   C     0.91392   0.83566   0.01438   0.00000  Uiso   1.00
C527   C     0.84497   0.84700   0.47338   0.00000  Uiso   1.00
C528   C     0.83144   0.85673   0.02125   0.00000  Uiso   1.00
H529   H     0.71514   0.89301   0.04646   0.00000  Uiso   1.00
H530   H     0.96576   0.82339   0.44440   0.00000  Uiso   1.00
H531   H     0.81343   0.85457   0.11306   0.00000  Uiso   1.00
H532   H     0.85098   0.81574   0.39017   0.00000  Uiso   1.00
H533   H     0.95765   0.81872   0.09899   0.00000  Uiso   1.00
H534   H     0.71194   0.86111   0.39886   0.00000  Uiso   1.00
H535   H     0.69139   0.88339   0.47986   0.00000  Uiso   1.00
H536   H     0.98427   0.81652   0.01415   0.00000  Uiso   1.00
H537   H     0.77346   0.88624   0.08171   0.00000  Uiso   1.00
H538   H     0.90840   0.83363   0.40860   0.00000  Uiso   1.00
H539   H     0.89460   0.96210   0.27162   0.00000  Uiso   1.00
H540   H     0.77211   0.70457   0.22830   0.00000  Uiso   1.00
H541   H     0.89509   0.70398   0.27105   0.00000  Uiso   1.00
H542   H     0.77165   0.96268   0.22883   0.00000  Uiso   1.00
H543   H     0.73062   0.78592   0.19852   0.00000  Uiso   1.00
H544   H     0.93604   0.88082   0.30135   0.00000  Uiso   1.00
N545   N     0.71426   0.83334   0.25001   0.00000  Uiso   1.00
N546   N     0.95241   0.83332   0.24999   0.00000  Uiso   1.00
O547   O     0.79512   0.89442   0.25000   0.00000  Uiso   1.00
O548   O     0.87154   0.77225   0.25000   0.00000  Uiso   1.00
O549   O     0.87157   0.89441   0.25000   0.00000  Uiso   1.00
O550   O     0.79510   0.77226   0.25000   0.00000  Uiso   1.00
O551   O     0.77328   0.83334   0.31612   0.00000  Uiso   1.00
O552   O     0.89339   0.83333   0.18388   0.00000  Uiso   1.00
O553   O     0.84972   0.83333   0.31612   0.00000  Uiso   1.00
O554   O     0.81695   0.83334   0.18388   0.00000  Uiso   1.00
Zn555  Zn    0.78229   0.83334   0.25000   0.00000  Uiso   1.00
Zn556  Zn    0.88438   0.83333   0.25000   0.00000  Uiso   1.00
I557   I     0.97707   0.76468   0.17387   0.00000  Uiso   1.00
I558   I     0.68977   0.90362   0.32443   0.00000  Uiso   1.00
C559   C     0.16649   0.24665   0.75016   0.00000  Uiso   1.00
C560   C     0.16685   0.08668   0.74982   0.00000  Uiso   1.00
C561   C     0.11786   0.20777   0.54650   0.00000  Uiso   1.00
C562   C     0.22782   0.17023   0.94605   0.00000  Uiso   1.00
C563   C     0.08392   0.21254   0.52613   0.00000  Uiso   1.00
C564   C     0.26175   0.16518   0.96631   0.00000  Uiso   1.00
C565   C     0.20125   0.31184   0.76195   0.00000  Uiso   1.00
C566   C     0.13214   0.02149   0.73797   0.00000  Uiso   1.00
C567   C     0.20159   0.02116   0.76159   0.00000  Uiso   1.00
C568   C     0.13181   0.31217   0.73830   0.00000  Uiso   1.00
C569   C     0.16700   0.04250   0.74966   0.00000  Uiso   1.00
C570   C     0.16638   0.29083   0.75027   0.00000  Uiso   1.00
C571   C     0.32189   0.14024   0.72110   0.00000  Uiso   1.00
C572   C     0.01148   0.19330   0.77865   0.00000  Uiso   1.00
C573   C     0.03613   0.14029   0.72139   0.00000  Uiso   1.00
C574   C     0.29719   0.19305   0.77858   0.00000  Uiso   1.00
C575   C     0.13609   0.16682   0.83806   0.00000  Uiso   1.00
C576   C     0.19729   0.16728   0.66200   0.00000  Uiso   1.00
C577   C     0.11769   0.17223   0.88866   0.00000  Uiso   1.00
C578   C     0.21654   0.17005   0.61128   0.00000  Uiso   1.00
C579   C     0.06026   0.20272   0.96043   0.00000  Uiso   1.00
C580   C     0.28044   0.15947   0.53516   0.00000  Uiso   1.00
C581   C     0.07167   0.18969   0.91446   0.00000  Uiso   1.00
C582   C     0.26525   0.16038   0.58349   0.00000  Uiso   1.00
C583   C     0.15094   0.16594   0.90973   0.00000  Uiso   1.00
C584   C     0.18415   0.18138   0.59059   0.00000  Uiso   1.00
C585   C     0.14201   0.18178   0.95425   0.00000  Uiso   1.00
C586   C     0.19859   0.18136   0.54224   0.00000  Uiso   1.00
C587   C     0.09515   0.19899   0.98048   0.00000  Uiso   1.00
C588   C     0.24725   0.16900   0.51438   0.00000  Uiso   1.00
C589   C     0.17831   0.18033   0.97338   0.00000  Uiso   1.00
C590   C     0.16478   0.19006   0.52125   0.00000  Uiso   1.00
H591   H     0.04848   0.22634   0.54646   0.00000  Uiso   1.00
H592   H     0.29910   0.15672   0.94440   0.00000  Uiso   1.00
H593   H     0.14676   0.18790   0.61306   0.00000  Uiso   1.00
H594   H     0.18431   0.14908   0.89017   0.00000  Uiso   1.00
H595   H     0.29099   0.15205   0.59899   0.00000  Uiso   1.00
H596   H     0.04528   0.19444   0.89886   0.00000  Uiso   1.00
H597   H     0.02473   0.21673   0.97986   0.00000  Uiso   1.00
H598   H     0.31760   0.14985   0.51415   0.00000  Uiso   1.00
H599   H     0.10680   0.21957   0.58171   0.00000  Uiso   1.00
H600   H     0.24174   0.16696   0.90860   0.00000  Uiso   1.00
H601   H     0.22793   0.29543   0.77162   0.00000  Uiso   1.00
H602   H     0.10545   0.03790   0.72830   0.00000  Uiso   1.00
H603   H     0.22843   0.03731   0.77105   0.00000  Uiso   1.00
H604   H     0.10499   0.29601   0.72883   0.00000  Uiso   1.00
H605   H     0.06395   0.11925   0.69852   0.00000  Uiso   1.00
H606   H     0.26937   0.21415   0.80135   0.00000  Uiso   1.00
N607   N     0.04759   0.16668   0.75001   0.00000  Uiso   1.00
N608   N     0.28574   0.16666   0.74999   0.00000  Uiso   1.00
O609   O     0.12846   0.22775   0.75000   0.00000  Uiso   1.00
O610   O     0.20488   0.10558   0.75000   0.00000  Uiso   1.00
O611   O     0.20490   0.22774   0.75000   0.00000  Uiso   1.00
O612   O     0.12843   0.10559   0.75000   0.00000  Uiso   1.00
O613   O     0.10661   0.16667   0.81612   0.00000  Uiso   1.00
O614   O     0.22672   0.16666   0.68388   0.00000  Uiso   1.00
O615   O     0.18305   0.16666   0.81612   0.00000  Uiso   1.00
O616   O     0.15028   0.16667   0.68388   0.00000  Uiso   1.00
Zn617  Zn    0.11562   0.16667   0.75000   0.00000  Uiso   1.00
Zn618  Zn    0.21771   0.16666   0.75000   0.00000  Uiso   1.00
I619   I     0.31040   0.09801   0.67387   0.00000  Uiso   1.00
I620   I     0.02310   0.23695   0.82443   0.00000  Uiso   1.00
C621   C     0.49983   0.24665   0.75016   0.00000  Uiso   1.00
C622   C     0.50018   0.08668   0.74982   0.00000  Uiso   1.00
C623   C     0.45119   0.20777   0.54650   0.00000  Uiso   1.00
C624   C     0.56115   0.17023   0.94605   0.00000  Uiso   1.00
C625   C     0.41726   0.21254   0.52613   0.00000  Uiso   1.00
C626   C     0.59509   0.16518   0.96631   0.00000  Uiso   1.00
C627   C     0.53458   0.31184   0.76195   0.00000  Uiso   1.00
C628   C     0.46547   0.02149   0.73797   0.00000  Uiso   1.00
C629   C     0.53492   0.02116   0.76159   0.00000  Uiso   1.00
C630   C     0.46514   0.31217   0.73830   0.00000  Uiso   1.00
C631   C     0.50033   0.04250   0.74966   0.00000  Uiso   1.00
C632   C     0.49971   0.29083   0.75027   0.00000  Uiso   1.00
C633   C     0.65522   0.14024   0.72110   0.00000  Uiso   1.00
C634   C     0.34481   0.19330   0.77865   0.00000  Uiso   1.00
C635   C     0.36946   0.14029   0.72139   0.00000  Uiso   1.00
C636   C     0.63052   0.19305   0.77858   0.00000  Uiso   1.00
C637   C     0.46942   0.16682   0.83806   0.00000  Uiso   1.00
C638   C     0.53062   0.16728   0.66200   0.00000  Uiso   1.00
C639   C     0.45103   0.17223   0.88866   0.00000  Uiso   1.00
C640   C     0.54988   0.17005   0.61128   0.00000  Uiso   1.00
C641   C     0.39360   0.20272   0.96043   0.00000  Uiso   1.00
C642   C     0.61377   0.15947   0.53516   0.00000  Uiso   1.00
C643   C     0.40500   0.18969   0.91446   0.00000  Uiso   1.00
C644   C     0.59859   0.16038   0.58349   0.00000  Uiso   1.00
C645   C     0.48427   0.16594   0.90973   0.00000  Uiso   1.00
C646   C     0.51748   0.18138   0.59059   0.00000  Uiso   1.00
C647   C     0.47534   0.18178   0.95425   0.00000  Uiso   1.00
C648   C     0.53192   0.18136   0.54224   0.00000  Uiso   1.00
C649   C     0.42848   0.19899   0.98048   0.00000  Uiso   1.00
C650   C     0.58058   0.16900   0.51438   0.00000  Uiso   1.00
C651   C     0.51164   0.18033   0.97338   0.00000  Uiso   1.00
C652   C     0.49811   0.19006   0.52125   0.00000  Uiso   1.00
H653   H     0.38181   0.22634   0.54646   0.00000  Uiso   1.00
H654   H     0.63243   0.15672   0.94440   0.00000  Uiso   1.00
H655   H     0.48010   0.18790   0.61306   0.00000  Uiso   1.00
H656   H     0.51765   0.14908   0.89017   0.00000  Uiso   1.00
H657   H     0.62432   0.15205   0.59899   0.00000  Uiso   1.00
H658   H     0.37861   0.19444   0.89886   0.00000  Uiso   1.00
H659   H     0.35806   0.21673   0.97986   0.00000  Uiso   1.00
H660   H     0.65094   0.14985   0.51415   0.00000  Uiso   1.00
H661   H     0.44013   0.21957   0.58171   0.00000  Uiso   1.00
H662   H     0.57507   0.16696   0.90860   0.00000  Uiso   1.00
H663   H     0.56126   0.29543   0.77162   0.00000  Uiso   1.00
H664   H     0.43878   0.03790   0.72830   0.00000  Uiso   1.00
H665   H     0.56176   0.03731   0.77105   0.00000  Uiso   1.00
H666   H     0.43832   0.29601   0.72883   0.00000  Uiso   1.00
H667   H     0.39729   0.11925   0.69852   0.00000  Uiso   1.00
H668   H     0.60271   0.21415   0.80135   0.00000  Uiso   1.00
N669   N     0.38093   0.16668   0.75001   0.00000  Uiso   1.00
N670   N     0.61907   0.16666   0.74999   0.00000  Uiso   1.00
O671   O     0.46179   0.22775   0.75000   0.00000  Uiso   1.00
O672   O     0.53821   0.10558   0.75000   0.00000  Uiso   1.00
O673   O     0.53823   0.22774   0.75000   0.00000  Uiso   1.00
O674   O     0.46177   0.10559   0.75000   0.00000  Uiso   1.00
O675   O     0.43994   0.16667   0.81612   0.00000  Uiso   1.00
O676   O     0.56006   0.16666   0.68388   0.00000  Uiso   1.00
O677   O     0.51639   0.16666   0.81612   0.00000  Uiso   1.00
O678   O     0.48361   0.16667   0.68388   0.00000  Uiso   1.00
Zn679  Zn    0.44896   0.16667   0.75000   0.00000  Uiso   1.00
Zn680  Zn    0.55104   0.16666   0.75000   0.00000  Uiso   1.00
I681   I     0.64374   0.09801   0.67387   0.00000  Uiso   1.00
I682   I     0.35644   0.23695   0.82443   0.00000  Uiso   1.00
C683   C     0.83316   0.24665   0.75016   0.00000  Uiso   1.00
C684   C     0.83352   0.08668   0.74982   0.00000  Uiso   1.00
C685   C     0.78453   0.20777   0.54650   0.00000  Uiso   1.00
C686   C     0.89449   0.17023   0.94605   0.00000  Uiso   1.00
C687   C     0.75059   0.21254   0.52613   0.00000  Uiso   1.00
C688   C     0.92842   0.16518   0.96631   0.00000  Uiso   1.00
C689   C     0.86791   0.31184   0.76195   0.00000  Uiso   1.00
C690   C     0.79880   0.02149   0.73797   0.00000  Uiso   1.00
C691   C     0.86825   0.02116   0.76159   0.00000  Uiso   1.00
C692   C     0.79848   0.31217   0.73830   0.00000  Uiso   1.00
C693   C     0.83366   0.04250   0.74966   0.00000  Uiso   1.00
C694   C     0.83304   0.29083   0.75027   0.00000  Uiso   1.00
C695   C     0.98856   0.14024   0.72110   0.00000  Uiso   1.00
C696   C     0.67815   0.19330   0.77865   0.00000  Uiso   1.00
C697   C     0.70279   0.14029   0.72139   0.00000  Uiso   1.00
C698   C     0.96385   0.19305   0.77858   0.00000  Uiso   1.00
C699   C     0.80275   0.16682   0.83806   0.00000  Uiso   1.00
C700   C     0.86395   0.16728   0.66200   0.00000  Uiso   1.00
C701   C     0.78436   0.17223   0.88866   0.00000  Uiso   1.00
C702   C     0.88321   0.17005   0.61128   0.00000  Uiso   1.00
C703   C     0.72693   0.20272   0.96043   0.00000  Uiso   1.00
C704   C     0.94711   0.15947   0.53516   0.00000  Uiso   1.00
C705   C     0.73834   0.18969   0.91446   0.00000  Uiso   1.00
C706   C     0.93192   0.16038   0.58349   0.00000  Uiso   1.00
C707   C     0.81761   0.16594   0.90973   0.00000  Uiso   1.00
C708   C     0.85082   0.18138   0.59059   0.00000  Uiso   1.00
C709   C     0.80867   0.18178   0.95425   0.00000  Uiso   1.00
C710   C     0.86525   0.18136   0.54224   0.00000  Uiso   1.00
C711   C     0.76181   0.19899   0.98048   0.00000  Uiso   1.00
C712   C     0.91392   0.16900   0.51438   0.00000  Uiso   1.00
C713   C     0.84497   0.18033   0.97338   0.00000  Uiso   1.00
C714   C     0.83144   0.19006   0.52125   0.00000  Uiso   1.00
H715   H     0.71514   0.22634   0.54646   0.00000  Uiso   1.00
H716   H     0.96576   0.15672   0.94440   0.00000  Uiso   1.00
H717   H     0.81343   0.18790   0.61306   0.00000  Uiso   1.00
H718   H     0.85098   0.14908   0.89017   0.00000  Uiso   1.00
H719   H     0.95765   0.15205   0.59899   0.00000  Uiso   1.00
H720   H     0.71194   0.19444   0.89886   0.00000  Uiso   1.00
H721   H     0.69139   0.21673   0.97986   0.00000  Uiso   1.00
H722   H     0.98427   0.14985   0.51415   0.00000  Uiso   1.00
H723   H     0.77346   0.21957   0.58171   0.00000  Uiso   1.00
H724   H     0.90840   0.16696   0.90860   0.00000  Uiso   1.00
H725   H     0.89460   0.29543   0.77162   0.00000  Uiso   1.00
H726   H     0.77211   0.03790   0.72830   0.00000  Uiso   1.00
H727   H     0.89509   0.03731   0.77105   0.00000  Uiso   1.00
H728   H     0.77165   0.29601   0.72883   0.00000  Uiso   1.00
H729   H     0.73062   0.11925   0.69852   0.00000  Uiso   1.00
H730   H     0.93604   0.21415   0.80135   0.00000  Uiso   1.00
N731   N     0.71426   0.16668   0.75001   0.00000  Uiso   1.00
N732   N     0.95241   0.16666   0.74999   0.00000  Uiso   1.00
O733   O     0.79512   0.22775   0.75000   0.00000  Uiso   1.00
O734   O     0.87154   0.10558   0.75000   0.00000  Uiso   1.00
O735   O     0.87157   0.22774   0.75000   0.00000  Uiso   1.00
O736   O     0.79510   0.10559   0.75000   0.00000  Uiso   1.00
O737   O     0.77328   0.16667   0.81612   0.00000  Uiso   1.00
O738   O     0.89339   0.16666   0.68388   0.00000  Uiso   1.00
O739   O     0.84972   0.16666   0.81612   0.00000  Uiso   1.00
O740   O     0.81695   0.16667   0.68388   0.00000  Uiso   1.00
Zn741  Zn    0.78229   0.16667   0.75000   0.00000  Uiso   1.00
Zn742  Zn    0.88438   0.16666   0.75000   0.00000  Uiso   1.00
I743   I     0.97707   0.09801   0.67387   0.00000  Uiso   1.00
I744   I     0.68977   0.23695   0.82443   0.00000  Uiso   1.00
C745   C     0.16649   0.57999   0.75016   0.00000  Uiso   1.00
C746   C     0.16685   0.42001   0.74982   0.00000  Uiso   1.00
C747   C     0.11786   0.54110   0.54650   0.00000  Uiso   1.00
C748   C     0.22782   0.50356   0.94605   0.00000  Uiso   1.00
C749   C     0.08392   0.54587   0.52613   0.00000  Uiso   1.00
C750   C     0.26175   0.49851   0.96631   0.00000  Uiso   1.00
C751   C     0.20125   0.64517   0.76195   0.00000  Uiso   1.00
C752   C     0.13214   0.35482   0.73797   0.00000  Uiso   1.00
C753   C     0.20159   0.35449   0.76159   0.00000  Uiso   1.00
C754   C     0.13181   0.64550   0.73830   0.00000  Uiso   1.00
C755   C     0.16700   0.37584   0.74966   0.00000  Uiso   1.00
C756   C     0.16638   0.62416   0.75027   0.00000  Uiso   1.00
C757   C     0.32189   0.47357   0.72110   0.00000  Uiso   1.00
C758   C     0.01148   0.52663   0.77865   0.00000  Uiso   1.00
C759   C     0.03613   0.47362   0.72139   0.00000  Uiso   1.00
C760   C     0.29719   0.52638   0.77858   0.00000  Uiso   1.00
C761   C     0.13609   0.50015   0.83806   0.00000  Uiso   1.00
C762   C     0.19729   0.50061   0.66200   0.00000  Uiso   1.00
C763   C     0.11769   0.50556   0.88866   0.00000  Uiso   1.00
C764   C     0.21654   0.50339   0.61128   0.00000  Uiso   1.00
C765   C     0.06026   0.53605   0.96043   0.00000  Uiso   1.00
C766   C     0.28044   0.49281   0.53516   0.00000  Uiso   1.00
C767   C     0.07167   0.52303   0.91446   0.00000  Uiso   1.00
C768   C     0.26525   0.49371   0.58349   0.00000  Uiso   1.00
C769   C     0.15094   0.49927   0.90973   0.00000  Uiso   1.00
C770   C     0.18415   0.51471   0.59059   0.00000  Uiso   1.00
C771   C     0.14201   0.51511   0.95425   0.00000  Uiso   1.00
C772   C     0.19859   0.51469   0.54224   0.00000  Uiso   1.00
C773   C     0.09515   0.53233   0.98048   0.00000  Uiso   1.00
C774   C     0.24725   0.50233   0.51438   0.00000  Uiso   1.00
C775   C     0.17831   0.51367   0.97338   0.00000  Uiso   1.00
C776   C     0.16478   0.52340   0.52125   0.00000  Uiso   1.00
H777   H     0.04848   0.55968   0.54646   0.00000  Uiso   1.00
H778   H     0.29910   0.49005   0.94440   0.00000  Uiso   1.00
H779   H     0.14676   0.52123   0.61306   0.00000  Uiso   1.00
H780   H     0.18431   0.48241   0.89017   0.00000  Uiso   1.00
H781   H     0.29099   0.48538   0.59899   0.00000  Uiso   1.00
H782   H     0.04528   0.52778   0.89886   0.00000  Uiso   1.00
H783   H     0.02473   0.55006   0.97986   0.00000  Uiso   1.00
H784   H     0.31760   0.48319   0.51415   0.00000  Uiso   1.00
H785   H     0.10680   0.55291   0.58171   0.00000  Uiso   1.00
H786   H     0.24174   0.50029   0.90860   0.00000  Uiso   1.00
H787   H     0.22793   0.62876   0.77162   0.00000  Uiso   1.00
H788   H     0.10545   0.37123   0.72830   0.00000  Uiso   1.00
H789   H     0.22843   0.37065   0.77105   0.00000  Uiso   1.00
H790   H     0.10499   0.62935   0.72883   0.00000  Uiso   1.00
H791   H     0.06395   0.45258   0.69852   0.00000  Uiso   1.00
H792   H     0.26937   0.54748   0.80135   0.00000  Uiso   1.00
N793   N     0.04759   0.50001   0.75001   0.00000  Uiso   1.00
N794   N     0.28574   0.49999   0.74999   0.00000  Uiso   1.00
O795   O     0.12846   0.56108   0.75000   0.00000  Uiso   1.00
O796   O     0.20488   0.43892   0.75000   0.00000  Uiso   1.00
O797   O     0.20490   0.56107   0.75000   0.00000  Uiso   1.00
O798   O     0.12843   0.43893   0.75000   0.00000  Uiso   1.00
O799   O     0.10661   0.50001   0.81612   0.00000  Uiso   1.00
O800   O     0.22672   0.49999   0.68388   0.00000  Uiso   1.00
O801   O     0.18305   0.50000   0.81612   0.00000  Uiso   1.00
O802   O     0.15028   0.50000   0.68388   0.00000  Uiso   1.00
Zn803  Zn    0.11562   0.50001   0.75000   0.00000  Uiso   1.00
Zn804  Zn    0.21771   0.49999   0.75000   0.00000  Uiso   1.00
I805   I     0.31040   0.43135   0.67387   0.00000  Uiso   1.00
I806   I     0.02310   0.57028   0.82443   0.00000  Uiso   1.00
C807   C     0.49983   0.57999   0.75016   0.00000  Uiso   1.00
C808   C     0.50018   0.42001   0.74982   0.00000  Uiso   1.00
C809   C     0.45119   0.54110   0.54650   0.00000  Uiso   1.00
C810   C     0.56115   0.50356   0.94605   0.00000  Uiso   1.00
C811   C     0.41726   0.54587   0.52613   0.00000  Uiso   1.00
C812   C     0.59509   0.49851   0.96631   0.00000  Uiso   1.00
C813   C     0.53458   0.64517   0.76195   0.00000  Uiso   1.00
C814   C     0.46547   0.35482   0.73797   0.00000  Uiso   1.00
C815   C     0.53492   0.35449   0.76159   0.00000  Uiso   1.00
C816   C     0.46514   0.64550   0.73830   0.00000  Uiso   1.00
C817   C     0.50033   0.37584   0.74966   0.00000  Uiso   1.00
C818   C     0.49971   0.62416   0.75027   0.00000  Uiso   1.00
C819   C     0.65522   0.47357   0.72110   0.00000  Uiso   1.00
C820   C     0.34481   0.52663   0.77865   0.00000  Uiso   1.00
C821   C     0.36946   0.47362   0.72139   0.00000  Uiso   1.00
C822   C     0.63052   0.52638   0.77858   0.00000  Uiso   1.00
C823   C     0.46942   0.50015   0.83806   0.00000  Uiso   1.00
C824   C     0.53062   0.50061   0.66200   0.00000  Uiso   1.00
C825   C     0.45103   0.50556   0.88866   0.00000  Uiso   1.00
C826   C     0.54988   0.50339   0.61128   0.00000  Uiso   1.00
C827   C     0.39360   0.53605   0.96043   0.00000  Uiso   1.00
C828   C     0.61377   0.49281   0.53516   0.00000  Uiso   1.00
C829   C     0.40500   0.52303   0.91446   0.00000  Uiso   1.00
C830   C     0.59859   0.49371   0.58349   0.00000  Uiso   1.00
C831   C     0.48427   0.49927   0.90973   0.00000  Uiso   1.00
C832   C     0.51748   0.51471   0.59059   0.00000  Uiso   1.00
C833   C     0.47534   0.51511   0.95425   0.00000  Uiso   1.00
C834   C     0.53192   0.51469   0.54224   0.00000  Uiso   1.00
C835   C     0.42848   0.53233   0.98048   0.00000  Uiso   1.00
C836   C     0.58058   0.50233   0.51438   0.00000  Uiso   1.00
C837   C     0.51164   0.51367   0.97338   0.00000  Uiso   1.00
C838   C     0.49811   0.52340   0.52125   0.00000  Uiso   1.00
H839   H     0.38181   0.55968   0.54646   0.00000  Uiso   1.00
H840   H     0.63243   0.49005   0.94440   0.00000  Uiso   1.00
H841   H     0.48010   0.52123   0.61306   0.00000  Uiso   1.00
H842   H     0.51765   0.48241   0.89017   0.00000  Uiso   1.00
H843   H     0.62432   0.48538   0.59899   0.00000  Uiso   1.00
H844   H     0.37861   0.52778   0.89886   0.00000  Uiso   1.00
H845   H     0.35806   0.55006   0.97986   0.00000  Uiso   1.00
H846   H     0.65094   0.48319   0.51415   0.00000  Uiso   1.00
H847   H     0.44013   0.55291   0.58171   0.00000  Uiso   1.00
H848   H     0.57507   0.50029   0.90860   0.00000  Uiso   1.00
H849   H     0.56126   0.62876   0.77162   0.00000  Uiso   1.00
H850   H     0.43878   0.37123   0.72830   0.00000  Uiso   1.00
H851   H     0.56176   0.37065   0.77105   0.00000  Uiso   1.00
H852   H     0.43832   0.62935   0.72883   0.00000  Uiso   1.00
H853   H     0.39729   0.45258   0.69852   0.00000  Uiso   1.00
H854   H     0.60271   0.54748   0.80135   0.00000  Uiso   1.00
N855   N     0.38093   0.50001   0.75001   0.00000  Uiso   1.00
N856   N     0.61907   0.49999   0.74999   0.00000  Uiso   1.00
O857   O     0.46179   0.56108   0.75000   0.00000  Uiso   1.00
O858   O     0.53821   0.43892   0.75000   0.00000  Uiso   1.00
O859   O     0.53823   0.56107   0.75000   0.00000  Uiso   1.00
O860   O     0.46177   0.43893   0.75000   0.00000  Uiso   1.00
O861   O     0.43994   0.50001   0.81612   0.00000  Uiso   1.00
O862   O     0.56006   0.49999   0.68388   0.00000  Uiso   1.00
O863   O     0.51639   0.50000   0.81612   0.00000  Uiso   1.00
O864   O     0.48361   0.50000   0.68388   0.00000  Uiso   1.00
Zn865  Zn    0.44896   0.50001   0.75000   0.00000  Uiso   1.00
Zn866  Zn    0.55104   0.49999   0.75000   0.00000  Uiso   1.00
I867   I     0.64374   0.43135   0.67387   0.00000  Uiso   1.00
I868   I     0.35644   0.57028   0.82443   0.00000  Uiso   1.00
C869   C     0.83316   0.57999   0.75016   0.00000  Uiso   1.00
C870   C     0.83352   0.42001   0.74982   0.00000  Uiso   1.00
C871   C     0.78453   0.54110   0.54650   0.00000  Uiso   1.00
C872   C     0.89449   0.50356   0.94605   0.00000  Uiso   1.00
C873   C     0.75059   0.54587   0.52613   0.00000  Uiso   1.00
C874   C     0.92842   0.49851   0.96631   0.00000  Uiso   1.00
C875   C     0.86791   0.64517   0.76195   0.00000  Uiso   1.00
C876   C     0.79880   0.35482   0.73797   0.00000  Uiso   1.00
C877   C     0.86825   0.35449   0.76159   0.00000  Uiso   1.00
C878   C     0.79848   0.64550   0.73830   0.00000  Uiso   1.00
C879   C     0.83366   0.37584   0.74966   0.00000  Uiso   1.00
C880   C     0.83304   0.62416   0.75027   0.00000  Uiso   1.00
C881   C     0.98856   0.47357   0.72110   0.00000  Uiso   1.00
C882   C     0.67815   0.52663   0.77865   0.00000  Uiso   1.00
C883   C     0.70279   0.47362   0.72139   0.00000  Uiso   1.00
C884   C     0.96385   0.52638   0.77858   0.00000  Uiso   1.00
C885   C     0.80275   0.50015   0.83806   0.00000  Uiso   1.00
C886   C     0.86395   0.50061   0.66200   0.00000  Uiso   1.00
C887   C     0.78436   0.50556   0.88866   0.00000  Uiso   1.00
C888   C     0.88321   0.50339   0.61128   0.00000  Uiso   1.00
C889   C     0.72693   0.53605   0.96043   0.00000  Uiso   1.00
C890   C     0.94711   0.49281   0.53516   0.00000  Uiso   1.00
C891   C     0.73834   0.52303   0.91446   0.00000  Uiso   1.00
C892   C     0.93192   0.49371   0.58349   0.00000  Uiso   1.00
C893   C     0.81761   0.49927   0.90973   0.00000  Uiso   1.00
C894   C     0.85082   0.51471   0.59059   0.00000  Uiso   1.00
C895   C     0.80867   0.51511   0.95425   0.00000  Uiso   1.00
C896   C     0.86525   0.51469   0.54224   0.00000  Uiso   1.00
C897   C     0.76181   0.53233   0.98048   0.00000  Uiso   1.00
C898   C     0.91392   0.50233   0.51438   0.00000  Uiso   1.00
C899   C     0.84497   0.51367   0.97338   0.00000  Uiso   1.00
C900   C     0.83144   0.52340   0.52125   0.00000  Uiso   1.00
H901   H     0.71514   0.55968   0.54646   0.00000  Uiso   1.00
H902   H     0.96576   0.49005   0.94440   0.00000  Uiso   1.00
H903   H     0.81343   0.52123   0.61306   0.00000  Uiso   1.00
H904   H     0.85098   0.48241   0.89017   0.00000  Uiso   1.00
H905   H     0.95765   0.48538   0.59899   0.00000  Uiso   1.00
H906   H     0.71194   0.52778   0.89886   0.00000  Uiso   1.00
H907   H     0.69139   0.55006   0.97986   0.00000  Uiso   1.00
H908   H     0.98427   0.48319   0.51415   0.00000  Uiso   1.00
H909   H     0.77346   0.55291   0.58171   0.00000  Uiso   1.00
H910   H     0.90840   0.50029   0.90860   0.00000  Uiso   1.00
H911   H     0.89460   0.62876   0.77162   0.00000  Uiso   1.00
H912   H     0.77211   0.37123   0.72830   0.00000  Uiso   1.00
H913   H     0.89509   0.37065   0.77105   0.00000  Uiso   1.00
H914   H     0.77165   0.62935   0.72883   0.00000  Uiso   1.00
H915   H     0.73062   0.45258   0.69852   0.00000  Uiso   1.00
H916   H     0.93604   0.54748   0.80135   0.00000  Uiso   1.00
N917   N     0.71426   0.50001   0.75001   0.00000  Uiso   1.00
N918   N     0.95241   0.49999   0.74999   0.00000  Uiso   1.00
O919   O     0.79512   0.56108   0.75000   0.00000  Uiso   1.00
O920   O     0.87154   0.43892   0.75000   0.00000  Uiso   1.00
O921   O     0.87157   0.56107   0.75000   0.00000  Uiso   1.00
O922   O     0.79510   0.43893   0.75000   0.00000  Uiso   1.00
O923   O     0.77328   0.50001   0.81612   0.00000  Uiso   1.00
O924   O     0.89339   0.49999   0.68388   0.00000  Uiso   1.00
O925   O     0.84972   0.50000   0.81612   0.00000  Uiso   1.00
O926   O     0.81695   0.50000   0.68388   0.00000  Uiso   1.00
Zn927  Zn    0.78229   0.50001   0.75000   0.00000  Uiso   1.00
Zn928  Zn    0.88438   0.49999   0.75000   0.00000  Uiso   1.00
I929   I     0.97707   0.43135   0.67387   0.00000  Uiso   1.00
I930   I     0.68977   0.57028   0.82443   0.00000  Uiso   1.00
C931   C     0.16649   0.91332   0.75016   0.00000  Uiso   1.00
C932   C     0.16685   0.75335   0.74982   0.00000  Uiso   1.00
C933   C     0.11786   0.87444   0.54650   0.00000  Uiso   1.00
C934   C     0.22782   0.83689   0.94605   0.00000  Uiso   1.00
C935   C     0.08392   0.87920   0.52613   0.00000  Uiso   1.00
C936   C     0.26175   0.83184   0.96631   0.00000  Uiso   1.00
C937   C     0.20125   0.97850   0.76195   0.00000  Uiso   1.00
C938   C     0.13214   0.68816   0.73797   0.00000  Uiso   1.00
C939   C     0.20159   0.68783   0.76159   0.00000  Uiso   1.00
C940   C     0.13181   0.97883   0.73830   0.00000  Uiso   1.00
C941   C     0.16700   0.70917   0.74966   0.00000  Uiso   1.00
C942   C     0.16638   0.95749   0.75027   0.00000  Uiso   1.00
C943   C     0.32189   0.80690   0.72110   0.00000  Uiso   1.00
C944   C     0.01148   0.85997   0.77865   0.00000  Uiso   1.00
C945   C     0.03613   0.80695   0.72139   0.00000  Uiso   1.00
C946   C     0.29719   0.85972   0.77858   0.00000  Uiso   1.00
C947   C     0.13609   0.83349   0.83806   0.00000  Uiso   1.00
C948   C     0.19729   0.83395   0.66200   0.00000  Uiso   1.00
C949   C     0.11769   0.83889   0.88866   0.00000  Uiso   1.00
C950   C     0.21654   0.83672   0.61128   0.00000  Uiso   1.00
C951   C     0.06026   0.86938   0.96043   0.00000  Uiso   1.00
C952   C     0.28044   0.82614   0.53516   0.00000  Uiso   1.00
C953   C     0.07167   0.85636   0.91446   0.00000  Uiso   1.00
C954   C     0.26525   0.82704   0.58349   0.00000  Uiso   1.00
C955   C     0.15094   0.83260   0.90973   0.00000  Uiso   1.00
C956   C     0.18415   0.84805   0.59059   0.00000  Uiso   1.00
C957   C     0.14201   0.84844   0.95425   0.00000  Uiso   1.00
C958   C     0.19859   0.84803   0.54224   0.00000  Uiso   1.00
C959   C     0.09515   0.86566   0.98048   0.00000  Uiso   1.00
C960   C     0.24725   0.83566   0.51438   0.00000  Uiso   1.00
C961   C     0.17831   0.84700   0.97338   0.00000  Uiso   1.00
C962   C     0.16478   0.85673   0.52125   0.00000  Uiso   1.00
H963   H     0.04848   0.89301   0.54646   0.00000  Uiso   1.00
H964   H     0.29910   0.82339   0.94440   0.00000  Uiso   1.00
H965   H     0.14676   0.85457   0.61306   0.00000  Uiso   1.00
H966   H     0.18431   0.81574   0.89017   0.00000  Uiso   1.00
H967   H     0.29099   0.81872   0.59899   0.00000  Uiso   1.00
H968   H     0.04528   0.86111   0.89886   0.00000  Uiso   1.00
H969   H     0.02473   0.88339   0.97986   0.00000  Uiso   1.00
H970   H     0.31760   0.81652   0.51415   0.00000  Uiso   1.00
H971   H     0.10680   0.88624   0.58171   0.00000  Uiso   1.00
H972   H     0.24174   0.83363   0.90860   0.00000  Uiso   1.00
H973   H     0.22793   0.96210   0.77162   0.00000  Uiso   1.00
H974   H     0.10545   0.70457   0.72830   0.00000  Uiso   1.00
H975   H     0.22843   0.70398   0.77105   0.00000  Uiso   1.00
H976   H     0.10499   0.96268   0.72883   0.00000  Uiso   1.00
H977   H     0.06395   0.78592   0.69852   0.00000  Uiso   1.00
H978   H     0.26937   0.88082   0.80135   0.00000  Uiso   1.00
N979   N     0.04759   0.83334   0.75001   0.00000  Uiso   1.00
N980   N     0.28574   0.83332   0.74999   0.00000  Uiso   1.00
O981   O     0.12846   0.89442   0.75000   0.00000  Uiso   1.00
O982   O     0.20488   0.77225   0.75000   0.00000  Uiso   1.00
O983   O     0.20490   0.89441   0.75000   0.00000  Uiso   1.00
O984   O     0.12843   0.77226   0.75000   0.00000  Uiso   1.00
O985   O     0.10661   0.83334   0.81612   0.00000  Uiso   1.00
O986   O     0.22672   0.83333   0.68388   0.00000  Uiso   1.00
O987   O     0.18305   0.83333   0.81612   0.00000  Uiso   1.00
O988   O     0.15028   0.83334   0.68388   0.00000  Uiso   1.00
Zn989  Zn    0.11562   0.83334   0.75000   0.00000  Uiso   1.00
Zn990  Zn    0.21771   0.83333   0.75000   0.00000  Uiso   1.00
I991   I     0.31040   0.76468   0.67387   0.00000  Uiso   1.00
I992   I     0.02310   0.90362   0.82443   0.00000  Uiso   1.00
C993   C     0.49983   0.91332   0.75016   0.00000  Uiso   1.00
C994   C     0.50018   0.75335   0.74982   0.00000  Uiso   1.00
C995   C     0.45119   0.87444   0.54650   0.00000  Uiso   1.00
C996   C     0.56115   0.83689   0.94605   0.00000  Uiso   1.00
C997   C     0.41726   0.87920   0.52613   0.00000  Uiso   1.00
C998   C     0.59509   0.83184   0.96631   0.00000  Uiso   1.00
C999   C     0.53458   0.97850   0.76195   0.00000  Uiso   1.00
C1000  C     0.46547   0.68816   0.73797   0.00000  Uiso   1.00
C1001  C     0.53492   0.68783   0.76159   0.00000  Uiso   1.00
C1002  C     0.46514   0.97883   0.73830   0.00000  Uiso   1.00
C1003  C     0.50033   0.70917   0.74966   0.00000  Uiso   1.00
C1004  C     0.49971   0.95749   0.75027   0.00000  Uiso   1.00
C1005  C     0.65522   0.80690   0.72110   0.00000  Uiso   1.00
C1006  C     0.34481   0.85997   0.77865   0.00000  Uiso   1.00
C1007  C     0.36946   0.80695   0.72139   0.00000  Uiso   1.00
C1008  C     0.63052   0.85972   0.77858   0.00000  Uiso   1.00
C1009  C     0.46942   0.83349   0.83806   0.00000  Uiso   1.00
C1010  C     0.53062   0.83395   0.66200   0.00000  Uiso   1.00
C1011  C     0.45103   0.83889   0.88866   0.00000  Uiso   1.00
C1012  C     0.54988   0.83672   0.61128   0.00000  Uiso   1.00
C1013  C     0.39360   0.86938   0.96043   0.00000  Uiso   1.00
C1014  C     0.61377   0.82614   0.53516   0.00000  Uiso   1.00
C1015  C     0.40500   0.85636   0.91446   0.00000  Uiso   1.00
C1016  C     0.59859   0.82704   0.58349   0.00000  Uiso   1.00
C1017  C     0.48427   0.83260   0.90973   0.00000  Uiso   1.00
C1018  C     0.51748   0.84805   0.59059   0.00000  Uiso   1.00
C1019  C     0.47534   0.84844   0.95425   0.00000  Uiso   1.00
C1020  C     0.53192   0.84803   0.54224   0.00000  Uiso   1.00
C1021  C     0.42848   0.86566   0.98048   0.00000  Uiso   1.00
C1022  C     0.58058   0.83566   0.51438   0.00000  Uiso   1.00
C1023  C     0.51164   0.84700   0.97338   0.00000  Uiso   1.00
C1024  C     0.49811   0.85673   0.52125   0.00000  Uiso   1.00
H1025  H     0.38181   0.89301   0.54646   0.00000  Uiso   1.00
H1026  H     0.63243   0.82339   0.94440   0.00000  Uiso   1.00
H1027  H     0.48010   0.85457   0.61306   0.00000  Uiso   1.00
H1028  H     0.51765   0.81574   0.89017   0.00000  Uiso   1.00
H1029  H     0.62432   0.81872   0.59899   0.00000  Uiso   1.00
H1030  H     0.37861   0.86111   0.89886   0.00000  Uiso   1.00
H1031  H     0.35806   0.88339   0.97986   0.00000  Uiso   1.00
H1032  H     0.65094   0.81652   0.51415   0.00000  Uiso   1.00
H1033  H     0.44013   0.88624   0.58171   0.00000  Uiso   1.00
H1034  H     0.57507   0.83363   0.90860   0.00000  Uiso   1.00
H1035  H     0.56126   0.96210   0.77162   0.00000  Uiso   1.00
H1036  H     0.43878   0.70457   0.72830   0.00000  Uiso   1.00
H1037  H     0.56176   0.70398   0.77105   0.00000  Uiso   1.00
H1038  H     0.43832   0.96268   0.72883   0.00000  Uiso   1.00
H1039  H     0.39729   0.78592   0.69852   0.00000  Uiso   1.00
H1040  H     0.60271   0.88082   0.80135   0.00000  Uiso   1.00
N1041  N     0.38093   0.83334   0.75001   0.00000  Uiso   1.00
N1042  N     0.61907   0.83332   0.74999   0.00000  Uiso   1.00
O1043  O     0.46179   0.89442   0.75000   0.00000  Uiso   1.00
O1044  O     0.53821   0.77225   0.75000   0.00000  Uiso   1.00
O1045  O     0.53823   0.89441   0.75000   0.00000  Uiso   1.00
O1046  O     0.46177   0.77226   0.75000   0.00000  Uiso   1.00
O1047  O     0.43994   0.83334   0.81612   0.00000  Uiso   1.00
O1048  O     0.56006   0.83333   0.68388   0.00000  Uiso   1.00
O1049  O     0.51639   0.83333   0.81612   0.00000  Uiso   1.00
O1050  O     0.48361   0.83334   0.68388   0.00000  Uiso   1.00
Zn1051 Zn    0.44896   0.83334   0.75000   0.00000  Uiso   1.00
Zn1052 Zn    0.55104   0.83333   0.75000   0.00000  Uiso   1.00
I1053  I     0.64374   0.76468   0.67387   0.00000  Uiso   1.00
I1054  I     0.35644   0.90362   0.82443   0.00000  Uiso   1.00
C1055  C     0.83316   0.91332   0.75016   0.00000  Uiso   1.00
C1056  C     0.83352   0.75335   0.74982   0.00000  Uiso   1.00
C1057  C     0.78453   0.87444   0.54650   0.00000  Uiso   1.00
C1058  C     0.89449   0.83689   0.94605   0.00000  Uiso   1.00
C1059  C     0.75059   0.87920   0.52613   0.00000  Uiso   1.00
C1060  C     0.92842   0.83184   0.96631   0.00000  Uiso   1.00
C1061  C     0.86791   0.97850   0.76195   0.00000  Uiso   1.00
C1062  C     0.79880   0.68816   0.73797   0.00000  Uiso   1.00
C1063  C     0.86825   0.68783   0.76159   0.00000  Uiso   1.00
C1064  C     0.79848   0.97883   0.73830   0.00000  Uiso   1.00
C1065  C     0.83366   0.70917   0.74966   0.00000  Uiso   1.00
C1066  C     0.83304   0.95749   0.75027   0.00000  Uiso   1.00
C1067  C     0.98856   0.80690   0.72110   0.00000  Uiso   1.00
C1068  C     0.67815   0.85997   0.77865   0.00000  Uiso   1.00
C1069  C     0.70279   0.80695   0.72139   0.00000  Uiso   1.00
C1070  C     0.96385   0.85972   0.77858   0.00000  Uiso   1.00
C1071  C     0.80275   0.83349   0.83806   0.00000  Uiso   1.00
C1072  C     0.86395   0.83395   0.66200   0.00000  Uiso   1.00
C1073  C     0.78436   0.83889   0.88866   0.00000  Uiso   1.00
C1074  C     0.88321   0.83672   0.61128   0.00000  Uiso   1.00
C1075  C     0.72693   0.86938   0.96043   0.00000  Uiso   1.00
C1076  C     0.94711   0.82614   0.53516   0.00000  Uiso   1.00
C1077  C     0.73834   0.85636   0.91446   0.00000  Uiso   1.00
C1078  C     0.93192   0.82704   0.58349   0.00000  Uiso   1.00
C1079  C     0.81761   0.83260   0.90973   0.00000  Uiso   1.00
C1080  C     0.85082   0.84805   0.59059   0.00000  Uiso   1.00
C1081  C     0.80867   0.84844   0.95425   0.00000  Uiso   1.00
C1082  C     0.86525   0.84803   0.54224   0.00000  Uiso   1.00
C1083  C     0.76181   0.86566   0.98048   0.00000  Uiso   1.00
C1084  C     0.91392   0.83566   0.51438   0.00000  Uiso   1.00
C1085  C     0.84497   0.84700   0.97338   0.00000  Uiso   1.00
C1086  C     0.83144   0.85673   0.52125   0.00000  Uiso   1.00
H1087  H     0.71514   0.89301   0.54646   0.00000  Uiso   1.00
H1088  H     0.96576   0.82339   0.94440   0.00000  Uiso   1.00
H1089  H     0.81343   0.85457   0.61306   0.00000  Uiso   1.00
H1090  H     0.85098   0.81574   0.89017   0.00000  Uiso   1.00
H1091  H     0.95765   0.81872   0.59899   0.00000  Uiso   1.00
H1092  H     0.71194   0.86111   0.89886   0.00000  Uiso   1.00
H1093  H     0.69139   0.88339   0.97986   0.00000  Uiso   1.00
H1094  H     0.98427   0.81652   0.51415   0.00000  Uiso   1.00
H1095  H     0.77346   0.88624   0.58171   0.00000  Uiso   1.00
H1096  H     0.90840   0.83363   0.90860   0.00000  Uiso   1.00
H1097  H     0.89460   0.96210   0.77162   0.00000  Uiso   1.00
H1098  H     0.77211   0.70457   0.72830   0.00000  Uiso   1.00
H1099  H     0.89509   0.70398   0.77105   0.00000  Uiso   1.00
H1100  H     0.77165   0.96268   0.72883   0.00000  Uiso   1.00
H1101  H     0.73062   0.78592   0.69852   0.00000  Uiso   1.00
H1102  H     0.93604   0.88082   0.80135   0.00000  Uiso   1.00
N1103  N     0.71426   0.83334   0.75001   0.00000  Uiso   1.00
N1104  N     0.95241   0.83332   0.74999   0.00000  Uiso   1.00
O1105  O     0.79512   0.89442   0.75000   0.00000  Uiso   1.00
O1106  O     0.87154   0.77225   0.75000   0.00000  Uiso   1.00
O1107  O     0.87157   0.89441   0.75000   0.00000  Uiso   1.00
O1108  O     0.79510   0.77226   0.75000   0.00000  Uiso   1.00
O1109  O     0.77328   0.83334   0.81612   0.00000  Uiso   1.00
O1110  O     0.89339   0.83333   0.68388   0.00000  Uiso   1.00
O1111  O     0.84972   0.83333   0.81612   0.00000  Uiso   1.00
O1112  O     0.81695   0.83334   0.68388   0.00000  Uiso   1.00
Zn1113 Zn    0.78229   0.83334   0.75000   0.00000  Uiso   1.00
Zn1114 Zn    0.88438   0.83333   0.75000   0.00000  Uiso   1.00
I1115  I     0.97707   0.76468   0.67387   0.00000  Uiso   1.00
I1116  I     0.68977   0.90362   0.82443   0.00000  Uiso   1.00
loop_
_geom_bond_atom_site_label_1
_geom_bond_atom_site_label_2
_geom_bond_distance
_geom_bond_site_symmetry_2
_ccdc_geom_bond_type
C1     O51     1.288   .     A
C1     C12     1.418   .     S
C1     O53     1.285   .     A
C2     O52     1.288   .     A
C2     C11     1.419   .     S
C2     O54     1.285   .     A
C3     C5      1.389   .     A
C3     C32     1.418   .     A
C3     H41     1.078   .     S
C4     H42     1.079   .     S
C4     C31     1.417   .     A
C4     C6      1.388   .     A
C5     H33     1.084   .     S
C5     C587    1.391   1_554 S
C6     H34     1.084   .     S
C6     C588    1.391   .     S
C7     H43     1.084   .     S
C7     C12     1.398   .     A
C7     C195    1.370   .     S
C8     H44     1.084   .     S
C8     C11     1.398   .     A
C8     C382    1.370   1_545 S
C9     H45     1.084   .     S
C9     C11     1.396   .     A
C9     C379    1.370   1_545 S
C10    H46     1.084   .     S
C10    C12     1.396   .     A
C10    C194    1.370   .     S
C13    N50     1.379   .     A
C13    I61     2.112   .     S
C13    C77     1.415   .     S
C14    I62     2.110   .     S
C14    N49     1.380   .     A
C14    C140    1.414   1_455 S
C15    N49     1.359   .     A
C15    H47     1.082   .     S
C15    C137    1.415   1_455 S
C16    H48     1.082   .     S
C16    N50     1.358   .     A
C16    C76     1.414   .     S
C17    O55     1.300   .     A
C17    C19     1.461   .     S
C17    O57     1.294   .     A
C18    O56     1.298   .     A
C18    C20     1.460   .     S
C18    O58     1.295   .     A
C19    C23     1.398   .     A
C19    C25     1.393   .     A
C20    C24     1.398   .     A
C20    C26     1.395   .     A
C21    C29     1.404   .     A
C21    C23     1.394   .     A
C21    H39     1.083   .     S
C22    H40     1.083   .     S
C22    C24     1.393   .     A
C22    C30     1.404   .     A
C23    H38     1.079   .     S
C24    H37     1.082   .     S
C25    H36     1.078   .     S
C25    C27     1.395   .     A
C26    H35     1.076   .     S
C26    C28     1.396   .     A
C27    C29     1.416   .     A
C27    C31     1.418   .     A
C28    C30     1.418   .     A
C28    C32     1.419   .     A
C29    C563    1.391   .     S
C30    C564    1.391   1_554 S
C31    C590    1.415   .     S
C32    C589    1.415   1_554 S
N49    Zn59    2.019   .     S
N50    Zn60    2.019   .     S
O51    Zn59    2.001   .     S
O52    Zn60    2.001   .     S
O53    Zn60    1.995   .     S
O54    Zn59    1.995   .     S
O55    Zn59    1.969   .     S
O56    Zn60    1.969   .     S
O57    Zn60    1.912   .     S
O58    Zn59    1.912   .     S
C63    O113    1.288   .     A
C63    C74     1.418   .     S
C63    O115    1.285   .     A
C64    O114    1.288   .     A
C64    C73     1.419   .     S
C64    O116    1.285   .     A
C65    C67     1.389   .     A
C65    C94     1.418   .     A
C65    H103    1.078   .     S
C66    H104    1.079   .     S
C66    C93     1.417   .     A
C66    C68     1.388   .     A
C67    H95     1.084   .     S
C67    C649    1.391   1_554 S
C68    H96     1.084   .     S
C68    C650    1.391   .     S
C69    H105    1.084   .     S
C69    C74     1.398   .     A
C69    C257    1.370   .     S
C70    H106    1.084   .     S
C70    C73     1.398   .     A
C70    C444    1.370   1_545 S
C71    H107    1.084   .     S
C71    C73     1.396   .     A
C71    C441    1.370   1_545 S
C72    H108    1.084   .     S
C72    C74     1.396   .     A
C72    C256    1.370   .     S
C75    N112    1.379   .     A
C75    I123    2.112   .     S
C75    C139    1.415   .     S
C76    I124    2.110   .     S
C76    N111    1.380   .     A
C77    N111    1.359   .     A
C77    H109    1.082   .     S
C78    H110    1.082   .     S
C78    N112    1.358   .     A
C78    C138    1.414   .     S
C79    O117    1.300   .     A
C79    C81     1.461   .     S
C79    O119    1.294   .     A
C80    O118    1.298   .     A
C80    C82     1.460   .     S
C80    O120    1.295   .     A
C81    C85     1.398   .     A
C81    C87     1.393   .     A
C82    C86     1.398   .     A
C82    C88     1.395   .     A
C83    C91     1.404   .     A
C83    C85     1.394   .     A
C83    H101    1.083   .     S
C84    H102    1.083   .     S
C84    C86     1.393   .     A
C84    C92     1.404   .     A
C85    H100    1.079   .     S
C86    H99     1.082   .     S
C87    H98     1.078   .     S
C87    C89     1.395   .     A
C88    H97     1.076   .     S
C88    C90     1.396   .     A
C89    C91     1.416   .     A
C89    C93     1.418   .     A
C90    C92     1.418   .     A
C90    C94     1.419   .     A
C91    C625    1.391   .     S
C92    C626    1.391   1_554 S
C93    C652    1.415   .     S
C94    C651    1.415   1_554 S
N111   Zn121   2.019   .     S
N112   Zn122   2.019   .     S
O113   Zn121   2.001   .     S
O114   Zn122   2.001   .     S
O115   Zn122   1.995   .     S
O116   Zn121   1.995   .     S
O117   Zn121   1.969   .     S
O118   Zn122   1.969   .     S
O119   Zn122   1.912   .     S
O120   Zn121   1.912   .     S
C125   O175    1.288   .     A
C125   C136    1.418   .     S
C125   O177    1.285   .     A
C126   O176    1.288   .     A
C126   C135    1.419   .     S
C126   O178    1.285   .     A
C127   C129    1.389   .     A
C127   C156    1.418   .     A
C127   H165    1.078   .     S
C128   H166    1.079   .     S
C128   C155    1.417   .     A
C128   C130    1.388   .     A
C129   H157    1.084   .     S
C129   C711    1.391   1_554 S
C130   H158    1.084   .     S
C130   C712    1.391   .     S
C131   H167    1.084   .     S
C131   C136    1.398   .     A
C131   C319    1.370   .     S
C132   H168    1.084   .     S
C132   C135    1.398   .     A
C132   C506    1.370   1_545 S
C133   H169    1.084   .     S
C133   C135    1.396   .     A
C133   C503    1.370   1_545 S
C134   H170    1.084   .     S
C134   C136    1.396   .     A
C134   C318    1.370   .     S
C137   N174    1.379   .     A
C137   I185    2.112   .     S
C137   C15     1.415   1_655 S
C138   I186    2.110   .     S
C138   N173    1.380   .     A
C139   N173    1.359   .     A
C139   H171    1.082   .     S
C140   H172    1.082   .     S
C140   N174    1.358   .     A
C140   C14     1.414   1_655 S
C141   O179    1.300   .     A
C141   C143    1.461   .     S
C141   O181    1.294   .     A
C142   O180    1.298   .     A
C142   C144    1.460   .     S
C142   O182    1.295   .     A
C143   C147    1.398   .     A
C143   C149    1.393   .     A
C144   C148    1.398   .     A
C144   C150    1.395   .     A
C145   C153    1.404   .     A
C145   C147    1.394   .     A
C145   H163    1.083   .     S
C146   H164    1.083   .     S
C146   C148    1.393   .     A
C146   C154    1.404   .     A
C147   H162    1.079   .     S
C148   H161    1.082   .     S
C149   H160    1.078   .     S
C149   C151    1.395   .     A
C150   H159    1.076   .     S
C150   C152    1.396   .     A
C151   C153    1.416   .     A
C151   C155    1.418   .     A
C152   C154    1.418   .     A
C152   C156    1.419   .     A
C153   C687    1.391   .     S
C154   C688    1.391   1_554 S
C155   C714    1.415   .     S
C156   C713    1.415   1_554 S
N173   Zn183   2.019   .     S
N174   Zn184   2.019   .     S
O175   Zn183   2.001   .     S
O176   Zn184   2.001   .     S
O177   Zn184   1.995   .     S
O178   Zn183   1.995   .     S
O179   Zn183   1.969   .     S
O180   Zn184   1.969   .     S
O181   Zn184   1.912   .     S
O182   Zn183   1.912   .     S
C187   O237    1.288   .     A
C187   C198    1.418   .     S
C187   O239    1.285   .     A
C188   O238    1.288   .     A
C188   C197    1.419   .     S
C188   O240    1.285   .     A
C189   C191    1.389   .     A
C189   C218    1.418   .     A
C189   H227    1.078   .     S
C190   H228    1.079   .     S
C190   C217    1.417   .     A
C190   C192    1.388   .     A
C191   H219    1.084   .     S
C191   C773    1.391   1_554 S
C192   H220    1.084   .     S
C192   C774    1.391   .     S
C193   H229    1.084   .     S
C193   C198    1.398   .     A
C193   C381    1.370   .     S
C194   H230    1.084   .     S
C194   C197    1.398   .     A
C195   H231    1.084   .     S
C195   C197    1.396   .     A
C196   H232    1.084   .     S
C196   C198    1.396   .     A
C196   C380    1.370   .     S
C199   N236    1.379   .     A
C199   I247    2.112   .     S
C199   C263    1.415   .     S
C200   I248    2.110   .     S
C200   N235    1.380   .     A
C200   C326    1.414   1_455 S
C201   N235    1.359   .     A
C201   H233    1.082   .     S
C201   C323    1.415   1_455 S
C202   H234    1.082   .     S
C202   N236    1.358   .     A
C202   C262    1.414   .     S
C203   O241    1.300   .     A
C203   C205    1.461   .     S
C203   O243    1.294   .     A
C204   O242    1.298   .     A
C204   C206    1.460   .     S
C204   O244    1.295   .     A
C205   C209    1.398   .     A
C205   C211    1.393   .     A
C206   C210    1.398   .     A
C206   C212    1.395   .     A
C207   C215    1.404   .     A
C207   C209    1.394   .     A
C207   H225    1.083   .     S
C208   H226    1.083   .     S
C208   C210    1.393   .     A
C208   C216    1.404   .     A
C209   H224    1.079   .     S
C210   H223    1.082   .     S
C211   H222    1.078   .     S
C211   C213    1.395   .     A
C212   H221    1.076   .     S
C212   C214    1.396   .     A
C213   C215    1.416   .     A
C213   C217    1.418   .     A
C214   C216    1.418   .     A
C214   C218    1.419   .     A
C215   C749    1.391   .     S
C216   C750    1.391   1_554 S
C217   C776    1.415   .     S
C218   C775    1.415   1_554 S
N235   Zn245   2.019   .     S
N236   Zn246   2.019   .     S
O237   Zn245   2.001   .     S
O238   Zn246   2.001   .     S
O239   Zn246   1.995   .     S
O240   Zn245   1.995   .     S
O241   Zn245   1.969   .     S
O242   Zn246   1.969   .     S
O243   Zn246   1.912   .     S
O244   Zn245   1.912   .     S
C249   O299    1.288   .     A
C249   C260    1.418   .     S
C249   O301    1.285   .     A
C250   O300    1.288   .     A
C250   C259    1.419   .     S
C250   O302    1.285   .     A
C251   C253    1.389   .     A
C251   C280    1.418   .     A
C251   H289    1.078   .     S
C252   H290    1.079   .     S
C252   C279    1.417   .     A
C252   C254    1.388   .     A
C253   H281    1.084   .     S
C253   C835    1.391   1_554 S
C254   H282    1.084   .     S
C254   C836    1.391   .     S
C255   H291    1.084   .     S
C255   C260    1.398   .     A
C255   C443    1.370   .     S
C256   H292    1.084   .     S
C256   C259    1.398   .     A
C257   H293    1.084   .     S
C257   C259    1.396   .     A
C258   H294    1.084   .     S
C258   C260    1.396   .     A
C258   C442    1.370   .     S
C261   N298    1.379   .     A
C261   I309    2.112   .     S
C261   C325    1.415   .     S
C262   I310    2.110   .     S
C262   N297    1.380   .     A
C263   N297    1.359   .     A
C263   H295    1.082   .     S
C264   H296    1.082   .     S
C264   N298    1.358   .     A
C264   C324    1.414   .     S
C265   O303    1.300   .     A
C265   C267    1.461   .     S
C265   O305    1.294   .     A
C266   O304    1.298   .     A
C266   C268    1.460   .     S
C266   O306    1.295   .     A
C267   C271    1.398   .     A
C267   C273    1.393   .     A
C268   C272    1.398   .     A
C268   C274    1.395   .     A
C269   C277    1.404   .     A
C269   C271    1.394   .     A
C269   H287    1.083   .     S
C270   H288    1.083   .     S
C270   C272    1.393   .     A
C270   C278    1.404   .     A
C271   H286    1.079   .     S
C272   H285    1.082   .     S
C273   H284    1.078   .     S
C273   C275    1.395   .     A
C274   H283    1.076   .     S
C274   C276    1.396   .     A
C275   C277    1.416   .     A
C275   C279    1.418   .     A
C276   C278    1.418   .     A
C276   C280    1.419   .     A
C277   C811    1.391   .     S
C278   C812    1.391   1_554 S
C279   C838    1.415   .     S
C280   C837    1.415   1_554 S
N297   Zn307   2.019   .     S
N298   Zn308   2.019   .     S
O299   Zn307   2.001   .     S
O300   Zn308   2.001   .     S
O301   Zn308   1.995   .     S
O302   Zn307   1.995   .     S
O303   Zn307   1.969   .     S
O304   Zn308   1.969   .     S
O305   Zn308   1.912   .     S
O306   Zn307   1.912   .     S
C311   O361    1.288   .     A
C311   C322    1.418   .     S
C311   O363    1.285   .     A
C312   O362    1.288   .     A
C312   C321    1.419   .     S
C312   O364    1.285   .     A
C313   C315    1.389   .     A
C313   C342    1.418   .     A
C313   H351    1.078   .     S
C314   H352    1.079   .     S
C314   C341    1.417   .     A
C314   C316    1.388   .     A
C315   H343    1.084   .     S
C315   C897    1.391   1_554 S
C316   H344    1.084   .     S
C316   C898    1.391   .     S
C317   H353    1.084   .     S
C317   C322    1.398   .     A
C317   C505    1.370   .     S
C318   H354    1.084   .     S
C318   C321    1.398   .     A
C319   H355    1.084   .     S
C319   C321    1.396   .     A
C320   H356    1.084   .     S
C320   C322    1.396   .     A
C320   C504    1.370   .     S
C323   N360    1.379   .     A
C323   I371    2.112   .     S
C323   C201    1.415   1_655 S
C324   I372    2.110   .     S
C324   N359    1.380   .     A
C325   N359    1.359   .     A
C325   H357    1.082   .     S
C326   H358    1.082   .     S
C326   N360    1.358   .     A
C326   C200    1.414   1_655 S
C327   O365    1.300   .     A
C327   C329    1.461   .     S
C327   O367    1.294   .     A
C328   O366    1.298   .     A
C328   C330    1.460   .     S
C328   O368    1.295   .     A
C329   C333    1.398   .     A
C329   C335    1.393   .     A
C330   C334    1.398   .     A
C330   C336    1.395   .     A
C331   C339    1.404   .     A
C331   C333    1.394   .     A
C331   H349    1.083   .     S
C332   H350    1.083   .     S
C332   C334    1.393   .     A
C332   C340    1.404   .     A
C333   H348    1.079   .     S
C334   H347    1.082   .     S
C335   H346    1.078   .     S
C335   C337    1.395   .     A
C336   H345    1.076   .     S
C336   C338    1.396   .     A
C337   C339    1.416   .     A
C337   C341    1.418   .     A
C338   C340    1.418   .     A
C338   C342    1.419   .     A
C339   C873    1.391   .     S
C340   C874    1.391   1_554 S
C341   C900    1.415   .     S
C342   C899    1.415   1_554 S
N359   Zn369   2.019   .     S
N360   Zn370   2.019   .     S
O361   Zn369   2.001   .     S
O362   Zn370   2.001   .     S
O363   Zn370   1.995   .     S
O364   Zn369   1.995   .     S
O365   Zn369   1.969   .     S
O366   Zn370   1.969   .     S
O367   Zn370   1.912   .     S
O368   Zn369   1.912   .     S
C373   O423    1.288   .     A
C373   C384    1.418   .     S
C373   O425    1.285   .     A
C374   O424    1.288   .     A
C374   C383    1.419   .     S
C374   O426    1.285   .     A
C375   C377    1.389   .     A
C375   C404    1.418   .     A
C375   H413    1.078   .     S
C376   H414    1.079   .     S
C376   C403    1.417   .     A
C376   C378    1.388   .     A
C377   H405    1.084   .     S
C377   C959    1.391   1_554 S
C378   H406    1.084   .     S
C378   C960    1.391   .     S
C379   H415    1.084   .     S
C379   C384    1.398   .     A
C379   C9      1.370   1_565 S
C380   H416    1.084   .     S
C380   C383    1.398   .     A
C381   H417    1.084   .     S
C381   C383    1.396   .     A
C382   H418    1.084   .     S
C382   C384    1.396   .     A
C382   C8      1.370   1_565 S
C385   N422    1.379   .     A
C385   I433    2.112   .     S
C385   C449    1.415   .     S
C386   I434    2.110   .     S
C386   N421    1.380   .     A
C386   C512    1.414   1_455 S
C387   N421    1.359   .     A
C387   H419    1.082   .     S
C387   C509    1.415   1_455 S
C388   H420    1.082   .     S
C388   N422    1.358   .     A
C388   C448    1.414   .     S
C389   O427    1.300   .     A
C389   C391    1.461   .     S
C389   O429    1.294   .     A
C390   O428    1.298   .     A
C390   C392    1.460   .     S
C390   O430    1.295   .     A
C391   C395    1.398   .     A
C391   C397    1.393   .     A
C392   C396    1.398   .     A
C392   C398    1.395   .     A
C393   C401    1.404   .     A
C393   C395    1.394   .     A
C393   H411    1.083   .     S
C394   H412    1.083   .     S
C394   C396    1.393   .     A
C394   C402    1.404   .     A
C395   H410    1.079   .     S
C396   H409    1.082   .     S
C397   H408    1.078   .     S
C397   C399    1.395   .     A
C398   H407    1.076   .     S
C398   C400    1.396   .     A
C399   C401    1.416   .     A
C399   C403    1.418   .     A
C400   C402    1.418   .     A
C400   C404    1.419   .     A
C401   C935    1.391   .     S
C402   C936    1.391   1_554 S
C403   C962    1.415   .     S
C404   C961    1.415   1_554 S
N421   Zn431   2.019   .     S
N422   Zn432   2.019   .     S
O423   Zn431   2.001   .     S
O424   Zn432   2.001   .     S
O425   Zn432   1.995   .     S
O426   Zn431   1.995   .     S
O427   Zn431   1.969   .     S
O428   Zn432   1.969   .     S
O429   Zn432   1.912   .     S
O430   Zn431   1.912   .     S
C435   O485    1.288   .     A
C435   C446    1.418   .     S
C435   O487    1.285   .     A
C436   O486    1.288   .     A
C436   C445    1.419   .     S
C436   O488    1.285   .     A
C437   C439    1.389   .     A
C437   C466    1.418   .     A
C437   H475    1.078   .     S
C438   H476    1.079   .     S
C438   C465    1.417   .     A
C438   C440    1.388   .     A
C439   H467    1.084   .     S
C439   C1021   1.391   1_554 S
C440   H468    1.084   .     S
C440   C1022   1.391   .     S
C441   H477    1.084   .     S
C441   C446    1.398   .     A
C441   C71     1.370   1_565 S
C442   H478    1.084   .     S
C442   C445    1.398   .     A
C443   H479    1.084   .     S
C443   C445    1.396   .     A
C444   H480    1.084   .     S
C444   C446    1.396   .     A
C444   C70     1.370   1_565 S
C447   N484    1.379   .     A
C447   I495    2.112   .     S
C447   C511    1.415   .     S
C448   I496    2.110   .     S
C448   N483    1.380   .     A
C449   N483    1.359   .     A
C449   H481    1.082   .     S
C450   H482    1.082   .     S
C450   N484    1.358   .     A
C450   C510    1.414   .     S
C451   O489    1.300   .     A
C451   C453    1.461   .     S
C451   O491    1.294   .     A
C452   O490    1.298   .     A
C452   C454    1.460   .     S
C452   O492    1.295   .     A
C453   C457    1.398   .     A
C453   C459    1.393   .     A
C454   C458    1.398   .     A
C454   C460    1.395   .     A
C455   C463    1.404   .     A
C455   C457    1.394   .     A
C455   H473    1.083   .     S
C456   H474    1.083   .     S
C456   C458    1.393   .     A
C456   C464    1.404   .     A
C457   H472    1.079   .     S
C458   H471    1.082   .     S
C459   H470    1.078   .     S
C459   C461    1.395   .     A
C460   H469    1.076   .     S
C460   C462    1.396   .     A
C461   C463    1.416   .     A
C461   C465    1.418   .     A
C462   C464    1.418   .     A
C462   C466    1.419   .     A
C463   C997    1.391   .     S
C464   C998    1.391   1_554 S
C465   C1024   1.415   .     S
C466   C1023   1.415   1_554 S
N483   Zn493   2.019   .     S
N484   Zn494   2.019   .     S
O485   Zn493   2.001   .     S
O486   Zn494   2.001   .     S
O487   Zn494   1.995   .     S
O488   Zn493   1.995   .     S
O489   Zn493   1.969   .     S
O490   Zn494   1.969   .     S
O491   Zn494   1.912   .     S
O492   Zn493   1.912   .     S
C497   O547    1.288   .     A
C497   C508    1.418   .     S
C497   O549    1.285   .     A
C498   O548    1.288   .     A
C498   C507    1.419   .     S
C498   O550    1.285   .     A
C499   C501    1.389   .     A
C499   C528    1.418   .     A
C499   H537    1.078   .     S
C500   H538    1.079   .     S
C500   C527    1.417   .     A
C500   C502    1.388   .     A
C501   H529    1.084   .     S
C501   C1083   1.391   1_554 S
C502   H530    1.084   .     S
C502   C1084   1.391   .     S
C503   H539    1.084   .     S
C503   C508    1.398   .     A
C503   C133    1.370   1_565 S
C504   H540    1.084   .     S
C504   C507    1.398   .     A
C505   H541    1.084   .     S
C505   C507    1.396   .     A
C506   H542    1.084   .     S
C506   C508    1.396   .     A
C506   C132    1.370   1_565 S
C509   N546    1.379   .     A
C509   I557    2.112   .     S
C509   C387    1.415   1_655 S
C510   I558    2.110   .     S
C510   N545    1.380   .     A
C511   N545    1.359   .     A
C511   H543    1.082   .     S
C512   H544    1.082   .     S
C512   N546    1.358   .     A
C512   C386    1.414   1_655 S
C513   O551    1.300   .     A
C513   C515    1.461   .     S
C513   O553    1.294   .     A
C514   O552    1.298   .     A
C514   C516    1.460   .     S
C514   O554    1.295   .     A
C515   C519    1.398   .     A
C515   C521    1.393   .     A
C516   C520    1.398   .     A
C516   C522    1.395   .     A
C517   C525    1.404   .     A
C517   C519    1.394   .     A
C517   H535    1.083   .     S
C518   H536    1.083   .     S
C518   C520    1.393   .     A
C518   C526    1.404   .     A
C519   H534    1.079   .     S
C520   H533    1.082   .     S
C521   H532    1.078   .     S
C521   C523    1.395   .     A
C522   H531    1.076   .     S
C522   C524    1.396   .     A
C523   C525    1.416   .     A
C523   C527    1.418   .     A
C524   C526    1.418   .     A
C524   C528    1.419   .     A
C525   C1059   1.391   .     S
C526   C1060   1.391   1_554 S
C527   C1086   1.415   .     S
C528   C1085   1.415   1_554 S
N545   Zn555   2.019   .     S
N546   Zn556   2.019   .     S
O547   Zn555   2.001   .     S
O548   Zn556   2.001   .     S
O549   Zn556   1.995   .     S
O550   Zn555   1.995   .     S
O551   Zn555   1.969   .     S
O552   Zn556   1.969   .     S
O553   Zn556   1.912   .     S
O554   Zn555   1.912   .     S
C559   O609    1.288   .     A
C559   C570    1.418   .     S
C559   O611    1.285   .     A
C560   O610    1.288   .     A
C560   C569    1.419   .     S
C560   O612    1.285   .     A
C561   C563    1.389   .     A
C561   C590    1.418   .     A
C561   H599    1.078   .     S
C562   H600    1.079   .     S
C562   C589    1.417   .     A
C562   C564    1.388   .     A
C563   H591    1.084   .     S
C564   H592    1.084   .     S
C564   C30     1.391   1_556 S
C565   H601    1.084   .     S
C565   C570    1.398   .     A
C565   C753    1.370   .     S
C566   H602    1.084   .     S
C566   C569    1.398   .     A
C566   C940    1.370   1_545 S
C567   H603    1.084   .     S
C567   C569    1.396   .     A
C567   C937    1.370   1_545 S
C568   H604    1.084   .     S
C568   C570    1.396   .     A
C568   C752    1.370   .     S
C571   N608    1.379   .     A
C571   I619    2.112   .     S
C571   C635    1.415   .     S
C572   I620    2.110   .     S
C572   N607    1.380   .     A
C572   C698    1.414   1_455 S
C573   N607    1.359   .     A
C573   H605    1.082   .     S
C573   C695    1.415   1_455 S
C574   H606    1.082   .     S
C574   N608    1.358   .     A
C574   C634    1.414   .     S
C575   O613    1.300   .     A
C575   C577    1.461   .     S
C575   O615    1.294   .     A
C576   O614    1.298   .     A
C576   C578    1.460   .     S
C576   O616    1.295   .     A
C577   C581    1.398   .     A
C577   C583    1.393   .     A
C578   C582    1.398   .     A
C578   C584    1.395   .     A
C579   C587    1.404   .     A
C579   C581    1.394   .     A
C579   H597    1.083   .     S
C580   H598    1.083   .     S
C580   C582    1.393   .     A
C580   C588    1.404   .     A
C581   H596    1.079   .     S
C582   H595    1.082   .     S
C583   H594    1.078   .     S
C583   C585    1.395   .     A
C584   H593    1.076   .     S
C584   C586    1.396   .     A
C585   C587    1.416   .     A
C585   C589    1.418   .     A
C586   C588    1.418   .     A
C586   C590    1.419   .     A
C587   C5      1.391   1_556 S
C589   C32     1.415   1_556 S
N607   Zn617   2.019   .     S
N608   Zn618   2.019   .     S
O609   Zn617   2.001   .     S
O610   Zn618   2.001   .     S
O611   Zn618   1.995   .     S
O612   Zn617   1.995   .     S
O613   Zn617   1.969   .     S
O614   Zn618   1.969   .     S
O615   Zn618   1.912   .     S
O616   Zn617   1.912   .     S
C621   O671    1.288   .     A
C621   C632    1.418   .     S
C621   O673    1.285   .     A
C622   O672    1.288   .     A
C622   C631    1.419   .     S
C622   O674    1.285   .     A
C623   C625    1.389   .     A
C623   C652    1.418   .     A
C623   H661    1.078   .     S
C624   H662    1.079   .     S
C624   C651    1.417   .     A
C624   C626    1.388   .     A
C625   H653    1.084   .     S
C626   H654    1.084   .     S
C626   C92     1.391   1_556 S
C627   H663    1.084   .     S
C627   C632    1.398   .     A
C627   C815    1.370   .     S
C628   H664    1.084   .     S
C628   C631    1.398   .     A
C628   C1002   1.370   1_545 S
C629   H665    1.084   .     S
C629   C631    1.396   .     A
C629   C999    1.370   1_545 S
C630   H666    1.084   .     S
C630   C632    1.396   .     A
C630   C814    1.370   .     S
C633   N670    1.379   .     A
C633   I681    2.112   .     S
C633   C697    1.415   .     S
C634   I682    2.110   .     S
C634   N669    1.380   .     A
C635   N669    1.359   .     A
C635   H667    1.082   .     S
C636   H668    1.082   .     S
C636   N670    1.358   .     A
C636   C696    1.414   .     S
C637   O675    1.300   .     A
C637   C639    1.461   .     S
C637   O677    1.294   .     A
C638   O676    1.298   .     A
C638   C640    1.460   .     S
C638   O678    1.295   .     A
C639   C643    1.398   .     A
C639   C645    1.393   .     A
C640   C644    1.398   .     A
C640   C646    1.395   .     A
C641   C649    1.404   .     A
C641   C643    1.394   .     A
C641   H659    1.083   .     S
C642   H660    1.083   .     S
C642   C644    1.393   .     A
C642   C650    1.404   .     A
C643   H658    1.079   .     S
C644   H657    1.082   .     S
C645   H656    1.078   .     S
C645   C647    1.395   .     A
C646   H655    1.076   .     S
C646   C648    1.396   .     A
C647   C649    1.416   .     A
C647   C651    1.418   .     A
C648   C650    1.418   .     A
C648   C652    1.419   .     A
C649   C67     1.391   1_556 S
C651   C94     1.415   1_556 S
N669   Zn679   2.019   .     S
N670   Zn680   2.019   .     S
O671   Zn679   2.001   .     S
O672   Zn680   2.001   .     S
O673   Zn680   1.995   .     S
O674   Zn679   1.995   .     S
O675   Zn679   1.969   .     S
O676   Zn680   1.969   .     S
O677   Zn680   1.912   .     S
O678   Zn679   1.912   .     S
C683   O733    1.288   .     A
C683   C694    1.418   .     S
C683   O735    1.285   .     A
C684   O734    1.288   .     A
C684   C693    1.419   .     S
C684   O736    1.285   .     A
C685   C687    1.389   .     A
C685   C714    1.418   .     A
C685   H723    1.078   .     S
C686   H724    1.079   .     S
C686   C713    1.417   .     A
C686   C688    1.388   .     A
C687   H715    1.084   .     S
C688   H716    1.084   .     S
C688   C154    1.391   1_556 S
C689   H725    1.084   .     S
C689   C694    1.398   .     A
C689   C877    1.370   .     S
C690   H726    1.084   .     S
C690   C693    1.398   .     A
C690   C1064   1.370   1_545 S
C691   H727    1.084   .     S
C691   C693    1.396   .     A
C691   C1061   1.370   1_545 S
C692   H728    1.084   .     S
C692   C694    1.396   .     A
C692   C876    1.370   .     S
C695   N732    1.379   .     A
C695   I743    2.112   .     S
C695   C573    1.415   1_655 S
C696   I744    2.110   .     S
C696   N731    1.380   .     A
C697   N731    1.359   .     A
C697   H729    1.082   .     S
C698   H730    1.082   .     S
C698   N732    1.358   .     A
C698   C572    1.414   1_655 S
C699   O737    1.300   .     A
C699   C701    1.461   .     S
C699   O739    1.294   .     A
C700   O738    1.298   .     A
C700   C702    1.460   .     S
C700   O740    1.295   .     A
C701   C705    1.398   .     A
C701   C707    1.393   .     A
C702   C706    1.398   .     A
C702   C708    1.395   .     A
C703   C711    1.404   .     A
C703   C705    1.394   .     A
C703   H721    1.083   .     S
C704   H722    1.083   .     S
C704   C706    1.393   .     A
C704   C712    1.404   .     A
C705   H720    1.079   .     S
C706   H719    1.082   .     S
C707   H718    1.078   .     S
C707   C709    1.395   .     A
C708   H717    1.076   .     S
C708   C710    1.396   .     A
C709   C711    1.416   .     A
C709   C713    1.418   .     A
C710   C712    1.418   .     A
C710   C714    1.419   .     A
C711   C129    1.391   1_556 S
C713   C156    1.415   1_556 S
N731   Zn741   2.019   .     S
N732   Zn742   2.019   .     S
O733   Zn741   2.001   .     S
O734   Zn742   2.001   .     S
O735   Zn742   1.995   .     S
O736   Zn741   1.995   .     S
O737   Zn741   1.969   .     S
O738   Zn742   1.969   .     S
O739   Zn742   1.912   .     S
O740   Zn741   1.912   .     S
C745   O795    1.288   .     A
C745   C756    1.418   .     S
C745   O797    1.285   .     A
C746   O796    1.288   .     A
C746   C755    1.419   .     S
C746   O798    1.285   .     A
C747   C749    1.389   .     A
C747   C776    1.418   .     A
C747   H785    1.078   .     S
C748   H786    1.079   .     S
C748   C775    1.417   .     A
C748   C750    1.388   .     A
C749   H777    1.084   .     S
C750   H778    1.084   .     S
C750   C216    1.391   1_556 S
C751   H787    1.084   .     S
C751   C756    1.398   .     A
C751   C939    1.370   .     S
C752   H788    1.084   .     S
C752   C755    1.398   .     A
C753   H789    1.084   .     S
C753   C755    1.396   .     A
C754   H790    1.084   .     S
C754   C756    1.396   .     A
C754   C938    1.370   .     S
C757   N794    1.379   .     A
C757   I805    2.112   .     S
C757   C821    1.415   .     S
C758   I806    2.110   .     S
C758   N793    1.380   .     A
C758   C884    1.414   1_455 S
C759   N793    1.359   .     A
C759   H791    1.082   .     S
C759   C881    1.415   1_455 S
C760   H792    1.082   .     S
C760   N794    1.358   .     A
C760   C820    1.414   .     S
C761   O799    1.300   .     A
C761   C763    1.461   .     S
C761   O801    1.294   .     A
C762   O800    1.298   .     A
C762   C764    1.460   .     S
C762   O802    1.295   .     A
C763   C767    1.398   .     A
C763   C769    1.393   .     A
C764   C768    1.398   .     A
C764   C770    1.395   .     A
C765   C773    1.404   .     A
C765   C767    1.394   .     A
C765   H783    1.083   .     S
C766   H784    1.083   .     S
C766   C768    1.393   .     A
C766   C774    1.404   .     A
C767   H782    1.079   .     S
C768   H781    1.082   .     S
C769   H780    1.078   .     S
C769   C771    1.395   .     A
C770   H779    1.076   .     S
C770   C772    1.396   .     A
C771   C773    1.416   .     A
C771   C775    1.418   .     A
C772   C774    1.418   .     A
C772   C776    1.419   .     A
C773   C191    1.391   1_556 S
C775   C218    1.415   1_556 S
N793   Zn803   2.019   .     S
N794   Zn804   2.019   .     S
O795   Zn803   2.001   .     S
O796   Zn804   2.001   .     S
O797   Zn804   1.995   .     S
O798   Zn803   1.995   .     S
O799   Zn803   1.969   .     S
O800   Zn804   1.969   .     S
O801   Zn804   1.912   .     S
O802   Zn803   1.912   .     S
C807   O857    1.288   .     A
C807   C818    1.418   .     S
C807   O859    1.285   .     A
C808   O858    1.288   .     A
C808   C817    1.419   .     S
C808   O860    1.285   .     A
C809   C811    1.389   .     A
C809   C838    1.418   .     A
C809   H847    1.078   .     S
C810   H848    1.079   .     S
C810   C837    1.417   .     A
C810   C812    1.388   .     A
C811   H839    1.084   .     S
C812   H840    1.084   .     S
C812   C278    1.391   1_556 S
C813   H849    1.084   .     S
C813   C818    1.398   .     A
C813   C1001   1.370   .     S
C814   H850    1.084   .     S
C814   C817    1.398   .     A
C815   H851    1.084   .     S
C815   C817    1.396   .     A
C816   H852    1.084   .     S
C816   C818    1.396   .     A
C816   C1000   1.370   .     S
C819   N856    1.379   .     A
C819   I867    2.112   .     S
C819   C883    1.415   .     S
C820   I868    2.110   .     S
C820   N855    1.380   .     A
C821   N855    1.359   .     A
C821   H853    1.082   .     S
C822   H854    1.082   .     S
C822   N856    1.358   .     A
C822   C882    1.414   .     S
C823   O861    1.300   .     A
C823   C825    1.461   .     S
C823   O863    1.294   .     A
C824   O862    1.298   .     A
C824   C826    1.460   .     S
C824   O864    1.295   .     A
C825   C829    1.398   .     A
C825   C831    1.393   .     A
C826   C830    1.398   .     A
C826   C832    1.395   .     A
C827   C835    1.404   .     A
C827   C829    1.394   .     A
C827   H845    1.083   .     S
C828   H846    1.083   .     S
C828   C830    1.393   .     A
C828   C836    1.404   .     A
C829   H844    1.079   .     S
C830   H843    1.082   .     S
C831   H842    1.078   .     S
C831   C833    1.395   .     A
C832   H841    1.076   .     S
C832   C834    1.396   .     A
C833   C835    1.416   .     A
C833   C837    1.418   .     A
C834   C836    1.418   .     A
C834   C838    1.419   .     A
C835   C253    1.391   1_556 S
C837   C280    1.415   1_556 S
N855   Zn865   2.019   .     S
N856   Zn866   2.019   .     S
O857   Zn865   2.001   .     S
O858   Zn866   2.001   .     S
O859   Zn866   1.995   .     S
O860   Zn865   1.995   .     S
O861   Zn865   1.969   .     S
O862   Zn866   1.969   .     S
O863   Zn866   1.912   .     S
O864   Zn865   1.912   .     S
C869   O919    1.288   .     A
C869   C880    1.418   .     S
C869   O921    1.285   .     A
C870   O920    1.288   .     A
C870   C879    1.419   .     S
C870   O922    1.285   .     A
C871   C873    1.389   .     A
C871   C900    1.418   .     A
C871   H909    1.078   .     S
C872   H910    1.079   .     S
C872   C899    1.417   .     A
C872   C874    1.388   .     A
C873   H901    1.084   .     S
C874   H902    1.084   .     S
C874   C340    1.391   1_556 S
C875   H911    1.084   .     S
C875   C880    1.398   .     A
C875   C1063   1.370   .     S
C876   H912    1.084   .     S
C876   C879    1.398   .     A
C877   H913    1.084   .     S
C877   C879    1.396   .     A
C878   H914    1.084   .     S
C878   C880    1.396   .     A
C878   C1062   1.370   .     S
C881   N918    1.379   .     A
C881   I929    2.112   .     S
C881   C759    1.415   1_655 S
C882   I930    2.110   .     S
C882   N917    1.380   .     A
C883   N917    1.359   .     A
C883   H915    1.082   .     S
C884   H916    1.082   .     S
C884   N918    1.358   .     A
C884   C758    1.414   1_655 S
C885   O923    1.300   .     A
C885   C887    1.461   .     S
C885   O925    1.294   .     A
C886   O924    1.298   .     A
C886   C888    1.460   .     S
C886   O926    1.295   .     A
C887   C891    1.398   .     A
C887   C893    1.393   .     A
C888   C892    1.398   .     A
C888   C894    1.395   .     A
C889   C897    1.404   .     A
C889   C891    1.394   .     A
C889   H907    1.083   .     S
C890   H908    1.083   .     S
C890   C892    1.393   .     A
C890   C898    1.404   .     A
C891   H906    1.079   .     S
C892   H905    1.082   .     S
C893   H904    1.078   .     S
C893   C895    1.395   .     A
C894   H903    1.076   .     S
C894   C896    1.396   .     A
C895   C897    1.416   .     A
C895   C899    1.418   .     A
C896   C898    1.418   .     A
C896   C900    1.419   .     A
C897   C315    1.391   1_556 S
C899   C342    1.415   1_556 S
N917   Zn927   2.019   .     S
N918   Zn928   2.019   .     S
O919   Zn927   2.001   .     S
O920   Zn928   2.001   .     S
O921   Zn928   1.995   .     S
O922   Zn927   1.995   .     S
O923   Zn927   1.969   .     S
O924   Zn928   1.969   .     S
O925   Zn928   1.912   .     S
O926   Zn927   1.912   .     S
C931   O981    1.288   .     A
C931   C942    1.418   .     S
C931   O983    1.285   .     A
C932   O982    1.288   .     A
C932   C941    1.419   .     S
C932   O984    1.285   .     A
C933   C935    1.389   .     A
C933   C962    1.418   .     A
C933   H971    1.078   .     S
C934   H972    1.079   .     S
C934   C961    1.417   .     A
C934   C936    1.388   .     A
C935   H963    1.084   .     S
C936   H964    1.084   .     S
C936   C402    1.391   1_556 S
C937   H973    1.084   .     S
C937   C942    1.398   .     A
C937   C567    1.370   1_565 S
C938   H974    1.084   .     S
C938   C941    1.398   .     A
C939   H975    1.084   .     S
C939   C941    1.396   .     A
C940   H976    1.084   .     S
C940   C942    1.396   .     A
C940   C566    1.370   1_565 S
C943   N980    1.379   .     A
C943   I991    2.112   .     S
C943   C1007   1.415   .     S
C944   I992    2.110   .     S
C944   N979    1.380   .     A
C944   C1070   1.414   1_455 S
C945   N979    1.359   .     A
C945   H977    1.082   .     S
C945   C1067   1.415   1_455 S
C946   H978    1.082   .     S
C946   N980    1.358   .     A
C946   C1006   1.414   .     S
C947   O985    1.300   .     A
C947   C949    1.461   .     S
C947   O987    1.294   .     A
C948   O986    1.298   .     A
C948   C950    1.460   .     S
C948   O988    1.295   .     A
C949   C953    1.398   .     A
C949   C955    1.393   .     A
C950   C954    1.398   .     A
C950   C956    1.395   .     A
C951   C959    1.404   .     A
C951   C953    1.394   .     A
C951   H969    1.083   .     S
C952   H970    1.083   .     S
C952   C954    1.393   .     A
C952   C960    1.404   .     A
C953   H968    1.079   .     S
C954   H967    1.082   .     S
C955   H966    1.078   .     S
C955   C957    1.395   .     A
C956   H965    1.076   .     S
C956   C958    1.396   .     A
C957   C959    1.416   .     A
C957   C961    1.418   .     A
C958   C960    1.418   .     A
C958   C962    1.419   .     A
C959   C377    1.391   1_556 S
C961   C404    1.415   1_556 S
N979   Zn989   2.019   .     S
N980   Zn990   2.019   .     S
O981   Zn989   2.001   .     S
O982   Zn990   2.001   .     S
O983   Zn990   1.995   .     S
O984   Zn989   1.995   .     S
O985   Zn989   1.969   .     S
O986   Zn990   1.969   .     S
O987   Zn990   1.912   .     S
O988   Zn989   1.912   .     S
C993   O1043   1.288   .     A
C993   C1004   1.418   .     S
C993   O1045   1.285   .     A
C994   O1044   1.288   .     A
C994   C1003   1.419   .     S
C994   O1046   1.285   .     A
C995   C997    1.389   .     A
C995   C1024   1.418   .     A
C995   H1033   1.078   .     S
C996   H1034   1.079   .     S
C996   C1023   1.417   .     A
C996   C998    1.388   .     A
C997   H1025   1.084   .     S
C998   H1026   1.084   .     S
C998   C464    1.391   1_556 S
C999   H1035   1.084   .     S
C999   C1004   1.398   .     A
C999   C629    1.370   1_565 S
C1000  H1036   1.084   .     S
C1000  C1003   1.398   .     A
C1001  H1037   1.084   .     S
C1001  C1003   1.396   .     A
C1002  H1038   1.084   .     S
C1002  C1004   1.396   .     A
C1002  C628    1.370   1_565 S
C1005  N1042   1.379   .     A
C1005  I1053   2.112   .     S
C1005  C1069   1.415   .     S
C1006  I1054   2.110   .     S
C1006  N1041   1.380   .     A
C1007  N1041   1.359   .     A
C1007  H1039   1.082   .     S
C1008  H1040   1.082   .     S
C1008  N1042   1.358   .     A
C1008  C1068   1.414   .     S
C1009  O1047   1.300   .     A
C1009  C1011   1.461   .     S
C1009  O1049   1.294   .     A
C1010  O1048   1.298   .     A
C1010  C1012   1.460   .     S
C1010  O1050   1.295   .     A
C1011  C1015   1.398   .     A
C1011  C1017   1.393   .     A
C1012  C1016   1.398   .     A
C1012  C1018   1.395   .     A
C1013  C1021   1.404   .     A
C1013  C1015   1.394   .     A
C1013  H1031   1.083   .     S
C1014  H1032   1.083   .     S
C1014  C1016   1.393   .     A
C1014  C1022   1.404   .     A
C1015  H1030   1.079   .     S
C1016  H1029   1.082   .     S
C1017  H1028   1.078   .     S
C1017  C1019   1.395   .     A
C1018  H1027   1.076   .     S
C1018  C1020   1.396   .     A
C1019  C1021   1.416   .     A
C1019  C1023   1.418   .     A
C1020  C1022   1.418   .     A
C1020  C1024   1.419   .     A
C1021  C439    1.391   1_556 S
C1023  C466    1.415   1_556 S
N1041  Zn1051  2.019   .     S
N1042  Zn1052  2.019   .     S
O1043  Zn1051  2.001   .     S
O1044  Zn1052  2.001   .     S
O1045  Zn1052  1.995   .     S
O1046  Zn1051  1.995   .     S
O1047  Zn1051  1.969   .     S
O1048  Zn1052  1.969   .     S
O1049  Zn1052  1.912   .     S
O1050  Zn1051  1.912   .     S
C1055  O1105   1.288   .     A
C1055  C1066   1.418   .     S
C1055  O1107   1.285   .     A
C1056  O1106   1.288   .     A
C1056  C1065   1.419   .     S
C1056  O1108   1.285   .     A
C1057  C1059   1.389   .     A
C1057  C1086   1.418   .     A
C1057  H1095   1.078   .     S
C1058  H1096   1.079   .     S
C1058  C1085   1.417   .     A
C1058  C1060   1.388   .     A
C1059  H1087   1.084   .     S
C1060  H1088   1.084   .     S
C1060  C526    1.391   1_556 S
C1061  H1097   1.084   .     S
C1061  C1066   1.398   .     A
C1061  C691    1.370   1_565 S
C1062  H1098   1.084   .     S
C1062  C1065   1.398   .     A
C1063  H1099   1.084   .     S
C1063  C1065   1.396   .     A
C1064  H1100   1.084   .     S
C1064  C1066   1.396   .     A
C1064  C690    1.370   1_565 S
C1067  N1104   1.379   .     A
C1067  I1115   2.112   .     S
C1067  C945    1.415   1_655 S
C1068  I1116   2.110   .     S
C1068  N1103   1.380   .     A
C1069  N1103   1.359   .     A
C1069  H1101   1.082   .     S
C1070  H1102   1.082   .     S
C1070  N1104   1.358   .     A
C1070  C944    1.414   1_655 S
C1071  O1109   1.300   .     A
C1071  C1073   1.461   .     S
C1071  O1111   1.294   .     A
C1072  O1110   1.298   .     A
C1072  C1074   1.460   .     S
C1072  O1112   1.295   .     A
C1073  C1077   1.398   .     A
C1073  C1079   1.393   .     A
C1074  C1078   1.398   .     A
C1074  C1080   1.395   .     A
C1075  C1083   1.404   .     A
C1075  C1077   1.394   .     A
C1075  H1093   1.083   .     S
C1076  H1094   1.083   .     S
C1076  C1078   1.393   .     A
C1076  C1084   1.404   .     A
C1077  H1092   1.079   .     S
C1078  H1091   1.082   .     S
C1079  H1090   1.078   .     S
C1079  C1081   1.395   .     A
C1080  H1089   1.076   .     S
C1080  C1082   1.396   .     A
C1081  C1083   1.416   .     A
C1081  C1085   1.418   .     A
C1082  C1084   1.418   .     A
C1082  C1086   1.419   .     A
C1083  C501    1.391   1_556 S
C1085  C528    1.415   1_556 S
N1103  Zn1113  2.019   .     S
N1104  Zn1114  2.019   .     S
O1105  Zn1113  2.001   .     S
O1106  Zn1114  2.001   .     S
O1107  Zn1114  1.995   .     S
O1108  Zn1113  1.995   .     S
O1109  Zn1113  1.969   .     S
O1110  Zn1114  1.969   .     S
O1111  Zn1114  1.912   .     S
O1112  Zn1113  1.912   .     S
