data_str_m3_o1_o2_pcu_sym.109
_audit_creation_date              2020-01-03
_audit_creation_method            'Materials Studio'
_symmetry_space_group_name_H-M    'P1'
_symmetry_Int_Tables_number       1
_symmetry_cell_setting            triclinic
loop_
_symmetry_equiv_pos_as_xyz
  x,y,z
_cell_length_a                    32.0008
_cell_length_b                    29.4565
_cell_length_c                    29.7946
_cell_angle_alpha                 90.3425
_cell_angle_beta                  89.9145
_cell_angle_gamma                 89.4632
loop_
_atom_site_label
_atom_site_type_symbol
_atom_site_fract_x
_atom_site_fract_y
_atom_site_fract_z
_atom_site_U_iso_or_equiv
_atom_site_adp_type
_atom_site_occupancy
C1     C     0.08678   0.16692   0.24995   0.00000  Uiso   1.00
C2     C     0.24653   0.16639   0.24995   0.00000  Uiso   1.00
C3     C     0.16887   0.16650   0.16347   0.00000  Uiso   1.00
C4     C     0.16866   0.16686   0.33653   0.00000  Uiso   1.00
C5     C     0.19672   0.02380   0.27262   0.00000  Uiso   1.00
C6     C     0.13686   0.30949   0.22697   0.00000  Uiso   1.00
C7     C     0.13683   0.02418   0.22701   0.00000  Uiso   1.00
C8     C     0.19660   0.30914   0.27282   0.00000  Uiso   1.00
C9     C     0.02176   0.15355   0.21023   0.00000  Uiso   1.00
C10    C     0.31139   0.18057   0.28954   0.00000  Uiso   1.00
C11    C     0.31163   0.15080   0.21134   0.00000  Uiso   1.00
C12    C     0.02161   0.18129   0.28900   0.00000  Uiso   1.00
C13    C     0.21031   0.20115   0.05032   0.00000  Uiso   1.00
C14    C     0.21230   0.13334   0.44918   0.00000  Uiso   1.00
C15    C     0.17559   0.20508   0.45710   0.00000  Uiso   1.00
C16    C     0.17781   0.12770   0.04307   0.00000  Uiso   1.00
C17    C     0.20115   0.20252   0.09590   0.00000  Uiso   1.00
C18    C     0.20357   0.13228   0.40350   0.00000  Uiso   1.00
C19    C     0.16595   0.20526   0.41173   0.00000  Uiso   1.00
C20    C     0.16796   0.12753   0.08846   0.00000  Uiso   1.00
C21    C     0.17854   0.16591   0.11535   0.00000  Uiso   1.00
C22    C     0.17856   0.16763   0.38455   0.00000  Uiso   1.00
C23    C     0.19770   0.16470   0.02408   0.00000  Uiso   1.00
C24    C     0.19743   0.16882   0.47578   0.00000  Uiso   1.00
C25    C     0.29067   0.16564   0.25050   0.00000  Uiso   1.00
C26    C     0.04254   0.16762   0.24949   0.00000  Uiso   1.00
H27    H     0.22091   0.04183   0.29041   0.00000  Uiso   1.00
H28    H     0.11310   0.29139   0.20854   0.00000  Uiso   1.00
H29    H     0.11305   0.04254   0.20859   0.00000  Uiso   1.00
H30    H     0.22048   0.29078   0.29111   0.00000  Uiso   1.00
H31    H     0.22578   0.22949   0.03447   0.00000  Uiso   1.00
H32    H     0.22950   0.10568   0.46466   0.00000  Uiso   1.00
H33    H     0.16407   0.23221   0.47870   0.00000  Uiso   1.00
H34    H     0.16786   0.09993   0.02167   0.00000  Uiso   1.00
N35    N     0.16667   0.28573   0.25000   0.00000  Uiso   1.00
N36    N     0.16667   0.04760   0.25000   0.00000  Uiso   1.00
O37    O     0.10559   0.20487   0.24999   0.00000  Uiso   1.00
O38    O     0.22774   0.12846   0.25000   0.00000  Uiso   1.00
O39    O     0.22774   0.20487   0.25000   0.00000  Uiso   1.00
O40    O     0.10559   0.12846   0.24999   0.00000  Uiso   1.00
O41    O     0.16666   0.20489   0.18453   0.00000  Uiso   1.00
O42    O     0.16667   0.12845   0.31547   0.00000  Uiso   1.00
O43    O     0.16667   0.20489   0.31547   0.00000  Uiso   1.00
O44    O     0.16666   0.12845   0.18453   0.00000  Uiso   1.00
Zn45   Zn    0.16667   0.21771   0.25000   0.00000  Uiso   1.00
Zn46   Zn    0.16667   0.11563   0.25000   0.00000  Uiso   1.00
C47    C     0.21591   0.24362   0.12199   0.00000  Uiso   1.00
H48    H     0.23454   0.23304   0.15157   0.00000  Uiso   1.00
H49    H     0.23628   0.26570   0.10144   0.00000  Uiso   1.00
H50    H     0.18872   0.26469   0.13277   0.00000  Uiso   1.00
C51    C     0.22178   0.09329   0.37647   0.00000  Uiso   1.00
H52    H     0.19647   0.07019   0.36568   0.00000  Uiso   1.00
H53    H     0.23900   0.10630   0.34692   0.00000  Uiso   1.00
H54    H     0.24434   0.07275   0.39631   0.00000  Uiso   1.00
C55    C     0.14114   0.24532   0.39435   0.00000  Uiso   1.00
H56    H     0.11280   0.23330   0.37705   0.00000  Uiso   1.00
H57    H     0.13063   0.26846   0.42179   0.00000  Uiso   1.00
H58    H     0.16058   0.26573   0.37127   0.00000  Uiso   1.00
C59    C     0.14506   0.08662   0.10610   0.00000  Uiso   1.00
H60    H     0.16560   0.06695   0.12899   0.00000  Uiso   1.00
H61    H     0.11612   0.09738   0.12375   0.00000  Uiso   1.00
H62    H     0.13560   0.06310   0.07874   0.00000  Uiso   1.00
C63    C     0.04546   0.14302   0.16710   0.00000  Uiso   1.00
H64    H     0.07903   0.15137   0.16864   0.00000  Uiso   1.00
H65    H     0.04283   0.10636   0.15882   0.00000  Uiso   1.00
H66    H     0.03258   0.16375   0.13926   0.00000  Uiso   1.00
C67    C     0.28767   0.19480   0.33176   0.00000  Uiso   1.00
H68    H     0.25338   0.19243   0.32906   0.00000  Uiso   1.00
H69    H     0.29679   0.17245   0.36006   0.00000  Uiso   1.00
H70    H     0.29476   0.23067   0.34020   0.00000  Uiso   1.00
C71    C     0.28688   0.13297   0.17135   0.00000  Uiso   1.00
H72    H     0.26892   0.10263   0.18141   0.00000  Uiso   1.00
H73    H     0.26488   0.15952   0.15950   0.00000  Uiso   1.00
H74    H     0.30606   0.12232   0.14219   0.00000  Uiso   1.00
C75    C     0.04661   0.19684   0.32956   0.00000  Uiso   1.00
H76    H     0.06327   0.22844   0.32081   0.00000  Uiso   1.00
H77    H     0.02793   0.20441   0.35996   0.00000  Uiso   1.00
H78    H     0.06963   0.17014   0.33902   0.00000  Uiso   1.00
C79    C     0.42011   0.16692   0.24995   0.00000  Uiso   1.00
C80    C     0.57986   0.16639   0.24995   0.00000  Uiso   1.00
C81    C     0.50220   0.16650   0.16347   0.00000  Uiso   1.00
C82    C     0.50199   0.16686   0.33653   0.00000  Uiso   1.00
C83    C     0.53005   0.02380   0.27262   0.00000  Uiso   1.00
C84    C     0.47020   0.30949   0.22697   0.00000  Uiso   1.00
C85    C     0.47017   0.02418   0.22701   0.00000  Uiso   1.00
C86    C     0.52993   0.30914   0.27282   0.00000  Uiso   1.00
C87    C     0.35510   0.15355   0.21023   0.00000  Uiso   1.00
C88    C     0.64472   0.18057   0.28954   0.00000  Uiso   1.00
C89    C     0.64497   0.15080   0.21134   0.00000  Uiso   1.00
C90    C     0.35494   0.18129   0.28900   0.00000  Uiso   1.00
C91    C     0.54365   0.20115   0.05032   0.00000  Uiso   1.00
C92    C     0.54563   0.13334   0.44918   0.00000  Uiso   1.00
C93    C     0.50892   0.20508   0.45710   0.00000  Uiso   1.00
C94    C     0.51115   0.12770   0.04307   0.00000  Uiso   1.00
C95    C     0.53448   0.20252   0.09590   0.00000  Uiso   1.00
C96    C     0.53690   0.13228   0.40350   0.00000  Uiso   1.00
C97    C     0.49928   0.20526   0.41173   0.00000  Uiso   1.00
C98    C     0.50129   0.12753   0.08846   0.00000  Uiso   1.00
C99    C     0.51188   0.16591   0.11535   0.00000  Uiso   1.00
C100   C     0.51189   0.16763   0.38455   0.00000  Uiso   1.00
C101   C     0.53103   0.16470   0.02408   0.00000  Uiso   1.00
C102   C     0.53076   0.16882   0.47578   0.00000  Uiso   1.00
C103   C     0.62400   0.16564   0.25050   0.00000  Uiso   1.00
C104   C     0.37587   0.16762   0.24949   0.00000  Uiso   1.00
H105   H     0.55424   0.04183   0.29041   0.00000  Uiso   1.00
H106   H     0.44643   0.29139   0.20854   0.00000  Uiso   1.00
H107   H     0.44638   0.04254   0.20859   0.00000  Uiso   1.00
H108   H     0.55381   0.29078   0.29111   0.00000  Uiso   1.00
H109   H     0.55911   0.22949   0.03447   0.00000  Uiso   1.00
H110   H     0.56284   0.10568   0.46466   0.00000  Uiso   1.00
H111   H     0.49740   0.23221   0.47870   0.00000  Uiso   1.00
H112   H     0.50119   0.09993   0.02167   0.00000  Uiso   1.00
N113   N     0.50000   0.28573   0.25000   0.00000  Uiso   1.00
N114   N     0.50000   0.04760   0.25000   0.00000  Uiso   1.00
O115   O     0.43892   0.20487   0.24999   0.00000  Uiso   1.00
O116   O     0.56108   0.12846   0.25000   0.00000  Uiso   1.00
O117   O     0.56108   0.20487   0.25000   0.00000  Uiso   1.00
O118   O     0.43892   0.12846   0.24999   0.00000  Uiso   1.00
O119   O     0.50000   0.20489   0.18453   0.00000  Uiso   1.00
O120   O     0.50000   0.12845   0.31547   0.00000  Uiso   1.00
O121   O     0.50000   0.20489   0.31547   0.00000  Uiso   1.00
O122   O     0.50000   0.12845   0.18453   0.00000  Uiso   1.00
Zn123  Zn    0.50000   0.21771   0.25000   0.00000  Uiso   1.00
Zn124  Zn    0.50000   0.11563   0.25000   0.00000  Uiso   1.00
C125   C     0.54925   0.24362   0.12199   0.00000  Uiso   1.00
H126   H     0.56788   0.23304   0.15157   0.00000  Uiso   1.00
H127   H     0.56962   0.26570   0.10144   0.00000  Uiso   1.00
H128   H     0.52206   0.26469   0.13277   0.00000  Uiso   1.00
C129   C     0.55511   0.09329   0.37647   0.00000  Uiso   1.00
H130   H     0.52980   0.07019   0.36568   0.00000  Uiso   1.00
H131   H     0.57233   0.10630   0.34692   0.00000  Uiso   1.00
H132   H     0.57768   0.07275   0.39631   0.00000  Uiso   1.00
C133   C     0.47447   0.24532   0.39435   0.00000  Uiso   1.00
H134   H     0.44613   0.23330   0.37705   0.00000  Uiso   1.00
H135   H     0.46396   0.26846   0.42179   0.00000  Uiso   1.00
H136   H     0.49391   0.26573   0.37127   0.00000  Uiso   1.00
C137   C     0.47839   0.08662   0.10610   0.00000  Uiso   1.00
H138   H     0.49893   0.06695   0.12899   0.00000  Uiso   1.00
H139   H     0.44946   0.09738   0.12375   0.00000  Uiso   1.00
H140   H     0.46893   0.06310   0.07874   0.00000  Uiso   1.00
C141   C     0.37879   0.14302   0.16710   0.00000  Uiso   1.00
H142   H     0.41237   0.15137   0.16864   0.00000  Uiso   1.00
H143   H     0.37616   0.10636   0.15882   0.00000  Uiso   1.00
H144   H     0.36591   0.16375   0.13926   0.00000  Uiso   1.00
C145   C     0.62101   0.19480   0.33176   0.00000  Uiso   1.00
H146   H     0.58671   0.19243   0.32906   0.00000  Uiso   1.00
H147   H     0.63012   0.17245   0.36006   0.00000  Uiso   1.00
H148   H     0.62809   0.23067   0.34020   0.00000  Uiso   1.00
C149   C     0.62022   0.13297   0.17135   0.00000  Uiso   1.00
H150   H     0.60225   0.10263   0.18141   0.00000  Uiso   1.00
H151   H     0.59821   0.15952   0.15950   0.00000  Uiso   1.00
H152   H     0.63939   0.12232   0.14219   0.00000  Uiso   1.00
C153   C     0.37994   0.19684   0.32956   0.00000  Uiso   1.00
H154   H     0.39661   0.22844   0.32081   0.00000  Uiso   1.00
H155   H     0.36126   0.20441   0.35996   0.00000  Uiso   1.00
H156   H     0.40296   0.17014   0.33902   0.00000  Uiso   1.00
C157   C     0.75344   0.16692   0.24995   0.00000  Uiso   1.00
C158   C     0.91320   0.16639   0.24995   0.00000  Uiso   1.00
C159   C     0.83553   0.16650   0.16347   0.00000  Uiso   1.00
C160   C     0.83533   0.16686   0.33653   0.00000  Uiso   1.00
C161   C     0.86338   0.02380   0.27262   0.00000  Uiso   1.00
C162   C     0.80353   0.30949   0.22697   0.00000  Uiso   1.00
C163   C     0.80350   0.02418   0.22701   0.00000  Uiso   1.00
C164   C     0.86327   0.30914   0.27282   0.00000  Uiso   1.00
C165   C     0.68843   0.15355   0.21023   0.00000  Uiso   1.00
C166   C     0.97806   0.18057   0.28954   0.00000  Uiso   1.00
C167   C     0.97830   0.15080   0.21134   0.00000  Uiso   1.00
C168   C     0.68827   0.18129   0.28900   0.00000  Uiso   1.00
C169   C     0.87698   0.20115   0.05032   0.00000  Uiso   1.00
C170   C     0.87896   0.13334   0.44918   0.00000  Uiso   1.00
C171   C     0.84226   0.20508   0.45710   0.00000  Uiso   1.00
C172   C     0.84448   0.12770   0.04307   0.00000  Uiso   1.00
C173   C     0.86781   0.20252   0.09590   0.00000  Uiso   1.00
C174   C     0.87024   0.13228   0.40350   0.00000  Uiso   1.00
C175   C     0.83262   0.20526   0.41173   0.00000  Uiso   1.00
C176   C     0.83463   0.12753   0.08846   0.00000  Uiso   1.00
C177   C     0.84521   0.16591   0.11535   0.00000  Uiso   1.00
C178   C     0.84523   0.16763   0.38455   0.00000  Uiso   1.00
C179   C     0.86436   0.16470   0.02408   0.00000  Uiso   1.00
C180   C     0.86409   0.16882   0.47578   0.00000  Uiso   1.00
C181   C     0.95733   0.16564   0.25050   0.00000  Uiso   1.00
C182   C     0.70921   0.16762   0.24949   0.00000  Uiso   1.00
H183   H     0.88758   0.04183   0.29041   0.00000  Uiso   1.00
H184   H     0.77976   0.29139   0.20854   0.00000  Uiso   1.00
H185   H     0.77972   0.04254   0.20859   0.00000  Uiso   1.00
H186   H     0.88714   0.29078   0.29111   0.00000  Uiso   1.00
H187   H     0.89245   0.22949   0.03447   0.00000  Uiso   1.00
H188   H     0.89617   0.10568   0.46466   0.00000  Uiso   1.00
H189   H     0.83074   0.23221   0.47870   0.00000  Uiso   1.00
H190   H     0.83453   0.09993   0.02167   0.00000  Uiso   1.00
N191   N     0.83333   0.28573   0.25000   0.00000  Uiso   1.00
N192   N     0.83333   0.04760   0.25000   0.00000  Uiso   1.00
O193   O     0.77226   0.20487   0.24999   0.00000  Uiso   1.00
O194   O     0.89441   0.12846   0.25000   0.00000  Uiso   1.00
O195   O     0.89441   0.20487   0.25000   0.00000  Uiso   1.00
O196   O     0.77226   0.12846   0.24999   0.00000  Uiso   1.00
O197   O     0.83333   0.20489   0.18453   0.00000  Uiso   1.00
O198   O     0.83334   0.12845   0.31547   0.00000  Uiso   1.00
O199   O     0.83334   0.20489   0.31547   0.00000  Uiso   1.00
O200   O     0.83333   0.12845   0.18453   0.00000  Uiso   1.00
Zn201  Zn    0.83333   0.21771   0.25000   0.00000  Uiso   1.00
Zn202  Zn    0.83333   0.11563   0.25000   0.00000  Uiso   1.00
C203   C     0.88258   0.24362   0.12199   0.00000  Uiso   1.00
H204   H     0.90121   0.23304   0.15157   0.00000  Uiso   1.00
H205   H     0.90295   0.26570   0.10144   0.00000  Uiso   1.00
H206   H     0.85539   0.26469   0.13277   0.00000  Uiso   1.00
C207   C     0.88845   0.09329   0.37647   0.00000  Uiso   1.00
H208   H     0.86313   0.07019   0.36568   0.00000  Uiso   1.00
H209   H     0.90566   0.10630   0.34692   0.00000  Uiso   1.00
H210   H     0.91101   0.07275   0.39631   0.00000  Uiso   1.00
C211   C     0.80780   0.24532   0.39435   0.00000  Uiso   1.00
H212   H     0.77946   0.23330   0.37705   0.00000  Uiso   1.00
H213   H     0.79729   0.26846   0.42179   0.00000  Uiso   1.00
H214   H     0.82724   0.26573   0.37127   0.00000  Uiso   1.00
C215   C     0.81172   0.08662   0.10610   0.00000  Uiso   1.00
H216   H     0.83227   0.06695   0.12899   0.00000  Uiso   1.00
H217   H     0.78279   0.09738   0.12375   0.00000  Uiso   1.00
H218   H     0.80226   0.06310   0.07874   0.00000  Uiso   1.00
C219   C     0.71213   0.14302   0.16710   0.00000  Uiso   1.00
H220   H     0.74570   0.15137   0.16864   0.00000  Uiso   1.00
H221   H     0.70949   0.10636   0.15882   0.00000  Uiso   1.00
H222   H     0.69925   0.16375   0.13926   0.00000  Uiso   1.00
C223   C     0.95434   0.19480   0.33176   0.00000  Uiso   1.00
H224   H     0.92005   0.19243   0.32906   0.00000  Uiso   1.00
H225   H     0.96345   0.17245   0.36006   0.00000  Uiso   1.00
H226   H     0.96143   0.23067   0.34020   0.00000  Uiso   1.00
C227   C     0.95355   0.13297   0.17135   0.00000  Uiso   1.00
H228   H     0.93558   0.10263   0.18141   0.00000  Uiso   1.00
H229   H     0.93154   0.15952   0.15950   0.00000  Uiso   1.00
H230   H     0.97272   0.12232   0.14219   0.00000  Uiso   1.00
C231   C     0.71327   0.19684   0.32956   0.00000  Uiso   1.00
H232   H     0.72994   0.22844   0.32081   0.00000  Uiso   1.00
H233   H     0.69460   0.20441   0.35996   0.00000  Uiso   1.00
H234   H     0.73630   0.17014   0.33902   0.00000  Uiso   1.00
C235   C     0.08678   0.50025   0.24995   0.00000  Uiso   1.00
C236   C     0.24653   0.49973   0.24995   0.00000  Uiso   1.00
C237   C     0.16887   0.49983   0.16347   0.00000  Uiso   1.00
C238   C     0.16866   0.50019   0.33653   0.00000  Uiso   1.00
C239   C     0.19672   0.35714   0.27262   0.00000  Uiso   1.00
C240   C     0.13686   0.64283   0.22697   0.00000  Uiso   1.00
C241   C     0.13683   0.35751   0.22701   0.00000  Uiso   1.00
C242   C     0.19660   0.64248   0.27282   0.00000  Uiso   1.00
C243   C     0.02176   0.48688   0.21023   0.00000  Uiso   1.00
C244   C     0.31139   0.51391   0.28954   0.00000  Uiso   1.00
C245   C     0.31163   0.48413   0.21134   0.00000  Uiso   1.00
C246   C     0.02161   0.51462   0.28900   0.00000  Uiso   1.00
C247   C     0.21031   0.53448   0.05032   0.00000  Uiso   1.00
C248   C     0.21230   0.46668   0.44918   0.00000  Uiso   1.00
C249   C     0.17559   0.53841   0.45710   0.00000  Uiso   1.00
C250   C     0.17781   0.46104   0.04307   0.00000  Uiso   1.00
C251   C     0.20115   0.53586   0.09590   0.00000  Uiso   1.00
C252   C     0.20357   0.46561   0.40350   0.00000  Uiso   1.00
C253   C     0.16595   0.53860   0.41173   0.00000  Uiso   1.00
C254   C     0.16796   0.46086   0.08846   0.00000  Uiso   1.00
C255   C     0.17854   0.49924   0.11535   0.00000  Uiso   1.00
C256   C     0.17856   0.50097   0.38455   0.00000  Uiso   1.00
C257   C     0.19770   0.49804   0.02408   0.00000  Uiso   1.00
C258   C     0.19743   0.50215   0.47578   0.00000  Uiso   1.00
C259   C     0.29067   0.49897   0.25050   0.00000  Uiso   1.00
C260   C     0.04254   0.50095   0.24949   0.00000  Uiso   1.00
H261   H     0.22091   0.37516   0.29041   0.00000  Uiso   1.00
H262   H     0.11310   0.62472   0.20854   0.00000  Uiso   1.00
H263   H     0.11305   0.37588   0.20859   0.00000  Uiso   1.00
H264   H     0.22048   0.62411   0.29111   0.00000  Uiso   1.00
H265   H     0.22578   0.56283   0.03447   0.00000  Uiso   1.00
H266   H     0.22950   0.43902   0.46466   0.00000  Uiso   1.00
H267   H     0.16407   0.56555   0.47870   0.00000  Uiso   1.00
H268   H     0.16786   0.43326   0.02167   0.00000  Uiso   1.00
N269   N     0.16667   0.61907   0.25000   0.00000  Uiso   1.00
N270   N     0.16667   0.38093   0.25000   0.00000  Uiso   1.00
O271   O     0.10559   0.53821   0.24999   0.00000  Uiso   1.00
O272   O     0.22774   0.46179   0.25000   0.00000  Uiso   1.00
O273   O     0.22774   0.53821   0.25000   0.00000  Uiso   1.00
O274   O     0.10559   0.46179   0.24999   0.00000  Uiso   1.00
O275   O     0.16666   0.53822   0.18453   0.00000  Uiso   1.00
O276   O     0.16667   0.46178   0.31547   0.00000  Uiso   1.00
O277   O     0.16667   0.53822   0.31547   0.00000  Uiso   1.00
O278   O     0.16666   0.46178   0.18453   0.00000  Uiso   1.00
Zn279  Zn    0.16667   0.55104   0.25000   0.00000  Uiso   1.00
Zn280  Zn    0.16667   0.44896   0.25000   0.00000  Uiso   1.00
C281   C     0.21591   0.57695   0.12199   0.00000  Uiso   1.00
H282   H     0.23454   0.56637   0.15157   0.00000  Uiso   1.00
H283   H     0.23628   0.59904   0.10144   0.00000  Uiso   1.00
H284   H     0.18872   0.59802   0.13277   0.00000  Uiso   1.00
C285   C     0.22178   0.42662   0.37647   0.00000  Uiso   1.00
H286   H     0.19647   0.40352   0.36568   0.00000  Uiso   1.00
H287   H     0.23900   0.43963   0.34692   0.00000  Uiso   1.00
H288   H     0.24434   0.40608   0.39631   0.00000  Uiso   1.00
C289   C     0.14114   0.57866   0.39435   0.00000  Uiso   1.00
H290   H     0.11280   0.56664   0.37705   0.00000  Uiso   1.00
H291   H     0.13063   0.60179   0.42179   0.00000  Uiso   1.00
H292   H     0.16058   0.59906   0.37127   0.00000  Uiso   1.00
C293   C     0.14506   0.41995   0.10610   0.00000  Uiso   1.00
H294   H     0.16560   0.40028   0.12899   0.00000  Uiso   1.00
H295   H     0.11612   0.43071   0.12375   0.00000  Uiso   1.00
H296   H     0.13560   0.39643   0.07874   0.00000  Uiso   1.00
C297   C     0.04546   0.47635   0.16710   0.00000  Uiso   1.00
H298   H     0.07903   0.48471   0.16864   0.00000  Uiso   1.00
H299   H     0.04283   0.43969   0.15882   0.00000  Uiso   1.00
H300   H     0.03258   0.49709   0.13926   0.00000  Uiso   1.00
C301   C     0.28767   0.52813   0.33176   0.00000  Uiso   1.00
H302   H     0.25338   0.52576   0.32906   0.00000  Uiso   1.00
H303   H     0.29679   0.50579   0.36006   0.00000  Uiso   1.00
H304   H     0.29476   0.56401   0.34020   0.00000  Uiso   1.00
C305   C     0.28688   0.46630   0.17135   0.00000  Uiso   1.00
H306   H     0.26892   0.43597   0.18141   0.00000  Uiso   1.00
H307   H     0.26488   0.49285   0.15950   0.00000  Uiso   1.00
H308   H     0.30606   0.45566   0.14219   0.00000  Uiso   1.00
C309   C     0.04661   0.53018   0.32956   0.00000  Uiso   1.00
H310   H     0.06327   0.56177   0.32081   0.00000  Uiso   1.00
H311   H     0.02793   0.53774   0.35996   0.00000  Uiso   1.00
H312   H     0.06963   0.50347   0.33902   0.00000  Uiso   1.00
C313   C     0.42011   0.50025   0.24995   0.00000  Uiso   1.00
C314   C     0.57986   0.49973   0.24995   0.00000  Uiso   1.00
C315   C     0.50220   0.49983   0.16347   0.00000  Uiso   1.00
C316   C     0.50199   0.50019   0.33653   0.00000  Uiso   1.00
C317   C     0.53005   0.35714   0.27262   0.00000  Uiso   1.00
C318   C     0.47020   0.64283   0.22697   0.00000  Uiso   1.00
C319   C     0.47017   0.35751   0.22701   0.00000  Uiso   1.00
C320   C     0.52993   0.64248   0.27282   0.00000  Uiso   1.00
C321   C     0.35510   0.48688   0.21023   0.00000  Uiso   1.00
C322   C     0.64472   0.51391   0.28954   0.00000  Uiso   1.00
C323   C     0.64497   0.48413   0.21134   0.00000  Uiso   1.00
C324   C     0.35494   0.51462   0.28900   0.00000  Uiso   1.00
C325   C     0.54365   0.53448   0.05032   0.00000  Uiso   1.00
C326   C     0.54563   0.46668   0.44918   0.00000  Uiso   1.00
C327   C     0.50892   0.53841   0.45710   0.00000  Uiso   1.00
C328   C     0.51115   0.46104   0.04307   0.00000  Uiso   1.00
C329   C     0.53448   0.53586   0.09590   0.00000  Uiso   1.00
C330   C     0.53690   0.46561   0.40350   0.00000  Uiso   1.00
C331   C     0.49928   0.53860   0.41173   0.00000  Uiso   1.00
C332   C     0.50129   0.46086   0.08846   0.00000  Uiso   1.00
C333   C     0.51188   0.49924   0.11535   0.00000  Uiso   1.00
C334   C     0.51189   0.50097   0.38455   0.00000  Uiso   1.00
C335   C     0.53103   0.49804   0.02408   0.00000  Uiso   1.00
C336   C     0.53076   0.50215   0.47578   0.00000  Uiso   1.00
C337   C     0.62400   0.49897   0.25050   0.00000  Uiso   1.00
C338   C     0.37587   0.50095   0.24949   0.00000  Uiso   1.00
H339   H     0.55424   0.37516   0.29041   0.00000  Uiso   1.00
H340   H     0.44643   0.62472   0.20854   0.00000  Uiso   1.00
H341   H     0.44638   0.37588   0.20859   0.00000  Uiso   1.00
H342   H     0.55381   0.62411   0.29111   0.00000  Uiso   1.00
H343   H     0.55911   0.56283   0.03447   0.00000  Uiso   1.00
H344   H     0.56284   0.43902   0.46466   0.00000  Uiso   1.00
H345   H     0.49740   0.56555   0.47870   0.00000  Uiso   1.00
H346   H     0.50119   0.43326   0.02167   0.00000  Uiso   1.00
N347   N     0.50000   0.61907   0.25000   0.00000  Uiso   1.00
N348   N     0.50000   0.38093   0.25000   0.00000  Uiso   1.00
O349   O     0.43892   0.53821   0.24999   0.00000  Uiso   1.00
O350   O     0.56108   0.46179   0.25000   0.00000  Uiso   1.00
O351   O     0.56108   0.53821   0.25000   0.00000  Uiso   1.00
O352   O     0.43892   0.46179   0.24999   0.00000  Uiso   1.00
O353   O     0.50000   0.53822   0.18453   0.00000  Uiso   1.00
O354   O     0.50000   0.46178   0.31547   0.00000  Uiso   1.00
O355   O     0.50000   0.53822   0.31547   0.00000  Uiso   1.00
O356   O     0.50000   0.46178   0.18453   0.00000  Uiso   1.00
Zn357  Zn    0.50000   0.55104   0.25000   0.00000  Uiso   1.00
Zn358  Zn    0.50000   0.44896   0.25000   0.00000  Uiso   1.00
C359   C     0.54925   0.57695   0.12199   0.00000  Uiso   1.00
H360   H     0.56788   0.56637   0.15157   0.00000  Uiso   1.00
H361   H     0.56962   0.59904   0.10144   0.00000  Uiso   1.00
H362   H     0.52206   0.59802   0.13277   0.00000  Uiso   1.00
C363   C     0.55511   0.42662   0.37647   0.00000  Uiso   1.00
H364   H     0.52980   0.40352   0.36568   0.00000  Uiso   1.00
H365   H     0.57233   0.43963   0.34692   0.00000  Uiso   1.00
H366   H     0.57768   0.40608   0.39631   0.00000  Uiso   1.00
C367   C     0.47447   0.57866   0.39435   0.00000  Uiso   1.00
H368   H     0.44613   0.56664   0.37705   0.00000  Uiso   1.00
H369   H     0.46396   0.60179   0.42179   0.00000  Uiso   1.00
H370   H     0.49391   0.59906   0.37127   0.00000  Uiso   1.00
C371   C     0.47839   0.41995   0.10610   0.00000  Uiso   1.00
H372   H     0.49893   0.40028   0.12899   0.00000  Uiso   1.00
H373   H     0.44946   0.43071   0.12375   0.00000  Uiso   1.00
H374   H     0.46893   0.39643   0.07874   0.00000  Uiso   1.00
C375   C     0.37879   0.47635   0.16710   0.00000  Uiso   1.00
H376   H     0.41237   0.48471   0.16864   0.00000  Uiso   1.00
H377   H     0.37616   0.43969   0.15882   0.00000  Uiso   1.00
H378   H     0.36591   0.49709   0.13926   0.00000  Uiso   1.00
C379   C     0.62101   0.52813   0.33176   0.00000  Uiso   1.00
H380   H     0.58671   0.52576   0.32906   0.00000  Uiso   1.00
H381   H     0.63012   0.50579   0.36006   0.00000  Uiso   1.00
H382   H     0.62809   0.56401   0.34020   0.00000  Uiso   1.00
C383   C     0.62022   0.46630   0.17135   0.00000  Uiso   1.00
H384   H     0.60225   0.43597   0.18141   0.00000  Uiso   1.00
H385   H     0.59821   0.49285   0.15950   0.00000  Uiso   1.00
H386   H     0.63939   0.45566   0.14219   0.00000  Uiso   1.00
C387   C     0.37994   0.53018   0.32956   0.00000  Uiso   1.00
H388   H     0.39661   0.56177   0.32081   0.00000  Uiso   1.00
H389   H     0.36126   0.53774   0.35996   0.00000  Uiso   1.00
H390   H     0.40296   0.50347   0.33902   0.00000  Uiso   1.00
C391   C     0.75344   0.50025   0.24995   0.00000  Uiso   1.00
C392   C     0.91320   0.49973   0.24995   0.00000  Uiso   1.00
C393   C     0.83553   0.49983   0.16347   0.00000  Uiso   1.00
C394   C     0.83533   0.50019   0.33653   0.00000  Uiso   1.00
C395   C     0.86338   0.35714   0.27262   0.00000  Uiso   1.00
C396   C     0.80353   0.64283   0.22697   0.00000  Uiso   1.00
C397   C     0.80350   0.35751   0.22701   0.00000  Uiso   1.00
C398   C     0.86327   0.64248   0.27282   0.00000  Uiso   1.00
C399   C     0.68843   0.48688   0.21023   0.00000  Uiso   1.00
C400   C     0.97806   0.51391   0.28954   0.00000  Uiso   1.00
C401   C     0.97830   0.48413   0.21134   0.00000  Uiso   1.00
C402   C     0.68827   0.51462   0.28900   0.00000  Uiso   1.00
C403   C     0.87698   0.53448   0.05032   0.00000  Uiso   1.00
C404   C     0.87896   0.46668   0.44918   0.00000  Uiso   1.00
C405   C     0.84226   0.53841   0.45710   0.00000  Uiso   1.00
C406   C     0.84448   0.46104   0.04307   0.00000  Uiso   1.00
C407   C     0.86781   0.53586   0.09590   0.00000  Uiso   1.00
C408   C     0.87024   0.46561   0.40350   0.00000  Uiso   1.00
C409   C     0.83262   0.53860   0.41173   0.00000  Uiso   1.00
C410   C     0.83463   0.46086   0.08846   0.00000  Uiso   1.00
C411   C     0.84521   0.49924   0.11535   0.00000  Uiso   1.00
C412   C     0.84523   0.50097   0.38455   0.00000  Uiso   1.00
C413   C     0.86436   0.49804   0.02408   0.00000  Uiso   1.00
C414   C     0.86409   0.50215   0.47578   0.00000  Uiso   1.00
C415   C     0.95733   0.49897   0.25050   0.00000  Uiso   1.00
C416   C     0.70921   0.50095   0.24949   0.00000  Uiso   1.00
H417   H     0.88758   0.37516   0.29041   0.00000  Uiso   1.00
H418   H     0.77976   0.62472   0.20854   0.00000  Uiso   1.00
H419   H     0.77972   0.37588   0.20859   0.00000  Uiso   1.00
H420   H     0.88714   0.62411   0.29111   0.00000  Uiso   1.00
H421   H     0.89245   0.56283   0.03447   0.00000  Uiso   1.00
H422   H     0.89617   0.43902   0.46466   0.00000  Uiso   1.00
H423   H     0.83074   0.56555   0.47870   0.00000  Uiso   1.00
H424   H     0.83453   0.43326   0.02167   0.00000  Uiso   1.00
N425   N     0.83333   0.61907   0.25000   0.00000  Uiso   1.00
N426   N     0.83333   0.38093   0.25000   0.00000  Uiso   1.00
O427   O     0.77226   0.53821   0.24999   0.00000  Uiso   1.00
O428   O     0.89441   0.46179   0.25000   0.00000  Uiso   1.00
O429   O     0.89441   0.53821   0.25000   0.00000  Uiso   1.00
O430   O     0.77226   0.46179   0.24999   0.00000  Uiso   1.00
O431   O     0.83333   0.53822   0.18453   0.00000  Uiso   1.00
O432   O     0.83334   0.46178   0.31547   0.00000  Uiso   1.00
O433   O     0.83334   0.53822   0.31547   0.00000  Uiso   1.00
O434   O     0.83333   0.46178   0.18453   0.00000  Uiso   1.00
Zn435  Zn    0.83333   0.55104   0.25000   0.00000  Uiso   1.00
Zn436  Zn    0.83333   0.44896   0.25000   0.00000  Uiso   1.00
C437   C     0.88258   0.57695   0.12199   0.00000  Uiso   1.00
H438   H     0.90121   0.56637   0.15157   0.00000  Uiso   1.00
H439   H     0.90295   0.59904   0.10144   0.00000  Uiso   1.00
H440   H     0.85539   0.59802   0.13277   0.00000  Uiso   1.00
C441   C     0.88845   0.42662   0.37647   0.00000  Uiso   1.00
H442   H     0.86313   0.40352   0.36568   0.00000  Uiso   1.00
H443   H     0.90566   0.43963   0.34692   0.00000  Uiso   1.00
H444   H     0.91101   0.40608   0.39631   0.00000  Uiso   1.00
C445   C     0.80780   0.57866   0.39435   0.00000  Uiso   1.00
H446   H     0.77946   0.56664   0.37705   0.00000  Uiso   1.00
H447   H     0.79729   0.60179   0.42179   0.00000  Uiso   1.00
H448   H     0.82724   0.59906   0.37127   0.00000  Uiso   1.00
C449   C     0.81172   0.41995   0.10610   0.00000  Uiso   1.00
H450   H     0.83227   0.40028   0.12899   0.00000  Uiso   1.00
H451   H     0.78279   0.43071   0.12375   0.00000  Uiso   1.00
H452   H     0.80226   0.39643   0.07874   0.00000  Uiso   1.00
C453   C     0.71213   0.47635   0.16710   0.00000  Uiso   1.00
H454   H     0.74570   0.48471   0.16864   0.00000  Uiso   1.00
H455   H     0.70949   0.43969   0.15882   0.00000  Uiso   1.00
H456   H     0.69925   0.49709   0.13926   0.00000  Uiso   1.00
C457   C     0.95434   0.52813   0.33176   0.00000  Uiso   1.00
H458   H     0.92005   0.52576   0.32906   0.00000  Uiso   1.00
H459   H     0.96345   0.50579   0.36006   0.00000  Uiso   1.00
H460   H     0.96143   0.56401   0.34020   0.00000  Uiso   1.00
C461   C     0.95355   0.46630   0.17135   0.00000  Uiso   1.00
H462   H     0.93558   0.43597   0.18141   0.00000  Uiso   1.00
H463   H     0.93154   0.49285   0.15950   0.00000  Uiso   1.00
H464   H     0.97272   0.45566   0.14219   0.00000  Uiso   1.00
C465   C     0.71327   0.53018   0.32956   0.00000  Uiso   1.00
H466   H     0.72994   0.56177   0.32081   0.00000  Uiso   1.00
H467   H     0.69460   0.53774   0.35996   0.00000  Uiso   1.00
H468   H     0.73630   0.50347   0.33902   0.00000  Uiso   1.00
C469   C     0.08678   0.83359   0.24995   0.00000  Uiso   1.00
C470   C     0.24653   0.83306   0.24995   0.00000  Uiso   1.00
C471   C     0.16887   0.83317   0.16347   0.00000  Uiso   1.00
C472   C     0.16866   0.83352   0.33653   0.00000  Uiso   1.00
C473   C     0.19672   0.69047   0.27262   0.00000  Uiso   1.00
C474   C     0.13686   0.97616   0.22697   0.00000  Uiso   1.00
C475   C     0.13683   0.69084   0.22701   0.00000  Uiso   1.00
C476   C     0.19660   0.97581   0.27282   0.00000  Uiso   1.00
C477   C     0.02176   0.82021   0.21023   0.00000  Uiso   1.00
C478   C     0.31139   0.84724   0.28954   0.00000  Uiso   1.00
C479   C     0.31163   0.81746   0.21134   0.00000  Uiso   1.00
C480   C     0.02161   0.84796   0.28900   0.00000  Uiso   1.00
C481   C     0.21031   0.86782   0.05032   0.00000  Uiso   1.00
C482   C     0.21230   0.80001   0.44918   0.00000  Uiso   1.00
C483   C     0.17559   0.87174   0.45710   0.00000  Uiso   1.00
C484   C     0.17781   0.79437   0.04307   0.00000  Uiso   1.00
C485   C     0.20115   0.86919   0.09590   0.00000  Uiso   1.00
C486   C     0.20357   0.79895   0.40350   0.00000  Uiso   1.00
C487   C     0.16595   0.87193   0.41173   0.00000  Uiso   1.00
C488   C     0.16796   0.79420   0.08846   0.00000  Uiso   1.00
C489   C     0.17854   0.83257   0.11535   0.00000  Uiso   1.00
C490   C     0.17856   0.83430   0.38455   0.00000  Uiso   1.00
C491   C     0.19770   0.83137   0.02408   0.00000  Uiso   1.00
C492   C     0.19743   0.83549   0.47578   0.00000  Uiso   1.00
C493   C     0.29067   0.83230   0.25050   0.00000  Uiso   1.00
C494   C     0.04254   0.83429   0.24949   0.00000  Uiso   1.00
H495   H     0.22091   0.70849   0.29041   0.00000  Uiso   1.00
H496   H     0.11310   0.95805   0.20854   0.00000  Uiso   1.00
H497   H     0.11305   0.70921   0.20859   0.00000  Uiso   1.00
H498   H     0.22048   0.95744   0.29111   0.00000  Uiso   1.00
H499   H     0.22578   0.89616   0.03447   0.00000  Uiso   1.00
H500   H     0.22950   0.77235   0.46466   0.00000  Uiso   1.00
H501   H     0.16407   0.89888   0.47870   0.00000  Uiso   1.00
H502   H     0.16786   0.76659   0.02167   0.00000  Uiso   1.00
N503   N     0.16667   0.95240   0.25000   0.00000  Uiso   1.00
N504   N     0.16667   0.71427   0.25000   0.00000  Uiso   1.00
O505   O     0.10559   0.87154   0.24999   0.00000  Uiso   1.00
O506   O     0.22774   0.79513   0.25000   0.00000  Uiso   1.00
O507   O     0.22774   0.87154   0.25000   0.00000  Uiso   1.00
O508   O     0.10559   0.79513   0.24999   0.00000  Uiso   1.00
O509   O     0.16666   0.87155   0.18453   0.00000  Uiso   1.00
O510   O     0.16667   0.79511   0.31547   0.00000  Uiso   1.00
O511   O     0.16667   0.87155   0.31547   0.00000  Uiso   1.00
O512   O     0.16666   0.79511   0.18453   0.00000  Uiso   1.00
Zn513  Zn    0.16667   0.88437   0.25000   0.00000  Uiso   1.00
Zn514  Zn    0.16667   0.78229   0.25000   0.00000  Uiso   1.00
C515   C     0.21591   0.91028   0.12199   0.00000  Uiso   1.00
H516   H     0.23454   0.89971   0.15157   0.00000  Uiso   1.00
H517   H     0.23628   0.93237   0.10144   0.00000  Uiso   1.00
H518   H     0.18872   0.93135   0.13277   0.00000  Uiso   1.00
C519   C     0.22178   0.75996   0.37647   0.00000  Uiso   1.00
H520   H     0.19647   0.73686   0.36568   0.00000  Uiso   1.00
H521   H     0.23900   0.77297   0.34692   0.00000  Uiso   1.00
H522   H     0.24434   0.73942   0.39631   0.00000  Uiso   1.00
C523   C     0.14114   0.91199   0.39435   0.00000  Uiso   1.00
H524   H     0.11280   0.89997   0.37705   0.00000  Uiso   1.00
H525   H     0.13063   0.93512   0.42179   0.00000  Uiso   1.00
H526   H     0.16058   0.93240   0.37127   0.00000  Uiso   1.00
C527   C     0.14506   0.75328   0.10610   0.00000  Uiso   1.00
H528   H     0.16560   0.73361   0.12899   0.00000  Uiso   1.00
H529   H     0.11612   0.76405   0.12375   0.00000  Uiso   1.00
H530   H     0.13560   0.72976   0.07874   0.00000  Uiso   1.00
C531   C     0.04546   0.80969   0.16710   0.00000  Uiso   1.00
H532   H     0.07903   0.81804   0.16864   0.00000  Uiso   1.00
H533   H     0.04283   0.77303   0.15882   0.00000  Uiso   1.00
H534   H     0.03258   0.83042   0.13926   0.00000  Uiso   1.00
C535   C     0.28767   0.86147   0.33176   0.00000  Uiso   1.00
H536   H     0.25338   0.85909   0.32906   0.00000  Uiso   1.00
H537   H     0.29679   0.83912   0.36006   0.00000  Uiso   1.00
H538   H     0.29476   0.89734   0.34020   0.00000  Uiso   1.00
C539   C     0.28688   0.79963   0.17135   0.00000  Uiso   1.00
H540   H     0.26892   0.76930   0.18141   0.00000  Uiso   1.00
H541   H     0.26488   0.82619   0.15950   0.00000  Uiso   1.00
H542   H     0.30606   0.78899   0.14219   0.00000  Uiso   1.00
C543   C     0.04661   0.86351   0.32956   0.00000  Uiso   1.00
H544   H     0.06327   0.89510   0.32081   0.00000  Uiso   1.00
H545   H     0.02793   0.87108   0.35996   0.00000  Uiso   1.00
H546   H     0.06963   0.83680   0.33902   0.00000  Uiso   1.00
C547   C     0.42011   0.83359   0.24995   0.00000  Uiso   1.00
C548   C     0.57986   0.83306   0.24995   0.00000  Uiso   1.00
C549   C     0.50220   0.83317   0.16347   0.00000  Uiso   1.00
C550   C     0.50199   0.83352   0.33653   0.00000  Uiso   1.00
C551   C     0.53005   0.69047   0.27262   0.00000  Uiso   1.00
C552   C     0.47020   0.97616   0.22697   0.00000  Uiso   1.00
C553   C     0.47017   0.69084   0.22701   0.00000  Uiso   1.00
C554   C     0.52993   0.97581   0.27282   0.00000  Uiso   1.00
C555   C     0.35510   0.82021   0.21023   0.00000  Uiso   1.00
C556   C     0.64472   0.84724   0.28954   0.00000  Uiso   1.00
C557   C     0.64497   0.81746   0.21134   0.00000  Uiso   1.00
C558   C     0.35494   0.84796   0.28900   0.00000  Uiso   1.00
C559   C     0.54365   0.86782   0.05032   0.00000  Uiso   1.00
C560   C     0.54563   0.80001   0.44918   0.00000  Uiso   1.00
C561   C     0.50892   0.87174   0.45710   0.00000  Uiso   1.00
C562   C     0.51115   0.79437   0.04307   0.00000  Uiso   1.00
C563   C     0.53448   0.86919   0.09590   0.00000  Uiso   1.00
C564   C     0.53690   0.79895   0.40350   0.00000  Uiso   1.00
C565   C     0.49928   0.87193   0.41173   0.00000  Uiso   1.00
C566   C     0.50129   0.79420   0.08846   0.00000  Uiso   1.00
C567   C     0.51188   0.83257   0.11535   0.00000  Uiso   1.00
C568   C     0.51189   0.83430   0.38455   0.00000  Uiso   1.00
C569   C     0.53103   0.83137   0.02408   0.00000  Uiso   1.00
C570   C     0.53076   0.83549   0.47578   0.00000  Uiso   1.00
C571   C     0.62400   0.83230   0.25050   0.00000  Uiso   1.00
C572   C     0.37587   0.83429   0.24949   0.00000  Uiso   1.00
H573   H     0.55424   0.70849   0.29041   0.00000  Uiso   1.00
H574   H     0.44643   0.95805   0.20854   0.00000  Uiso   1.00
H575   H     0.44638   0.70921   0.20859   0.00000  Uiso   1.00
H576   H     0.55381   0.95744   0.29111   0.00000  Uiso   1.00
H577   H     0.55911   0.89616   0.03447   0.00000  Uiso   1.00
H578   H     0.56284   0.77235   0.46466   0.00000  Uiso   1.00
H579   H     0.49740   0.89888   0.47870   0.00000  Uiso   1.00
H580   H     0.50119   0.76659   0.02167   0.00000  Uiso   1.00
N581   N     0.50000   0.95240   0.25000   0.00000  Uiso   1.00
N582   N     0.50000   0.71427   0.25000   0.00000  Uiso   1.00
O583   O     0.43892   0.87154   0.24999   0.00000  Uiso   1.00
O584   O     0.56108   0.79513   0.25000   0.00000  Uiso   1.00
O585   O     0.56108   0.87154   0.25000   0.00000  Uiso   1.00
O586   O     0.43892   0.79513   0.24999   0.00000  Uiso   1.00
O587   O     0.50000   0.87155   0.18453   0.00000  Uiso   1.00
O588   O     0.50000   0.79511   0.31547   0.00000  Uiso   1.00
O589   O     0.50000   0.87155   0.31547   0.00000  Uiso   1.00
O590   O     0.50000   0.79511   0.18453   0.00000  Uiso   1.00
Zn591  Zn    0.50000   0.88437   0.25000   0.00000  Uiso   1.00
Zn592  Zn    0.50000   0.78229   0.25000   0.00000  Uiso   1.00
C593   C     0.54925   0.91028   0.12199   0.00000  Uiso   1.00
H594   H     0.56788   0.89971   0.15157   0.00000  Uiso   1.00
H595   H     0.56962   0.93237   0.10144   0.00000  Uiso   1.00
H596   H     0.52206   0.93135   0.13277   0.00000  Uiso   1.00
C597   C     0.55511   0.75996   0.37647   0.00000  Uiso   1.00
H598   H     0.52980   0.73686   0.36568   0.00000  Uiso   1.00
H599   H     0.57233   0.77297   0.34692   0.00000  Uiso   1.00
H600   H     0.57768   0.73942   0.39631   0.00000  Uiso   1.00
C601   C     0.47447   0.91199   0.39435   0.00000  Uiso   1.00
H602   H     0.44613   0.89997   0.37705   0.00000  Uiso   1.00
H603   H     0.46396   0.93512   0.42179   0.00000  Uiso   1.00
H604   H     0.49391   0.93240   0.37127   0.00000  Uiso   1.00
C605   C     0.47839   0.75328   0.10610   0.00000  Uiso   1.00
H606   H     0.49893   0.73361   0.12899   0.00000  Uiso   1.00
H607   H     0.44946   0.76405   0.12375   0.00000  Uiso   1.00
H608   H     0.46893   0.72976   0.07874   0.00000  Uiso   1.00
C609   C     0.37879   0.80969   0.16710   0.00000  Uiso   1.00
H610   H     0.41237   0.81804   0.16864   0.00000  Uiso   1.00
H611   H     0.37616   0.77303   0.15882   0.00000  Uiso   1.00
H612   H     0.36591   0.83042   0.13926   0.00000  Uiso   1.00
C613   C     0.62101   0.86147   0.33176   0.00000  Uiso   1.00
H614   H     0.58671   0.85909   0.32906   0.00000  Uiso   1.00
H615   H     0.63012   0.83912   0.36006   0.00000  Uiso   1.00
H616   H     0.62809   0.89734   0.34020   0.00000  Uiso   1.00
C617   C     0.62022   0.79963   0.17135   0.00000  Uiso   1.00
H618   H     0.60225   0.76930   0.18141   0.00000  Uiso   1.00
H619   H     0.59821   0.82619   0.15950   0.00000  Uiso   1.00
H620   H     0.63939   0.78899   0.14219   0.00000  Uiso   1.00
C621   C     0.37994   0.86351   0.32956   0.00000  Uiso   1.00
H622   H     0.39661   0.89510   0.32081   0.00000  Uiso   1.00
H623   H     0.36126   0.87108   0.35996   0.00000  Uiso   1.00
H624   H     0.40296   0.83680   0.33902   0.00000  Uiso   1.00
C625   C     0.75344   0.83359   0.24995   0.00000  Uiso   1.00
C626   C     0.91320   0.83306   0.24995   0.00000  Uiso   1.00
C627   C     0.83553   0.83317   0.16347   0.00000  Uiso   1.00
C628   C     0.83533   0.83352   0.33653   0.00000  Uiso   1.00
C629   C     0.86338   0.69047   0.27262   0.00000  Uiso   1.00
C630   C     0.80353   0.97616   0.22697   0.00000  Uiso   1.00
C631   C     0.80350   0.69084   0.22701   0.00000  Uiso   1.00
C632   C     0.86327   0.97581   0.27282   0.00000  Uiso   1.00
C633   C     0.68843   0.82021   0.21023   0.00000  Uiso   1.00
C634   C     0.97806   0.84724   0.28954   0.00000  Uiso   1.00
C635   C     0.97830   0.81746   0.21134   0.00000  Uiso   1.00
C636   C     0.68827   0.84796   0.28900   0.00000  Uiso   1.00
C637   C     0.87698   0.86782   0.05032   0.00000  Uiso   1.00
C638   C     0.87896   0.80001   0.44918   0.00000  Uiso   1.00
C639   C     0.84226   0.87174   0.45710   0.00000  Uiso   1.00
C640   C     0.84448   0.79437   0.04307   0.00000  Uiso   1.00
C641   C     0.86781   0.86919   0.09590   0.00000  Uiso   1.00
C642   C     0.87024   0.79895   0.40350   0.00000  Uiso   1.00
C643   C     0.83262   0.87193   0.41173   0.00000  Uiso   1.00
C644   C     0.83463   0.79420   0.08846   0.00000  Uiso   1.00
C645   C     0.84521   0.83257   0.11535   0.00000  Uiso   1.00
C646   C     0.84523   0.83430   0.38455   0.00000  Uiso   1.00
C647   C     0.86436   0.83137   0.02408   0.00000  Uiso   1.00
C648   C     0.86409   0.83549   0.47578   0.00000  Uiso   1.00
C649   C     0.95733   0.83230   0.25050   0.00000  Uiso   1.00
C650   C     0.70921   0.83429   0.24949   0.00000  Uiso   1.00
H651   H     0.88758   0.70849   0.29041   0.00000  Uiso   1.00
H652   H     0.77976   0.95805   0.20854   0.00000  Uiso   1.00
H653   H     0.77972   0.70921   0.20859   0.00000  Uiso   1.00
H654   H     0.88714   0.95744   0.29111   0.00000  Uiso   1.00
H655   H     0.89245   0.89616   0.03447   0.00000  Uiso   1.00
H656   H     0.89617   0.77235   0.46466   0.00000  Uiso   1.00
H657   H     0.83074   0.89888   0.47870   0.00000  Uiso   1.00
H658   H     0.83453   0.76659   0.02167   0.00000  Uiso   1.00
N659   N     0.83333   0.95240   0.25000   0.00000  Uiso   1.00
N660   N     0.83333   0.71427   0.25000   0.00000  Uiso   1.00
O661   O     0.77226   0.87154   0.24999   0.00000  Uiso   1.00
O662   O     0.89441   0.79513   0.25000   0.00000  Uiso   1.00
O663   O     0.89441   0.87154   0.25000   0.00000  Uiso   1.00
O664   O     0.77226   0.79513   0.24999   0.00000  Uiso   1.00
O665   O     0.83333   0.87155   0.18453   0.00000  Uiso   1.00
O666   O     0.83334   0.79511   0.31547   0.00000  Uiso   1.00
O667   O     0.83334   0.87155   0.31547   0.00000  Uiso   1.00
O668   O     0.83333   0.79511   0.18453   0.00000  Uiso   1.00
Zn669  Zn    0.83333   0.88437   0.25000   0.00000  Uiso   1.00
Zn670  Zn    0.83333   0.78229   0.25000   0.00000  Uiso   1.00
C671   C     0.88258   0.91028   0.12199   0.00000  Uiso   1.00
H672   H     0.90121   0.89971   0.15157   0.00000  Uiso   1.00
H673   H     0.90295   0.93237   0.10144   0.00000  Uiso   1.00
H674   H     0.85539   0.93135   0.13277   0.00000  Uiso   1.00
C675   C     0.88845   0.75996   0.37647   0.00000  Uiso   1.00
H676   H     0.86313   0.73686   0.36568   0.00000  Uiso   1.00
H677   H     0.90566   0.77297   0.34692   0.00000  Uiso   1.00
H678   H     0.91101   0.73942   0.39631   0.00000  Uiso   1.00
C679   C     0.80780   0.91199   0.39435   0.00000  Uiso   1.00
H680   H     0.77946   0.89997   0.37705   0.00000  Uiso   1.00
H681   H     0.79729   0.93512   0.42179   0.00000  Uiso   1.00
H682   H     0.82724   0.93240   0.37127   0.00000  Uiso   1.00
C683   C     0.81172   0.75328   0.10610   0.00000  Uiso   1.00
H684   H     0.83227   0.73361   0.12899   0.00000  Uiso   1.00
H685   H     0.78279   0.76405   0.12375   0.00000  Uiso   1.00
H686   H     0.80226   0.72976   0.07874   0.00000  Uiso   1.00
C687   C     0.71213   0.80969   0.16710   0.00000  Uiso   1.00
H688   H     0.74570   0.81804   0.16864   0.00000  Uiso   1.00
H689   H     0.70949   0.77303   0.15882   0.00000  Uiso   1.00
H690   H     0.69925   0.83042   0.13926   0.00000  Uiso   1.00
C691   C     0.95434   0.86147   0.33176   0.00000  Uiso   1.00
H692   H     0.92005   0.85909   0.32906   0.00000  Uiso   1.00
H693   H     0.96345   0.83912   0.36006   0.00000  Uiso   1.00
H694   H     0.96143   0.89734   0.34020   0.00000  Uiso   1.00
C695   C     0.95355   0.79963   0.17135   0.00000  Uiso   1.00
H696   H     0.93558   0.76930   0.18141   0.00000  Uiso   1.00
H697   H     0.93154   0.82619   0.15950   0.00000  Uiso   1.00
H698   H     0.97272   0.78899   0.14219   0.00000  Uiso   1.00
C699   C     0.71327   0.86351   0.32956   0.00000  Uiso   1.00
H700   H     0.72994   0.89510   0.32081   0.00000  Uiso   1.00
H701   H     0.69460   0.87108   0.35996   0.00000  Uiso   1.00
H702   H     0.73630   0.83680   0.33902   0.00000  Uiso   1.00
C703   C     0.08678   0.16692   0.74995   0.00000  Uiso   1.00
C704   C     0.24653   0.16639   0.74995   0.00000  Uiso   1.00
C705   C     0.16887   0.16650   0.66347   0.00000  Uiso   1.00
C706   C     0.16866   0.16686   0.83653   0.00000  Uiso   1.00
C707   C     0.19672   0.02380   0.77262   0.00000  Uiso   1.00
C708   C     0.13686   0.30949   0.72697   0.00000  Uiso   1.00
C709   C     0.13683   0.02418   0.72701   0.00000  Uiso   1.00
C710   C     0.19660   0.30914   0.77282   0.00000  Uiso   1.00
C711   C     0.02176   0.15355   0.71023   0.00000  Uiso   1.00
C712   C     0.31139   0.18057   0.78954   0.00000  Uiso   1.00
C713   C     0.31163   0.15080   0.71134   0.00000  Uiso   1.00
C714   C     0.02161   0.18129   0.78900   0.00000  Uiso   1.00
C715   C     0.21031   0.20115   0.55032   0.00000  Uiso   1.00
C716   C     0.21230   0.13334   0.94918   0.00000  Uiso   1.00
C717   C     0.17559   0.20508   0.95710   0.00000  Uiso   1.00
C718   C     0.17781   0.12770   0.54307   0.00000  Uiso   1.00
C719   C     0.20115   0.20252   0.59590   0.00000  Uiso   1.00
C720   C     0.20357   0.13228   0.90350   0.00000  Uiso   1.00
C721   C     0.16595   0.20526   0.91173   0.00000  Uiso   1.00
C722   C     0.16796   0.12753   0.58846   0.00000  Uiso   1.00
C723   C     0.17854   0.16591   0.61535   0.00000  Uiso   1.00
C724   C     0.17856   0.16763   0.88455   0.00000  Uiso   1.00
C725   C     0.19770   0.16470   0.52408   0.00000  Uiso   1.00
C726   C     0.19743   0.16882   0.97578   0.00000  Uiso   1.00
C727   C     0.29067   0.16564   0.75050   0.00000  Uiso   1.00
C728   C     0.04254   0.16762   0.74949   0.00000  Uiso   1.00
H729   H     0.22091   0.04183   0.79041   0.00000  Uiso   1.00
H730   H     0.11310   0.29139   0.70854   0.00000  Uiso   1.00
H731   H     0.11305   0.04254   0.70859   0.00000  Uiso   1.00
H732   H     0.22048   0.29078   0.79111   0.00000  Uiso   1.00
H733   H     0.22578   0.22949   0.53447   0.00000  Uiso   1.00
H734   H     0.22950   0.10568   0.96466   0.00000  Uiso   1.00
H735   H     0.16407   0.23221   0.97870   0.00000  Uiso   1.00
H736   H     0.16786   0.09993   0.52167   0.00000  Uiso   1.00
N737   N     0.16667   0.28573   0.75000   0.00000  Uiso   1.00
N738   N     0.16667   0.04760   0.75000   0.00000  Uiso   1.00
O739   O     0.10559   0.20487   0.74999   0.00000  Uiso   1.00
O740   O     0.22774   0.12846   0.75000   0.00000  Uiso   1.00
O741   O     0.22774   0.20487   0.75000   0.00000  Uiso   1.00
O742   O     0.10559   0.12846   0.74999   0.00000  Uiso   1.00
O743   O     0.16666   0.20489   0.68453   0.00000  Uiso   1.00
O744   O     0.16667   0.12845   0.81547   0.00000  Uiso   1.00
O745   O     0.16667   0.20489   0.81547   0.00000  Uiso   1.00
O746   O     0.16666   0.12845   0.68453   0.00000  Uiso   1.00
Zn747  Zn    0.16667   0.21771   0.75000   0.00000  Uiso   1.00
Zn748  Zn    0.16667   0.11563   0.75000   0.00000  Uiso   1.00
C749   C     0.21591   0.24362   0.62199   0.00000  Uiso   1.00
H750   H     0.23454   0.23304   0.65157   0.00000  Uiso   1.00
H751   H     0.23628   0.26570   0.60144   0.00000  Uiso   1.00
H752   H     0.18872   0.26469   0.63277   0.00000  Uiso   1.00
C753   C     0.22178   0.09329   0.87647   0.00000  Uiso   1.00
H754   H     0.19647   0.07019   0.86568   0.00000  Uiso   1.00
H755   H     0.23900   0.10630   0.84692   0.00000  Uiso   1.00
H756   H     0.24434   0.07275   0.89631   0.00000  Uiso   1.00
C757   C     0.14114   0.24532   0.89435   0.00000  Uiso   1.00
H758   H     0.11280   0.23330   0.87705   0.00000  Uiso   1.00
H759   H     0.13063   0.26846   0.92179   0.00000  Uiso   1.00
H760   H     0.16058   0.26573   0.87127   0.00000  Uiso   1.00
C761   C     0.14506   0.08662   0.60610   0.00000  Uiso   1.00
H762   H     0.16560   0.06695   0.62899   0.00000  Uiso   1.00
H763   H     0.11612   0.09738   0.62375   0.00000  Uiso   1.00
H764   H     0.13560   0.06310   0.57874   0.00000  Uiso   1.00
C765   C     0.04546   0.14302   0.66710   0.00000  Uiso   1.00
H766   H     0.07903   0.15137   0.66864   0.00000  Uiso   1.00
H767   H     0.04283   0.10636   0.65882   0.00000  Uiso   1.00
H768   H     0.03258   0.16375   0.63926   0.00000  Uiso   1.00
C769   C     0.28767   0.19480   0.83176   0.00000  Uiso   1.00
H770   H     0.25338   0.19243   0.82906   0.00000  Uiso   1.00
H771   H     0.29679   0.17245   0.86006   0.00000  Uiso   1.00
H772   H     0.29476   0.23067   0.84020   0.00000  Uiso   1.00
C773   C     0.28688   0.13297   0.67135   0.00000  Uiso   1.00
H774   H     0.26892   0.10263   0.68141   0.00000  Uiso   1.00
H775   H     0.26488   0.15952   0.65950   0.00000  Uiso   1.00
H776   H     0.30606   0.12232   0.64219   0.00000  Uiso   1.00
C777   C     0.04661   0.19684   0.82956   0.00000  Uiso   1.00
H778   H     0.06327   0.22844   0.82081   0.00000  Uiso   1.00
H779   H     0.02793   0.20441   0.85996   0.00000  Uiso   1.00
H780   H     0.06963   0.17014   0.83902   0.00000  Uiso   1.00
C781   C     0.42011   0.16692   0.74995   0.00000  Uiso   1.00
C782   C     0.57986   0.16639   0.74995   0.00000  Uiso   1.00
C783   C     0.50220   0.16650   0.66347   0.00000  Uiso   1.00
C784   C     0.50199   0.16686   0.83653   0.00000  Uiso   1.00
C785   C     0.53005   0.02380   0.77262   0.00000  Uiso   1.00
C786   C     0.47020   0.30949   0.72697   0.00000  Uiso   1.00
C787   C     0.47017   0.02418   0.72701   0.00000  Uiso   1.00
C788   C     0.52993   0.30914   0.77282   0.00000  Uiso   1.00
C789   C     0.35510   0.15355   0.71023   0.00000  Uiso   1.00
C790   C     0.64472   0.18057   0.78954   0.00000  Uiso   1.00
C791   C     0.64497   0.15080   0.71134   0.00000  Uiso   1.00
C792   C     0.35494   0.18129   0.78900   0.00000  Uiso   1.00
C793   C     0.54365   0.20115   0.55032   0.00000  Uiso   1.00
C794   C     0.54563   0.13334   0.94918   0.00000  Uiso   1.00
C795   C     0.50892   0.20508   0.95710   0.00000  Uiso   1.00
C796   C     0.51115   0.12770   0.54307   0.00000  Uiso   1.00
C797   C     0.53448   0.20252   0.59590   0.00000  Uiso   1.00
C798   C     0.53690   0.13228   0.90350   0.00000  Uiso   1.00
C799   C     0.49928   0.20526   0.91173   0.00000  Uiso   1.00
C800   C     0.50129   0.12753   0.58846   0.00000  Uiso   1.00
C801   C     0.51188   0.16591   0.61535   0.00000  Uiso   1.00
C802   C     0.51189   0.16763   0.88455   0.00000  Uiso   1.00
C803   C     0.53103   0.16470   0.52408   0.00000  Uiso   1.00
C804   C     0.53076   0.16882   0.97578   0.00000  Uiso   1.00
C805   C     0.62400   0.16564   0.75050   0.00000  Uiso   1.00
C806   C     0.37587   0.16762   0.74949   0.00000  Uiso   1.00
H807   H     0.55424   0.04183   0.79041   0.00000  Uiso   1.00
H808   H     0.44643   0.29139   0.70854   0.00000  Uiso   1.00
H809   H     0.44638   0.04254   0.70859   0.00000  Uiso   1.00
H810   H     0.55381   0.29078   0.79111   0.00000  Uiso   1.00
H811   H     0.55911   0.22949   0.53447   0.00000  Uiso   1.00
H812   H     0.56284   0.10568   0.96466   0.00000  Uiso   1.00
H813   H     0.49740   0.23221   0.97870   0.00000  Uiso   1.00
H814   H     0.50119   0.09993   0.52167   0.00000  Uiso   1.00
N815   N     0.50000   0.28573   0.75000   0.00000  Uiso   1.00
N816   N     0.50000   0.04760   0.75000   0.00000  Uiso   1.00
O817   O     0.43892   0.20487   0.74999   0.00000  Uiso   1.00
O818   O     0.56108   0.12846   0.75000   0.00000  Uiso   1.00
O819   O     0.56108   0.20487   0.75000   0.00000  Uiso   1.00
O820   O     0.43892   0.12846   0.74999   0.00000  Uiso   1.00
O821   O     0.50000   0.20489   0.68453   0.00000  Uiso   1.00
O822   O     0.50000   0.12845   0.81547   0.00000  Uiso   1.00
O823   O     0.50000   0.20489   0.81547   0.00000  Uiso   1.00
O824   O     0.50000   0.12845   0.68453   0.00000  Uiso   1.00
Zn825  Zn    0.50000   0.21771   0.75000   0.00000  Uiso   1.00
Zn826  Zn    0.50000   0.11563   0.75000   0.00000  Uiso   1.00
C827   C     0.54925   0.24362   0.62199   0.00000  Uiso   1.00
H828   H     0.56788   0.23304   0.65157   0.00000  Uiso   1.00
H829   H     0.56962   0.26570   0.60144   0.00000  Uiso   1.00
H830   H     0.52206   0.26469   0.63277   0.00000  Uiso   1.00
C831   C     0.55511   0.09329   0.87647   0.00000  Uiso   1.00
H832   H     0.52980   0.07019   0.86568   0.00000  Uiso   1.00
H833   H     0.57233   0.10630   0.84692   0.00000  Uiso   1.00
H834   H     0.57768   0.07275   0.89631   0.00000  Uiso   1.00
C835   C     0.47447   0.24532   0.89435   0.00000  Uiso   1.00
H836   H     0.44613   0.23330   0.87705   0.00000  Uiso   1.00
H837   H     0.46396   0.26846   0.92179   0.00000  Uiso   1.00
H838   H     0.49391   0.26573   0.87127   0.00000  Uiso   1.00
C839   C     0.47839   0.08662   0.60610   0.00000  Uiso   1.00
H840   H     0.49893   0.06695   0.62899   0.00000  Uiso   1.00
H841   H     0.44946   0.09738   0.62375   0.00000  Uiso   1.00
H842   H     0.46893   0.06310   0.57874   0.00000  Uiso   1.00
C843   C     0.37879   0.14302   0.66710   0.00000  Uiso   1.00
H844   H     0.41237   0.15137   0.66864   0.00000  Uiso   1.00
H845   H     0.37616   0.10636   0.65882   0.00000  Uiso   1.00
H846   H     0.36591   0.16375   0.63926   0.00000  Uiso   1.00
C847   C     0.62101   0.19480   0.83176   0.00000  Uiso   1.00
H848   H     0.58671   0.19243   0.82906   0.00000  Uiso   1.00
H849   H     0.63012   0.17245   0.86006   0.00000  Uiso   1.00
H850   H     0.62809   0.23067   0.84020   0.00000  Uiso   1.00
C851   C     0.62022   0.13297   0.67135   0.00000  Uiso   1.00
H852   H     0.60225   0.10263   0.68141   0.00000  Uiso   1.00
H853   H     0.59821   0.15952   0.65950   0.00000  Uiso   1.00
H854   H     0.63939   0.12232   0.64219   0.00000  Uiso   1.00
C855   C     0.37994   0.19684   0.82956   0.00000  Uiso   1.00
H856   H     0.39661   0.22844   0.82081   0.00000  Uiso   1.00
H857   H     0.36126   0.20441   0.85996   0.00000  Uiso   1.00
H858   H     0.40296   0.17014   0.83902   0.00000  Uiso   1.00
C859   C     0.75344   0.16692   0.74995   0.00000  Uiso   1.00
C860   C     0.91320   0.16639   0.74995   0.00000  Uiso   1.00
C861   C     0.83553   0.16650   0.66347   0.00000  Uiso   1.00
C862   C     0.83533   0.16686   0.83653   0.00000  Uiso   1.00
C863   C     0.86338   0.02380   0.77262   0.00000  Uiso   1.00
C864   C     0.80353   0.30949   0.72697   0.00000  Uiso   1.00
C865   C     0.80350   0.02418   0.72701   0.00000  Uiso   1.00
C866   C     0.86327   0.30914   0.77282   0.00000  Uiso   1.00
C867   C     0.68843   0.15355   0.71023   0.00000  Uiso   1.00
C868   C     0.97806   0.18057   0.78954   0.00000  Uiso   1.00
C869   C     0.97830   0.15080   0.71134   0.00000  Uiso   1.00
C870   C     0.68827   0.18129   0.78900   0.00000  Uiso   1.00
C871   C     0.87698   0.20115   0.55032   0.00000  Uiso   1.00
C872   C     0.87896   0.13334   0.94918   0.00000  Uiso   1.00
C873   C     0.84226   0.20508   0.95710   0.00000  Uiso   1.00
C874   C     0.84448   0.12770   0.54307   0.00000  Uiso   1.00
C875   C     0.86781   0.20252   0.59590   0.00000  Uiso   1.00
C876   C     0.87024   0.13228   0.90350   0.00000  Uiso   1.00
C877   C     0.83262   0.20526   0.91173   0.00000  Uiso   1.00
C878   C     0.83463   0.12753   0.58846   0.00000  Uiso   1.00
C879   C     0.84521   0.16591   0.61535   0.00000  Uiso   1.00
C880   C     0.84523   0.16763   0.88455   0.00000  Uiso   1.00
C881   C     0.86436   0.16470   0.52408   0.00000  Uiso   1.00
C882   C     0.86409   0.16882   0.97578   0.00000  Uiso   1.00
C883   C     0.95733   0.16564   0.75050   0.00000  Uiso   1.00
C884   C     0.70921   0.16762   0.74949   0.00000  Uiso   1.00
H885   H     0.88758   0.04183   0.79041   0.00000  Uiso   1.00
H886   H     0.77976   0.29139   0.70854   0.00000  Uiso   1.00
H887   H     0.77972   0.04254   0.70859   0.00000  Uiso   1.00
H888   H     0.88714   0.29078   0.79111   0.00000  Uiso   1.00
H889   H     0.89245   0.22949   0.53447   0.00000  Uiso   1.00
H890   H     0.89617   0.10568   0.96466   0.00000  Uiso   1.00
H891   H     0.83074   0.23221   0.97870   0.00000  Uiso   1.00
H892   H     0.83453   0.09993   0.52167   0.00000  Uiso   1.00
N893   N     0.83333   0.28573   0.75000   0.00000  Uiso   1.00
N894   N     0.83333   0.04760   0.75000   0.00000  Uiso   1.00
O895   O     0.77226   0.20487   0.74999   0.00000  Uiso   1.00
O896   O     0.89441   0.12846   0.75000   0.00000  Uiso   1.00
O897   O     0.89441   0.20487   0.75000   0.00000  Uiso   1.00
O898   O     0.77226   0.12846   0.74999   0.00000  Uiso   1.00
O899   O     0.83333   0.20489   0.68453   0.00000  Uiso   1.00
O900   O     0.83334   0.12845   0.81547   0.00000  Uiso   1.00
O901   O     0.83334   0.20489   0.81547   0.00000  Uiso   1.00
O902   O     0.83333   0.12845   0.68453   0.00000  Uiso   1.00
Zn903  Zn    0.83333   0.21771   0.75000   0.00000  Uiso   1.00
Zn904  Zn    0.83333   0.11563   0.75000   0.00000  Uiso   1.00
C905   C     0.88258   0.24362   0.62199   0.00000  Uiso   1.00
H906   H     0.90121   0.23304   0.65157   0.00000  Uiso   1.00
H907   H     0.90295   0.26570   0.60144   0.00000  Uiso   1.00
H908   H     0.85539   0.26469   0.63277   0.00000  Uiso   1.00
C909   C     0.88845   0.09329   0.87647   0.00000  Uiso   1.00
H910   H     0.86313   0.07019   0.86568   0.00000  Uiso   1.00
H911   H     0.90566   0.10630   0.84692   0.00000  Uiso   1.00
H912   H     0.91101   0.07275   0.89631   0.00000  Uiso   1.00
C913   C     0.80780   0.24532   0.89435   0.00000  Uiso   1.00
H914   H     0.77946   0.23330   0.87705   0.00000  Uiso   1.00
H915   H     0.79729   0.26846   0.92179   0.00000  Uiso   1.00
H916   H     0.82724   0.26573   0.87127   0.00000  Uiso   1.00
C917   C     0.81172   0.08662   0.60610   0.00000  Uiso   1.00
H918   H     0.83227   0.06695   0.62899   0.00000  Uiso   1.00
H919   H     0.78279   0.09738   0.62375   0.00000  Uiso   1.00
H920   H     0.80226   0.06310   0.57874   0.00000  Uiso   1.00
C921   C     0.71213   0.14302   0.66710   0.00000  Uiso   1.00
H922   H     0.74570   0.15137   0.66864   0.00000  Uiso   1.00
H923   H     0.70949   0.10636   0.65882   0.00000  Uiso   1.00
H924   H     0.69925   0.16375   0.63926   0.00000  Uiso   1.00
C925   C     0.95434   0.19480   0.83176   0.00000  Uiso   1.00
H926   H     0.92005   0.19243   0.82906   0.00000  Uiso   1.00
H927   H     0.96345   0.17245   0.86006   0.00000  Uiso   1.00
H928   H     0.96143   0.23067   0.84020   0.00000  Uiso   1.00
C929   C     0.95355   0.13297   0.67135   0.00000  Uiso   1.00
H930   H     0.93558   0.10263   0.68141   0.00000  Uiso   1.00
H931   H     0.93154   0.15952   0.65950   0.00000  Uiso   1.00
H932   H     0.97272   0.12232   0.64219   0.00000  Uiso   1.00
C933   C     0.71327   0.19684   0.82956   0.00000  Uiso   1.00
H934   H     0.72994   0.22844   0.82081   0.00000  Uiso   1.00
H935   H     0.69460   0.20441   0.85996   0.00000  Uiso   1.00
H936   H     0.73630   0.17014   0.83902   0.00000  Uiso   1.00
C937   C     0.08678   0.50025   0.74995   0.00000  Uiso   1.00
C938   C     0.24653   0.49973   0.74995   0.00000  Uiso   1.00
C939   C     0.16887   0.49983   0.66347   0.00000  Uiso   1.00
C940   C     0.16866   0.50019   0.83653   0.00000  Uiso   1.00
C941   C     0.19672   0.35714   0.77262   0.00000  Uiso   1.00
C942   C     0.13686   0.64283   0.72697   0.00000  Uiso   1.00
C943   C     0.13683   0.35751   0.72701   0.00000  Uiso   1.00
C944   C     0.19660   0.64248   0.77282   0.00000  Uiso   1.00
C945   C     0.02176   0.48688   0.71023   0.00000  Uiso   1.00
C946   C     0.31139   0.51391   0.78954   0.00000  Uiso   1.00
C947   C     0.31163   0.48413   0.71134   0.00000  Uiso   1.00
C948   C     0.02161   0.51462   0.78900   0.00000  Uiso   1.00
C949   C     0.21031   0.53448   0.55032   0.00000  Uiso   1.00
C950   C     0.21230   0.46668   0.94918   0.00000  Uiso   1.00
C951   C     0.17559   0.53841   0.95710   0.00000  Uiso   1.00
C952   C     0.17781   0.46104   0.54307   0.00000  Uiso   1.00
C953   C     0.20115   0.53586   0.59590   0.00000  Uiso   1.00
C954   C     0.20357   0.46561   0.90350   0.00000  Uiso   1.00
C955   C     0.16595   0.53860   0.91173   0.00000  Uiso   1.00
C956   C     0.16796   0.46086   0.58846   0.00000  Uiso   1.00
C957   C     0.17854   0.49924   0.61535   0.00000  Uiso   1.00
C958   C     0.17856   0.50097   0.88455   0.00000  Uiso   1.00
C959   C     0.19770   0.49804   0.52408   0.00000  Uiso   1.00
C960   C     0.19743   0.50215   0.97578   0.00000  Uiso   1.00
C961   C     0.29067   0.49897   0.75050   0.00000  Uiso   1.00
C962   C     0.04254   0.50095   0.74949   0.00000  Uiso   1.00
H963   H     0.22091   0.37516   0.79041   0.00000  Uiso   1.00
H964   H     0.11310   0.62472   0.70854   0.00000  Uiso   1.00
H965   H     0.11305   0.37588   0.70859   0.00000  Uiso   1.00
H966   H     0.22048   0.62411   0.79111   0.00000  Uiso   1.00
H967   H     0.22578   0.56283   0.53447   0.00000  Uiso   1.00
H968   H     0.22950   0.43902   0.96466   0.00000  Uiso   1.00
H969   H     0.16407   0.56555   0.97870   0.00000  Uiso   1.00
H970   H     0.16786   0.43326   0.52167   0.00000  Uiso   1.00
N971   N     0.16667   0.61907   0.75000   0.00000  Uiso   1.00
N972   N     0.16667   0.38093   0.75000   0.00000  Uiso   1.00
O973   O     0.10559   0.53821   0.74999   0.00000  Uiso   1.00
O974   O     0.22774   0.46179   0.75000   0.00000  Uiso   1.00
O975   O     0.22774   0.53821   0.75000   0.00000  Uiso   1.00
O976   O     0.10559   0.46179   0.74999   0.00000  Uiso   1.00
O977   O     0.16666   0.53822   0.68453   0.00000  Uiso   1.00
O978   O     0.16667   0.46178   0.81547   0.00000  Uiso   1.00
O979   O     0.16667   0.53822   0.81547   0.00000  Uiso   1.00
O980   O     0.16666   0.46178   0.68453   0.00000  Uiso   1.00
Zn981  Zn    0.16667   0.55104   0.75000   0.00000  Uiso   1.00
Zn982  Zn    0.16667   0.44896   0.75000   0.00000  Uiso   1.00
C983   C     0.21591   0.57695   0.62199   0.00000  Uiso   1.00
H984   H     0.23454   0.56637   0.65157   0.00000  Uiso   1.00
H985   H     0.23628   0.59904   0.60144   0.00000  Uiso   1.00
H986   H     0.18872   0.59802   0.63277   0.00000  Uiso   1.00
C987   C     0.22178   0.42662   0.87647   0.00000  Uiso   1.00
H988   H     0.19647   0.40352   0.86568   0.00000  Uiso   1.00
H989   H     0.23900   0.43963   0.84692   0.00000  Uiso   1.00
H990   H     0.24434   0.40608   0.89631   0.00000  Uiso   1.00
C991   C     0.14114   0.57866   0.89435   0.00000  Uiso   1.00
H992   H     0.11280   0.56664   0.87705   0.00000  Uiso   1.00
H993   H     0.13063   0.60179   0.92179   0.00000  Uiso   1.00
H994   H     0.16058   0.59906   0.87127   0.00000  Uiso   1.00
C995   C     0.14506   0.41995   0.60610   0.00000  Uiso   1.00
H996   H     0.16560   0.40028   0.62899   0.00000  Uiso   1.00
H997   H     0.11612   0.43071   0.62375   0.00000  Uiso   1.00
H998   H     0.13560   0.39643   0.57874   0.00000  Uiso   1.00
C999   C     0.04546   0.47635   0.66710   0.00000  Uiso   1.00
H1000  H     0.07903   0.48471   0.66864   0.00000  Uiso   1.00
H1001  H     0.04283   0.43969   0.65882   0.00000  Uiso   1.00
H1002  H     0.03258   0.49709   0.63926   0.00000  Uiso   1.00
C1003  C     0.28767   0.52813   0.83176   0.00000  Uiso   1.00
H1004  H     0.25338   0.52576   0.82906   0.00000  Uiso   1.00
H1005  H     0.29679   0.50579   0.86006   0.00000  Uiso   1.00
H1006  H     0.29476   0.56401   0.84020   0.00000  Uiso   1.00
C1007  C     0.28688   0.46630   0.67135   0.00000  Uiso   1.00
H1008  H     0.26892   0.43597   0.68141   0.00000  Uiso   1.00
H1009  H     0.26488   0.49285   0.65950   0.00000  Uiso   1.00
H1010  H     0.30606   0.45566   0.64219   0.00000  Uiso   1.00
C1011  C     0.04661   0.53018   0.82956   0.00000  Uiso   1.00
H1012  H     0.06327   0.56177   0.82081   0.00000  Uiso   1.00
H1013  H     0.02793   0.53774   0.85996   0.00000  Uiso   1.00
H1014  H     0.06963   0.50347   0.83902   0.00000  Uiso   1.00
C1015  C     0.42011   0.50025   0.74995   0.00000  Uiso   1.00
C1016  C     0.57986   0.49973   0.74995   0.00000  Uiso   1.00
C1017  C     0.50220   0.49983   0.66347   0.00000  Uiso   1.00
C1018  C     0.50199   0.50019   0.83653   0.00000  Uiso   1.00
C1019  C     0.53005   0.35714   0.77262   0.00000  Uiso   1.00
C1020  C     0.47020   0.64283   0.72697   0.00000  Uiso   1.00
C1021  C     0.47017   0.35751   0.72701   0.00000  Uiso   1.00
C1022  C     0.52993   0.64248   0.77282   0.00000  Uiso   1.00
C1023  C     0.35510   0.48688   0.71023   0.00000  Uiso   1.00
C1024  C     0.64472   0.51391   0.78954   0.00000  Uiso   1.00
C1025  C     0.64497   0.48413   0.71134   0.00000  Uiso   1.00
C1026  C     0.35494   0.51462   0.78900   0.00000  Uiso   1.00
C1027  C     0.54365   0.53448   0.55032   0.00000  Uiso   1.00
C1028  C     0.54563   0.46668   0.94918   0.00000  Uiso   1.00
C1029  C     0.50892   0.53841   0.95710   0.00000  Uiso   1.00
C1030  C     0.51115   0.46104   0.54307   0.00000  Uiso   1.00
C1031  C     0.53448   0.53586   0.59590   0.00000  Uiso   1.00
C1032  C     0.53690   0.46561   0.90350   0.00000  Uiso   1.00
C1033  C     0.49928   0.53860   0.91173   0.00000  Uiso   1.00
C1034  C     0.50129   0.46086   0.58846   0.00000  Uiso   1.00
C1035  C     0.51188   0.49924   0.61535   0.00000  Uiso   1.00
C1036  C     0.51189   0.50097   0.88455   0.00000  Uiso   1.00
C1037  C     0.53103   0.49804   0.52408   0.00000  Uiso   1.00
C1038  C     0.53076   0.50215   0.97578   0.00000  Uiso   1.00
C1039  C     0.62400   0.49897   0.75050   0.00000  Uiso   1.00
C1040  C     0.37587   0.50095   0.74949   0.00000  Uiso   1.00
H1041  H     0.55424   0.37516   0.79041   0.00000  Uiso   1.00
H1042  H     0.44643   0.62472   0.70854   0.00000  Uiso   1.00
H1043  H     0.44638   0.37588   0.70859   0.00000  Uiso   1.00
H1044  H     0.55381   0.62411   0.79111   0.00000  Uiso   1.00
H1045  H     0.55911   0.56283   0.53447   0.00000  Uiso   1.00
H1046  H     0.56284   0.43902   0.96466   0.00000  Uiso   1.00
H1047  H     0.49740   0.56555   0.97870   0.00000  Uiso   1.00
H1048  H     0.50119   0.43326   0.52167   0.00000  Uiso   1.00
N1049  N     0.50000   0.61907   0.75000   0.00000  Uiso   1.00
N1050  N     0.50000   0.38093   0.75000   0.00000  Uiso   1.00
O1051  O     0.43892   0.53821   0.74999   0.00000  Uiso   1.00
O1052  O     0.56108   0.46179   0.75000   0.00000  Uiso   1.00
O1053  O     0.56108   0.53821   0.75000   0.00000  Uiso   1.00
O1054  O     0.43892   0.46179   0.74999   0.00000  Uiso   1.00
O1055  O     0.50000   0.53822   0.68453   0.00000  Uiso   1.00
O1056  O     0.50000   0.46178   0.81547   0.00000  Uiso   1.00
O1057  O     0.50000   0.53822   0.81547   0.00000  Uiso   1.00
O1058  O     0.50000   0.46178   0.68453   0.00000  Uiso   1.00
Zn1059 Zn    0.50000   0.55104   0.75000   0.00000  Uiso   1.00
Zn1060 Zn    0.50000   0.44896   0.75000   0.00000  Uiso   1.00
C1061  C     0.54925   0.57695   0.62199   0.00000  Uiso   1.00
H1062  H     0.56788   0.56637   0.65157   0.00000  Uiso   1.00
H1063  H     0.56962   0.59904   0.60144   0.00000  Uiso   1.00
H1064  H     0.52206   0.59802   0.63277   0.00000  Uiso   1.00
C1065  C     0.55511   0.42662   0.87647   0.00000  Uiso   1.00
H1066  H     0.52980   0.40352   0.86568   0.00000  Uiso   1.00
H1067  H     0.57233   0.43963   0.84692   0.00000  Uiso   1.00
H1068  H     0.57768   0.40608   0.89631   0.00000  Uiso   1.00
C1069  C     0.47447   0.57866   0.89435   0.00000  Uiso   1.00
H1070  H     0.44613   0.56664   0.87705   0.00000  Uiso   1.00
H1071  H     0.46396   0.60179   0.92179   0.00000  Uiso   1.00
H1072  H     0.49391   0.59906   0.87127   0.00000  Uiso   1.00
C1073  C     0.47839   0.41995   0.60610   0.00000  Uiso   1.00
H1074  H     0.49893   0.40028   0.62899   0.00000  Uiso   1.00
H1075  H     0.44946   0.43071   0.62375   0.00000  Uiso   1.00
H1076  H     0.46893   0.39643   0.57874   0.00000  Uiso   1.00
C1077  C     0.37879   0.47635   0.66710   0.00000  Uiso   1.00
H1078  H     0.41237   0.48471   0.66864   0.00000  Uiso   1.00
H1079  H     0.37616   0.43969   0.65882   0.00000  Uiso   1.00
H1080  H     0.36591   0.49709   0.63926   0.00000  Uiso   1.00
C1081  C     0.62101   0.52813   0.83176   0.00000  Uiso   1.00
H1082  H     0.58671   0.52576   0.82906   0.00000  Uiso   1.00
H1083  H     0.63012   0.50579   0.86006   0.00000  Uiso   1.00
H1084  H     0.62809   0.56401   0.84020   0.00000  Uiso   1.00
C1085  C     0.62022   0.46630   0.67135   0.00000  Uiso   1.00
H1086  H     0.60225   0.43597   0.68141   0.00000  Uiso   1.00
H1087  H     0.59821   0.49285   0.65950   0.00000  Uiso   1.00
H1088  H     0.63939   0.45566   0.64219   0.00000  Uiso   1.00
C1089  C     0.37994   0.53018   0.82956   0.00000  Uiso   1.00
H1090  H     0.39661   0.56177   0.82081   0.00000  Uiso   1.00
H1091  H     0.36126   0.53774   0.85996   0.00000  Uiso   1.00
H1092  H     0.40296   0.50347   0.83902   0.00000  Uiso   1.00
C1093  C     0.75344   0.50025   0.74995   0.00000  Uiso   1.00
C1094  C     0.91320   0.49973   0.74995   0.00000  Uiso   1.00
C1095  C     0.83553   0.49983   0.66347   0.00000  Uiso   1.00
C1096  C     0.83533   0.50019   0.83653   0.00000  Uiso   1.00
C1097  C     0.86338   0.35714   0.77262   0.00000  Uiso   1.00
C1098  C     0.80353   0.64283   0.72697   0.00000  Uiso   1.00
C1099  C     0.80350   0.35751   0.72701   0.00000  Uiso   1.00
C1100  C     0.86327   0.64248   0.77282   0.00000  Uiso   1.00
C1101  C     0.68843   0.48688   0.71023   0.00000  Uiso   1.00
C1102  C     0.97806   0.51391   0.78954   0.00000  Uiso   1.00
C1103  C     0.97830   0.48413   0.71134   0.00000  Uiso   1.00
C1104  C     0.68827   0.51462   0.78900   0.00000  Uiso   1.00
C1105  C     0.87698   0.53448   0.55032   0.00000  Uiso   1.00
C1106  C     0.87896   0.46668   0.94918   0.00000  Uiso   1.00
C1107  C     0.84226   0.53841   0.95710   0.00000  Uiso   1.00
C1108  C     0.84448   0.46104   0.54307   0.00000  Uiso   1.00
C1109  C     0.86781   0.53586   0.59590   0.00000  Uiso   1.00
C1110  C     0.87024   0.46561   0.90350   0.00000  Uiso   1.00
C1111  C     0.83262   0.53860   0.91173   0.00000  Uiso   1.00
C1112  C     0.83463   0.46086   0.58846   0.00000  Uiso   1.00
C1113  C     0.84521   0.49924   0.61535   0.00000  Uiso   1.00
C1114  C     0.84523   0.50097   0.88455   0.00000  Uiso   1.00
C1115  C     0.86436   0.49804   0.52408   0.00000  Uiso   1.00
C1116  C     0.86409   0.50215   0.97578   0.00000  Uiso   1.00
C1117  C     0.95733   0.49897   0.75050   0.00000  Uiso   1.00
C1118  C     0.70921   0.50095   0.74949   0.00000  Uiso   1.00
H1119  H     0.88758   0.37516   0.79041   0.00000  Uiso   1.00
H1120  H     0.77976   0.62472   0.70854   0.00000  Uiso   1.00
H1121  H     0.77972   0.37588   0.70859   0.00000  Uiso   1.00
H1122  H     0.88714   0.62411   0.79111   0.00000  Uiso   1.00
H1123  H     0.89245   0.56283   0.53447   0.00000  Uiso   1.00
H1124  H     0.89617   0.43902   0.96466   0.00000  Uiso   1.00
H1125  H     0.83074   0.56555   0.97870   0.00000  Uiso   1.00
H1126  H     0.83453   0.43326   0.52167   0.00000  Uiso   1.00
N1127  N     0.83333   0.61907   0.75000   0.00000  Uiso   1.00
N1128  N     0.83333   0.38093   0.75000   0.00000  Uiso   1.00
O1129  O     0.77226   0.53821   0.74999   0.00000  Uiso   1.00
O1130  O     0.89441   0.46179   0.75000   0.00000  Uiso   1.00
O1131  O     0.89441   0.53821   0.75000   0.00000  Uiso   1.00
O1132  O     0.77226   0.46179   0.74999   0.00000  Uiso   1.00
O1133  O     0.83333   0.53822   0.68453   0.00000  Uiso   1.00
O1134  O     0.83334   0.46178   0.81547   0.00000  Uiso   1.00
O1135  O     0.83334   0.53822   0.81547   0.00000  Uiso   1.00
O1136  O     0.83333   0.46178   0.68453   0.00000  Uiso   1.00
Zn1137 Zn    0.83333   0.55104   0.75000   0.00000  Uiso   1.00
Zn1138 Zn    0.83333   0.44896   0.75000   0.00000  Uiso   1.00
C1139  C     0.88258   0.57695   0.62199   0.00000  Uiso   1.00
H1140  H     0.90121   0.56637   0.65157   0.00000  Uiso   1.00
H1141  H     0.90295   0.59904   0.60144   0.00000  Uiso   1.00
H1142  H     0.85539   0.59802   0.63277   0.00000  Uiso   1.00
C1143  C     0.88845   0.42662   0.87647   0.00000  Uiso   1.00
H1144  H     0.86313   0.40352   0.86568   0.00000  Uiso   1.00
H1145  H     0.90566   0.43963   0.84692   0.00000  Uiso   1.00
H1146  H     0.91101   0.40608   0.89631   0.00000  Uiso   1.00
C1147  C     0.80780   0.57866   0.89435   0.00000  Uiso   1.00
H1148  H     0.77946   0.56664   0.87705   0.00000  Uiso   1.00
H1149  H     0.79729   0.60179   0.92179   0.00000  Uiso   1.00
H1150  H     0.82724   0.59906   0.87127   0.00000  Uiso   1.00
C1151  C     0.81172   0.41995   0.60610   0.00000  Uiso   1.00
H1152  H     0.83227   0.40028   0.62899   0.00000  Uiso   1.00
H1153  H     0.78279   0.43071   0.62375   0.00000  Uiso   1.00
H1154  H     0.80226   0.39643   0.57874   0.00000  Uiso   1.00
C1155  C     0.71213   0.47635   0.66710   0.00000  Uiso   1.00
H1156  H     0.74570   0.48471   0.66864   0.00000  Uiso   1.00
H1157  H     0.70949   0.43969   0.65882   0.00000  Uiso   1.00
H1158  H     0.69925   0.49709   0.63926   0.00000  Uiso   1.00
C1159  C     0.95434   0.52813   0.83176   0.00000  Uiso   1.00
H1160  H     0.92005   0.52576   0.82906   0.00000  Uiso   1.00
H1161  H     0.96345   0.50579   0.86006   0.00000  Uiso   1.00
H1162  H     0.96143   0.56401   0.84020   0.00000  Uiso   1.00
C1163  C     0.95355   0.46630   0.67135   0.00000  Uiso   1.00
H1164  H     0.93558   0.43597   0.68141   0.00000  Uiso   1.00
H1165  H     0.93154   0.49285   0.65950   0.00000  Uiso   1.00
H1166  H     0.97272   0.45566   0.64219   0.00000  Uiso   1.00
C1167  C     0.71327   0.53018   0.82956   0.00000  Uiso   1.00
H1168  H     0.72994   0.56177   0.82081   0.00000  Uiso   1.00
H1169  H     0.69460   0.53774   0.85996   0.00000  Uiso   1.00
H1170  H     0.73630   0.50347   0.83902   0.00000  Uiso   1.00
C1171  C     0.08678   0.83359   0.74995   0.00000  Uiso   1.00
C1172  C     0.24653   0.83306   0.74995   0.00000  Uiso   1.00
C1173  C     0.16887   0.83317   0.66347   0.00000  Uiso   1.00
C1174  C     0.16866   0.83352   0.83653   0.00000  Uiso   1.00
C1175  C     0.19672   0.69047   0.77262   0.00000  Uiso   1.00
C1176  C     0.13686   0.97616   0.72697   0.00000  Uiso   1.00
C1177  C     0.13683   0.69084   0.72701   0.00000  Uiso   1.00
C1178  C     0.19660   0.97581   0.77282   0.00000  Uiso   1.00
C1179  C     0.02176   0.82021   0.71023   0.00000  Uiso   1.00
C1180  C     0.31139   0.84724   0.78954   0.00000  Uiso   1.00
C1181  C     0.31163   0.81746   0.71134   0.00000  Uiso   1.00
C1182  C     0.02161   0.84796   0.78900   0.00000  Uiso   1.00
C1183  C     0.21031   0.86782   0.55032   0.00000  Uiso   1.00
C1184  C     0.21230   0.80001   0.94918   0.00000  Uiso   1.00
C1185  C     0.17559   0.87174   0.95710   0.00000  Uiso   1.00
C1186  C     0.17781   0.79437   0.54307   0.00000  Uiso   1.00
C1187  C     0.20115   0.86919   0.59590   0.00000  Uiso   1.00
C1188  C     0.20357   0.79895   0.90350   0.00000  Uiso   1.00
C1189  C     0.16595   0.87193   0.91173   0.00000  Uiso   1.00
C1190  C     0.16796   0.79420   0.58846   0.00000  Uiso   1.00
C1191  C     0.17854   0.83257   0.61535   0.00000  Uiso   1.00
C1192  C     0.17856   0.83430   0.88455   0.00000  Uiso   1.00
C1193  C     0.19770   0.83137   0.52408   0.00000  Uiso   1.00
C1194  C     0.19743   0.83549   0.97578   0.00000  Uiso   1.00
C1195  C     0.29067   0.83230   0.75050   0.00000  Uiso   1.00
C1196  C     0.04254   0.83429   0.74949   0.00000  Uiso   1.00
H1197  H     0.22091   0.70849   0.79041   0.00000  Uiso   1.00
H1198  H     0.11310   0.95805   0.70854   0.00000  Uiso   1.00
H1199  H     0.11305   0.70921   0.70859   0.00000  Uiso   1.00
H1200  H     0.22048   0.95744   0.79111   0.00000  Uiso   1.00
H1201  H     0.22578   0.89616   0.53447   0.00000  Uiso   1.00
H1202  H     0.22950   0.77235   0.96466   0.00000  Uiso   1.00
H1203  H     0.16407   0.89888   0.97870   0.00000  Uiso   1.00
H1204  H     0.16786   0.76659   0.52167   0.00000  Uiso   1.00
N1205  N     0.16667   0.95240   0.75000   0.00000  Uiso   1.00
N1206  N     0.16667   0.71427   0.75000   0.00000  Uiso   1.00
O1207  O     0.10559   0.87154   0.74999   0.00000  Uiso   1.00
O1208  O     0.22774   0.79513   0.75000   0.00000  Uiso   1.00
O1209  O     0.22774   0.87154   0.75000   0.00000  Uiso   1.00
O1210  O     0.10559   0.79513   0.74999   0.00000  Uiso   1.00
O1211  O     0.16666   0.87155   0.68453   0.00000  Uiso   1.00
O1212  O     0.16667   0.79511   0.81547   0.00000  Uiso   1.00
O1213  O     0.16667   0.87155   0.81547   0.00000  Uiso   1.00
O1214  O     0.16666   0.79511   0.68453   0.00000  Uiso   1.00
Zn1215 Zn    0.16667   0.88437   0.75000   0.00000  Uiso   1.00
Zn1216 Zn    0.16667   0.78229   0.75000   0.00000  Uiso   1.00
C1217  C     0.21591   0.91028   0.62199   0.00000  Uiso   1.00
H1218  H     0.23454   0.89971   0.65157   0.00000  Uiso   1.00
H1219  H     0.23628   0.93237   0.60144   0.00000  Uiso   1.00
H1220  H     0.18872   0.93135   0.63277   0.00000  Uiso   1.00
C1221  C     0.22178   0.75996   0.87647   0.00000  Uiso   1.00
H1222  H     0.19647   0.73686   0.86568   0.00000  Uiso   1.00
H1223  H     0.23900   0.77297   0.84692   0.00000  Uiso   1.00
H1224  H     0.24434   0.73942   0.89631   0.00000  Uiso   1.00
C1225  C     0.14114   0.91199   0.89435   0.00000  Uiso   1.00
H1226  H     0.11280   0.89997   0.87705   0.00000  Uiso   1.00
H1227  H     0.13063   0.93512   0.92179   0.00000  Uiso   1.00
H1228  H     0.16058   0.93240   0.87127   0.00000  Uiso   1.00
C1229  C     0.14506   0.75328   0.60610   0.00000  Uiso   1.00
H1230  H     0.16560   0.73361   0.62899   0.00000  Uiso   1.00
H1231  H     0.11612   0.76405   0.62375   0.00000  Uiso   1.00
H1232  H     0.13560   0.72976   0.57874   0.00000  Uiso   1.00
C1233  C     0.04546   0.80969   0.66710   0.00000  Uiso   1.00
H1234  H     0.07903   0.81804   0.66864   0.00000  Uiso   1.00
H1235  H     0.04283   0.77303   0.65882   0.00000  Uiso   1.00
H1236  H     0.03258   0.83042   0.63926   0.00000  Uiso   1.00
C1237  C     0.28767   0.86147   0.83176   0.00000  Uiso   1.00
H1238  H     0.25338   0.85909   0.82906   0.00000  Uiso   1.00
H1239  H     0.29679   0.83912   0.86006   0.00000  Uiso   1.00
H1240  H     0.29476   0.89734   0.84020   0.00000  Uiso   1.00
C1241  C     0.28688   0.79963   0.67135   0.00000  Uiso   1.00
H1242  H     0.26892   0.76930   0.68141   0.00000  Uiso   1.00
H1243  H     0.26488   0.82619   0.65950   0.00000  Uiso   1.00
H1244  H     0.30606   0.78899   0.64219   0.00000  Uiso   1.00
C1245  C     0.04661   0.86351   0.82956   0.00000  Uiso   1.00
H1246  H     0.06327   0.89510   0.82081   0.00000  Uiso   1.00
H1247  H     0.02793   0.87108   0.85996   0.00000  Uiso   1.00
H1248  H     0.06963   0.83680   0.83902   0.00000  Uiso   1.00
C1249  C     0.42011   0.83359   0.74995   0.00000  Uiso   1.00
C1250  C     0.57986   0.83306   0.74995   0.00000  Uiso   1.00
C1251  C     0.50220   0.83317   0.66347   0.00000  Uiso   1.00
C1252  C     0.50199   0.83352   0.83653   0.00000  Uiso   1.00
C1253  C     0.53005   0.69047   0.77262   0.00000  Uiso   1.00
C1254  C     0.47020   0.97616   0.72697   0.00000  Uiso   1.00
C1255  C     0.47017   0.69084   0.72701   0.00000  Uiso   1.00
C1256  C     0.52993   0.97581   0.77282   0.00000  Uiso   1.00
C1257  C     0.35510   0.82021   0.71023   0.00000  Uiso   1.00
C1258  C     0.64472   0.84724   0.78954   0.00000  Uiso   1.00
C1259  C     0.64497   0.81746   0.71134   0.00000  Uiso   1.00
C1260  C     0.35494   0.84796   0.78900   0.00000  Uiso   1.00
C1261  C     0.54365   0.86782   0.55032   0.00000  Uiso   1.00
C1262  C     0.54563   0.80001   0.94918   0.00000  Uiso   1.00
C1263  C     0.50892   0.87174   0.95710   0.00000  Uiso   1.00
C1264  C     0.51115   0.79437   0.54307   0.00000  Uiso   1.00
C1265  C     0.53448   0.86919   0.59590   0.00000  Uiso   1.00
C1266  C     0.53690   0.79895   0.90350   0.00000  Uiso   1.00
C1267  C     0.49928   0.87193   0.91173   0.00000  Uiso   1.00
C1268  C     0.50129   0.79420   0.58846   0.00000  Uiso   1.00
C1269  C     0.51188   0.83257   0.61535   0.00000  Uiso   1.00
C1270  C     0.51189   0.83430   0.88455   0.00000  Uiso   1.00
C1271  C     0.53103   0.83137   0.52408   0.00000  Uiso   1.00
C1272  C     0.53076   0.83549   0.97578   0.00000  Uiso   1.00
C1273  C     0.62400   0.83230   0.75050   0.00000  Uiso   1.00
C1274  C     0.37587   0.83429   0.74949   0.00000  Uiso   1.00
H1275  H     0.55424   0.70849   0.79041   0.00000  Uiso   1.00
H1276  H     0.44643   0.95805   0.70854   0.00000  Uiso   1.00
H1277  H     0.44638   0.70921   0.70859   0.00000  Uiso   1.00
H1278  H     0.55381   0.95744   0.79111   0.00000  Uiso   1.00
H1279  H     0.55911   0.89616   0.53447   0.00000  Uiso   1.00
H1280  H     0.56284   0.77235   0.96466   0.00000  Uiso   1.00
H1281  H     0.49740   0.89888   0.97870   0.00000  Uiso   1.00
H1282  H     0.50119   0.76659   0.52167   0.00000  Uiso   1.00
N1283  N     0.50000   0.95240   0.75000   0.00000  Uiso   1.00
N1284  N     0.50000   0.71427   0.75000   0.00000  Uiso   1.00
O1285  O     0.43892   0.87154   0.74999   0.00000  Uiso   1.00
O1286  O     0.56108   0.79513   0.75000   0.00000  Uiso   1.00
O1287  O     0.56108   0.87154   0.75000   0.00000  Uiso   1.00
O1288  O     0.43892   0.79513   0.74999   0.00000  Uiso   1.00
O1289  O     0.50000   0.87155   0.68453   0.00000  Uiso   1.00
O1290  O     0.50000   0.79511   0.81547   0.00000  Uiso   1.00
O1291  O     0.50000   0.87155   0.81547   0.00000  Uiso   1.00
O1292  O     0.50000   0.79511   0.68453   0.00000  Uiso   1.00
Zn1293 Zn    0.50000   0.88437   0.75000   0.00000  Uiso   1.00
Zn1294 Zn    0.50000   0.78229   0.75000   0.00000  Uiso   1.00
C1295  C     0.54925   0.91028   0.62199   0.00000  Uiso   1.00
H1296  H     0.56788   0.89971   0.65157   0.00000  Uiso   1.00
H1297  H     0.56962   0.93237   0.60144   0.00000  Uiso   1.00
H1298  H     0.52206   0.93135   0.63277   0.00000  Uiso   1.00
C1299  C     0.55511   0.75996   0.87647   0.00000  Uiso   1.00
H1300  H     0.52980   0.73686   0.86568   0.00000  Uiso   1.00
H1301  H     0.57233   0.77297   0.84692   0.00000  Uiso   1.00
H1302  H     0.57768   0.73942   0.89631   0.00000  Uiso   1.00
C1303  C     0.47447   0.91199   0.89435   0.00000  Uiso   1.00
H1304  H     0.44613   0.89997   0.87705   0.00000  Uiso   1.00
H1305  H     0.46396   0.93512   0.92179   0.00000  Uiso   1.00
H1306  H     0.49391   0.93240   0.87127   0.00000  Uiso   1.00
C1307  C     0.47839   0.75328   0.60610   0.00000  Uiso   1.00
H1308  H     0.49893   0.73361   0.62899   0.00000  Uiso   1.00
H1309  H     0.44946   0.76405   0.62375   0.00000  Uiso   1.00
H1310  H     0.46893   0.72976   0.57874   0.00000  Uiso   1.00
C1311  C     0.37879   0.80969   0.66710   0.00000  Uiso   1.00
H1312  H     0.41237   0.81804   0.66864   0.00000  Uiso   1.00
H1313  H     0.37616   0.77303   0.65882   0.00000  Uiso   1.00
H1314  H     0.36591   0.83042   0.63926   0.00000  Uiso   1.00
C1315  C     0.62101   0.86147   0.83176   0.00000  Uiso   1.00
H1316  H     0.58671   0.85909   0.82906   0.00000  Uiso   1.00
H1317  H     0.63012   0.83912   0.86006   0.00000  Uiso   1.00
H1318  H     0.62809   0.89734   0.84020   0.00000  Uiso   1.00
C1319  C     0.62022   0.79963   0.67135   0.00000  Uiso   1.00
H1320  H     0.60225   0.76930   0.68141   0.00000  Uiso   1.00
H1321  H     0.59821   0.82619   0.65950   0.00000  Uiso   1.00
H1322  H     0.63939   0.78899   0.64219   0.00000  Uiso   1.00
C1323  C     0.37994   0.86351   0.82956   0.00000  Uiso   1.00
H1324  H     0.39661   0.89510   0.82081   0.00000  Uiso   1.00
H1325  H     0.36126   0.87108   0.85996   0.00000  Uiso   1.00
H1326  H     0.40296   0.83680   0.83902   0.00000  Uiso   1.00
C1327  C     0.75344   0.83359   0.74995   0.00000  Uiso   1.00
C1328  C     0.91320   0.83306   0.74995   0.00000  Uiso   1.00
C1329  C     0.83553   0.83317   0.66347   0.00000  Uiso   1.00
C1330  C     0.83533   0.83352   0.83653   0.00000  Uiso   1.00
C1331  C     0.86338   0.69047   0.77262   0.00000  Uiso   1.00
C1332  C     0.80353   0.97616   0.72697   0.00000  Uiso   1.00
C1333  C     0.80350   0.69084   0.72701   0.00000  Uiso   1.00
C1334  C     0.86327   0.97581   0.77282   0.00000  Uiso   1.00
C1335  C     0.68843   0.82021   0.71023   0.00000  Uiso   1.00
C1336  C     0.97806   0.84724   0.78954   0.00000  Uiso   1.00
C1337  C     0.97830   0.81746   0.71134   0.00000  Uiso   1.00
C1338  C     0.68827   0.84796   0.78900   0.00000  Uiso   1.00
C1339  C     0.87698   0.86782   0.55032   0.00000  Uiso   1.00
C1340  C     0.87896   0.80001   0.94918   0.00000  Uiso   1.00
C1341  C     0.84226   0.87174   0.95710   0.00000  Uiso   1.00
C1342  C     0.84448   0.79437   0.54307   0.00000  Uiso   1.00
C1343  C     0.86781   0.86919   0.59590   0.00000  Uiso   1.00
C1344  C     0.87024   0.79895   0.90350   0.00000  Uiso   1.00
C1345  C     0.83262   0.87193   0.91173   0.00000  Uiso   1.00
C1346  C     0.83463   0.79420   0.58846   0.00000  Uiso   1.00
C1347  C     0.84521   0.83257   0.61535   0.00000  Uiso   1.00
C1348  C     0.84523   0.83430   0.88455   0.00000  Uiso   1.00
C1349  C     0.86436   0.83137   0.52408   0.00000  Uiso   1.00
C1350  C     0.86409   0.83549   0.97578   0.00000  Uiso   1.00
C1351  C     0.95733   0.83230   0.75050   0.00000  Uiso   1.00
C1352  C     0.70921   0.83429   0.74949   0.00000  Uiso   1.00
H1353  H     0.88758   0.70849   0.79041   0.00000  Uiso   1.00
H1354  H     0.77976   0.95805   0.70854   0.00000  Uiso   1.00
H1355  H     0.77972   0.70921   0.70859   0.00000  Uiso   1.00
H1356  H     0.88714   0.95744   0.79111   0.00000  Uiso   1.00
H1357  H     0.89245   0.89616   0.53447   0.00000  Uiso   1.00
H1358  H     0.89617   0.77235   0.96466   0.00000  Uiso   1.00
H1359  H     0.83074   0.89888   0.97870   0.00000  Uiso   1.00
H1360  H     0.83453   0.76659   0.52167   0.00000  Uiso   1.00
N1361  N     0.83333   0.95240   0.75000   0.00000  Uiso   1.00
N1362  N     0.83333   0.71427   0.75000   0.00000  Uiso   1.00
O1363  O     0.77226   0.87154   0.74999   0.00000  Uiso   1.00
O1364  O     0.89441   0.79513   0.75000   0.00000  Uiso   1.00
O1365  O     0.89441   0.87154   0.75000   0.00000  Uiso   1.00
O1366  O     0.77226   0.79513   0.74999   0.00000  Uiso   1.00
O1367  O     0.83333   0.87155   0.68453   0.00000  Uiso   1.00
O1368  O     0.83334   0.79511   0.81547   0.00000  Uiso   1.00
O1369  O     0.83334   0.87155   0.81547   0.00000  Uiso   1.00
O1370  O     0.83333   0.79511   0.68453   0.00000  Uiso   1.00
Zn1371 Zn    0.83333   0.88437   0.75000   0.00000  Uiso   1.00
Zn1372 Zn    0.83333   0.78229   0.75000   0.00000  Uiso   1.00
C1373  C     0.88258   0.91028   0.62199   0.00000  Uiso   1.00
H1374  H     0.90121   0.89971   0.65157   0.00000  Uiso   1.00
H1375  H     0.90295   0.93237   0.60144   0.00000  Uiso   1.00
H1376  H     0.85539   0.93135   0.63277   0.00000  Uiso   1.00
C1377  C     0.88845   0.75996   0.87647   0.00000  Uiso   1.00
H1378  H     0.86313   0.73686   0.86568   0.00000  Uiso   1.00
H1379  H     0.90566   0.77297   0.84692   0.00000  Uiso   1.00
H1380  H     0.91101   0.73942   0.89631   0.00000  Uiso   1.00
C1381  C     0.80780   0.91199   0.89435   0.00000  Uiso   1.00
H1382  H     0.77946   0.89997   0.87705   0.00000  Uiso   1.00
H1383  H     0.79729   0.93512   0.92179   0.00000  Uiso   1.00
H1384  H     0.82724   0.93240   0.87127   0.00000  Uiso   1.00
C1385  C     0.81172   0.75328   0.60610   0.00000  Uiso   1.00
H1386  H     0.83227   0.73361   0.62899   0.00000  Uiso   1.00
H1387  H     0.78279   0.76405   0.62375   0.00000  Uiso   1.00
H1388  H     0.80226   0.72976   0.57874   0.00000  Uiso   1.00
C1389  C     0.71213   0.80969   0.66710   0.00000  Uiso   1.00
H1390  H     0.74570   0.81804   0.66864   0.00000  Uiso   1.00
H1391  H     0.70949   0.77303   0.65882   0.00000  Uiso   1.00
H1392  H     0.69925   0.83042   0.63926   0.00000  Uiso   1.00
C1393  C     0.95434   0.86147   0.83176   0.00000  Uiso   1.00
H1394  H     0.92005   0.85909   0.82906   0.00000  Uiso   1.00
H1395  H     0.96345   0.83912   0.86006   0.00000  Uiso   1.00
H1396  H     0.96143   0.89734   0.84020   0.00000  Uiso   1.00
C1397  C     0.95355   0.79963   0.67135   0.00000  Uiso   1.00
H1398  H     0.93558   0.76930   0.68141   0.00000  Uiso   1.00
H1399  H     0.93154   0.82619   0.65950   0.00000  Uiso   1.00
H1400  H     0.97272   0.78899   0.64219   0.00000  Uiso   1.00
C1401  C     0.71327   0.86351   0.82956   0.00000  Uiso   1.00
H1402  H     0.72994   0.89510   0.82081   0.00000  Uiso   1.00
H1403  H     0.69460   0.87108   0.85996   0.00000  Uiso   1.00
H1404  H     0.73630   0.83680   0.83902   0.00000  Uiso   1.00
loop_
_geom_bond_atom_site_label_1
_geom_bond_atom_site_label_2
_geom_bond_distance
_geom_bond_site_symmetry_2
_ccdc_geom_bond_type
C1     O40     1.278   .     A
C1     O37     1.275   .     A
C1     C26     1.416   .     S
C2     O39     1.278   .     A
C2     O38     1.274   .     A
C2     C25     1.413   .     S
C3     O44     1.290   .     A
C3     C21     1.466   .     S
C3     O41     1.291   .     A
C4     C22     1.466   .     S
C4     O43     1.288   .     A
C4     O42     1.293   .     A
C5     N36     1.366   .     A
C5     H27     1.081   .     S
C5     C476    1.414   1_545 S
C6     N35     1.366   .     A
C6     H28     1.082   .     S
C6     C241    1.414   .     S
C7     H29     1.082   .     S
C7     N36     1.366   .     A
C7     C474    1.414   1_545 S
C8     N35     1.365   .     A
C8     H30     1.082   .     S
C8     C239    1.414   .     S
C9     C26     1.409   .     A
C9     C63     1.520   .     S
C9     C167    1.394   1_455 S
C10    C67     1.523   .     S
C10    C25     1.410   .     A
C10    C90     1.394   .     S
C11    C71     1.525   .     S
C11    C25     1.410   .     A
C11    C87     1.394   .     S
C12    C26     1.408   .     A
C12    C75     1.521   .     S
C12    C166    1.394   1_455 S
C13    C23     1.388   .     A
C13    H31     1.085   .     S
C13    C17     1.389   .     A
C14    C18     1.390   .     A
C14    C24     1.388   .     A
C14    H32     1.085   .     S
C15    C19     1.387   .     A
C15    C24     1.390   .     A
C15    H33     1.085   .     S
C16    H34     1.085   .     S
C16    C20     1.388   .     A
C16    C23     1.390   .     A
C17    C21     1.429   .     A
C17    C47     1.514   .     S
C18    C51     1.511   .     S
C18    C22     1.427   .     A
C19    C22     1.424   .     A
C19    C55     1.511   .     S
C20    C59     1.513   .     S
C20    C21     1.425   .     A
C23    C726    1.445   1_554 S
C24    C725    1.445   .     S
N35    Zn45    2.004   .     S
N36    Zn46    2.004   .     S
O37    Zn45    1.994   .     S
O38    Zn46    1.994   .     S
O39    Zn45    1.987   .     S
O40    Zn46    1.987   .     S
O41    Zn45    1.985   .     S
O42    Zn46    1.985   .     S
O43    Zn45    1.989   .     S
O44    Zn46    1.989   .     S
C47    H49     1.111   .     S
C47    H50     1.110   .     S
C47    H48     1.109   .     S
C51    H52     1.109   .     S
C51    H54     1.111   .     S
C51    H53     1.110   .     S
C55    H56     1.104   .     S
C55    H57     1.111   .     S
C55    H58     1.110   .     S
C59    H60     1.110   .     S
C59    H61     1.107   .     S
C59    H62     1.111   .     S
C63    H65     1.110   .     S
C63    H66     1.110   .     S
C63    H64     1.105   .     S
C67    H68     1.103   .     S
C67    H69     1.110   .     S
C67    H70     1.110   .     S
C71    H73     1.107   .     S
C71    H74     1.105   .     S
C71    H72     1.110   .     S
C75    H77     1.105   .     S
C75    H76     1.109   .     S
C75    H78     1.111   .     S
C79    O118    1.278   .     A
C79    O115    1.275   .     A
C79    C104    1.416   .     S
C80    O117    1.278   .     A
C80    O116    1.274   .     A
C80    C103    1.413   .     S
C81    O122    1.290   .     A
C81    C99     1.466   .     S
C81    O119    1.291   .     A
C82    C100    1.466   .     S
C82    O121    1.288   .     A
C82    O120    1.293   .     A
C83    N114    1.366   .     A
C83    H105    1.081   .     S
C83    C554    1.414   1_545 S
C84    N113    1.366   .     A
C84    H106    1.082   .     S
C84    C319    1.414   .     S
C85    H107    1.082   .     S
C85    N114    1.366   .     A
C85    C552    1.414   1_545 S
C86    N113    1.365   .     A
C86    H108    1.082   .     S
C86    C317    1.414   .     S
C87    C104    1.409   .     A
C87    C141    1.520   .     S
C88    C145    1.523   .     S
C88    C103    1.410   .     A
C88    C168    1.394   .     S
C89    C149    1.525   .     S
C89    C103    1.410   .     A
C89    C165    1.394   .     S
C90    C104    1.408   .     A
C90    C153    1.521   .     S
C91    C101    1.388   .     A
C91    H109    1.085   .     S
C91    C95     1.389   .     A
C92    C96     1.390   .     A
C92    C102    1.388   .     A
C92    H110    1.085   .     S
C93    C97     1.387   .     A
C93    C102    1.390   .     A
C93    H111    1.085   .     S
C94    H112    1.085   .     S
C94    C98     1.388   .     A
C94    C101    1.390   .     A
C95    C99     1.429   .     A
C95    C125    1.514   .     S
C96    C129    1.511   .     S
C96    C100    1.427   .     A
C97    C100    1.424   .     A
C97    C133    1.511   .     S
C98    C137    1.513   .     S
C98    C99     1.425   .     A
C101   C804    1.445   1_554 S
C102   C803    1.445   .     S
N113   Zn123   2.004   .     S
N114   Zn124   2.004   .     S
O115   Zn123   1.994   .     S
O116   Zn124   1.994   .     S
O117   Zn123   1.987   .     S
O118   Zn124   1.987   .     S
O119   Zn123   1.985   .     S
O120   Zn124   1.985   .     S
O121   Zn123   1.989   .     S
O122   Zn124   1.989   .     S
C125   H127    1.111   .     S
C125   H128    1.110   .     S
C125   H126    1.109   .     S
C129   H130    1.109   .     S
C129   H132    1.111   .     S
C129   H131    1.110   .     S
C133   H134    1.104   .     S
C133   H135    1.111   .     S
C133   H136    1.110   .     S
C137   H138    1.110   .     S
C137   H139    1.107   .     S
C137   H140    1.111   .     S
C141   H143    1.110   .     S
C141   H144    1.110   .     S
C141   H142    1.105   .     S
C145   H146    1.103   .     S
C145   H147    1.110   .     S
C145   H148    1.110   .     S
C149   H151    1.107   .     S
C149   H152    1.105   .     S
C149   H150    1.110   .     S
C153   H155    1.105   .     S
C153   H154    1.109   .     S
C153   H156    1.111   .     S
C157   O196    1.278   .     A
C157   O193    1.275   .     A
C157   C182    1.416   .     S
C158   O195    1.278   .     A
C158   O194    1.274   .     A
C158   C181    1.413   .     S
C159   O200    1.290   .     A
C159   C177    1.466   .     S
C159   O197    1.291   .     A
C160   C178    1.466   .     S
C160   O199    1.288   .     A
C160   O198    1.293   .     A
C161   N192    1.366   .     A
C161   H183    1.081   .     S
C161   C632    1.414   1_545 S
C162   N191    1.366   .     A
C162   H184    1.082   .     S
C162   C397    1.414   .     S
C163   H185    1.082   .     S
C163   N192    1.366   .     A
C163   C630    1.414   1_545 S
C164   N191    1.365   .     A
C164   H186    1.082   .     S
C164   C395    1.414   .     S
C165   C182    1.409   .     A
C165   C219    1.520   .     S
C166   C223    1.523   .     S
C166   C181    1.410   .     A
C166   C12     1.394   1_655 S
C167   C227    1.525   .     S
C167   C181    1.410   .     A
C167   C9      1.394   1_655 S
C168   C182    1.408   .     A
C168   C231    1.521   .     S
C169   C179    1.388   .     A
C169   H187    1.085   .     S
C169   C173    1.389   .     A
C170   C174    1.390   .     A
C170   C180    1.388   .     A
C170   H188    1.085   .     S
C171   C175    1.387   .     A
C171   C180    1.390   .     A
C171   H189    1.085   .     S
C172   H190    1.085   .     S
C172   C176    1.388   .     A
C172   C179    1.390   .     A
C173   C177    1.429   .     A
C173   C203    1.514   .     S
C174   C207    1.511   .     S
C174   C178    1.427   .     A
C175   C178    1.424   .     A
C175   C211    1.511   .     S
C176   C215    1.513   .     S
C176   C177    1.425   .     A
C179   C882    1.445   1_554 S
C180   C881    1.445   .     S
N191   Zn201   2.004   .     S
N192   Zn202   2.004   .     S
O193   Zn201   1.994   .     S
O194   Zn202   1.994   .     S
O195   Zn201   1.987   .     S
O196   Zn202   1.987   .     S
O197   Zn201   1.985   .     S
O198   Zn202   1.985   .     S
O199   Zn201   1.989   .     S
O200   Zn202   1.989   .     S
C203   H205    1.111   .     S
C203   H206    1.110   .     S
C203   H204    1.109   .     S
C207   H208    1.109   .     S
C207   H210    1.111   .     S
C207   H209    1.110   .     S
C211   H212    1.104   .     S
C211   H213    1.111   .     S
C211   H214    1.110   .     S
C215   H216    1.110   .     S
C215   H217    1.107   .     S
C215   H218    1.111   .     S
C219   H221    1.110   .     S
C219   H222    1.110   .     S
C219   H220    1.105   .     S
C223   H224    1.103   .     S
C223   H225    1.110   .     S
C223   H226    1.110   .     S
C227   H229    1.107   .     S
C227   H230    1.105   .     S
C227   H228    1.110   .     S
C231   H233    1.105   .     S
C231   H232    1.109   .     S
C231   H234    1.111   .     S
C235   O274    1.278   .     A
C235   O271    1.275   .     A
C235   C260    1.416   .     S
C236   O273    1.278   .     A
C236   O272    1.274   .     A
C236   C259    1.413   .     S
C237   O278    1.290   .     A
C237   C255    1.466   .     S
C237   O275    1.291   .     A
C238   C256    1.466   .     S
C238   O277    1.288   .     A
C238   O276    1.293   .     A
C239   N270    1.366   .     A
C239   H261    1.081   .     S
C240   N269    1.366   .     A
C240   H262    1.082   .     S
C240   C475    1.414   .     S
C241   H263    1.082   .     S
C241   N270    1.366   .     A
C242   N269    1.365   .     A
C242   H264    1.082   .     S
C242   C473    1.414   .     S
C243   C260    1.409   .     A
C243   C297    1.520   .     S
C243   C401    1.394   1_455 S
C244   C301    1.523   .     S
C244   C259    1.410   .     A
C244   C324    1.394   .     S
C245   C305    1.525   .     S
C245   C259    1.410   .     A
C245   C321    1.394   .     S
C246   C260    1.408   .     A
C246   C309    1.521   .     S
C246   C400    1.394   1_455 S
C247   C257    1.388   .     A
C247   H265    1.085   .     S
C247   C251    1.389   .     A
C248   C252    1.390   .     A
C248   C258    1.388   .     A
C248   H266    1.085   .     S
C249   C253    1.387   .     A
C249   C258    1.390   .     A
C249   H267    1.085   .     S
C250   H268    1.085   .     S
C250   C254    1.388   .     A
C250   C257    1.390   .     A
C251   C255    1.429   .     A
C251   C281    1.514   .     S
C252   C285    1.511   .     S
C252   C256    1.427   .     A
C253   C256    1.424   .     A
C253   C289    1.511   .     S
C254   C293    1.513   .     S
C254   C255    1.425   .     A
C257   C960    1.445   1_554 S
C258   C959    1.445   .     S
N269   Zn279   2.004   .     S
N270   Zn280   2.004   .     S
O271   Zn279   1.994   .     S
O272   Zn280   1.994   .     S
O273   Zn279   1.987   .     S
O274   Zn280   1.987   .     S
O275   Zn279   1.985   .     S
O276   Zn280   1.985   .     S
O277   Zn279   1.989   .     S
O278   Zn280   1.989   .     S
C281   H283    1.111   .     S
C281   H284    1.110   .     S
C281   H282    1.109   .     S
C285   H286    1.109   .     S
C285   H288    1.111   .     S
C285   H287    1.110   .     S
C289   H290    1.104   .     S
C289   H291    1.111   .     S
C289   H292    1.110   .     S
C293   H294    1.110   .     S
C293   H295    1.107   .     S
C293   H296    1.111   .     S
C297   H299    1.110   .     S
C297   H300    1.110   .     S
C297   H298    1.105   .     S
C301   H302    1.103   .     S
C301   H303    1.110   .     S
C301   H304    1.110   .     S
C305   H307    1.107   .     S
C305   H308    1.105   .     S
C305   H306    1.110   .     S
C309   H311    1.105   .     S
C309   H310    1.109   .     S
C309   H312    1.111   .     S
C313   O352    1.278   .     A
C313   O349    1.275   .     A
C313   C338    1.416   .     S
C314   O351    1.278   .     A
C314   O350    1.274   .     A
C314   C337    1.413   .     S
C315   O356    1.290   .     A
C315   C333    1.466   .     S
C315   O353    1.291   .     A
C316   C334    1.466   .     S
C316   O355    1.288   .     A
C316   O354    1.293   .     A
C317   N348    1.366   .     A
C317   H339    1.081   .     S
C318   N347    1.366   .     A
C318   H340    1.082   .     S
C318   C553    1.414   .     S
C319   H341    1.082   .     S
C319   N348    1.366   .     A
C320   N347    1.365   .     A
C320   H342    1.082   .     S
C320   C551    1.414   .     S
C321   C338    1.409   .     A
C321   C375    1.520   .     S
C322   C379    1.523   .     S
C322   C337    1.410   .     A
C322   C402    1.394   .     S
C323   C383    1.525   .     S
C323   C337    1.410   .     A
C323   C399    1.394   .     S
C324   C338    1.408   .     A
C324   C387    1.521   .     S
C325   C335    1.388   .     A
C325   H343    1.085   .     S
C325   C329    1.389   .     A
C326   C330    1.390   .     A
C326   C336    1.388   .     A
C326   H344    1.085   .     S
C327   C331    1.387   .     A
C327   C336    1.390   .     A
C327   H345    1.085   .     S
C328   H346    1.085   .     S
C328   C332    1.388   .     A
C328   C335    1.390   .     A
C329   C333    1.429   .     A
C329   C359    1.514   .     S
C330   C363    1.511   .     S
C330   C334    1.427   .     A
C331   C334    1.424   .     A
C331   C367    1.511   .     S
C332   C371    1.513   .     S
C332   C333    1.425   .     A
C335   C1038   1.445   1_554 S
C336   C1037   1.445   .     S
N347   Zn357   2.004   .     S
N348   Zn358   2.004   .     S
O349   Zn357   1.994   .     S
O350   Zn358   1.994   .     S
O351   Zn357   1.987   .     S
O352   Zn358   1.987   .     S
O353   Zn357   1.985   .     S
O354   Zn358   1.985   .     S
O355   Zn357   1.989   .     S
O356   Zn358   1.989   .     S
C359   H361    1.111   .     S
C359   H362    1.110   .     S
C359   H360    1.109   .     S
C363   H364    1.109   .     S
C363   H366    1.111   .     S
C363   H365    1.110   .     S
C367   H368    1.104   .     S
C367   H369    1.111   .     S
C367   H370    1.110   .     S
C371   H372    1.110   .     S
C371   H373    1.107   .     S
C371   H374    1.111   .     S
C375   H377    1.110   .     S
C375   H378    1.110   .     S
C375   H376    1.105   .     S
C379   H380    1.103   .     S
C379   H381    1.110   .     S
C379   H382    1.110   .     S
C383   H385    1.107   .     S
C383   H386    1.105   .     S
C383   H384    1.110   .     S
C387   H389    1.105   .     S
C387   H388    1.109   .     S
C387   H390    1.111   .     S
C391   O430    1.278   .     A
C391   O427    1.275   .     A
C391   C416    1.416   .     S
C392   O429    1.278   .     A
C392   O428    1.274   .     A
C392   C415    1.413   .     S
C393   O434    1.290   .     A
C393   C411    1.466   .     S
C393   O431    1.291   .     A
C394   C412    1.466   .     S
C394   O433    1.288   .     A
C394   O432    1.293   .     A
C395   N426    1.366   .     A
C395   H417    1.081   .     S
C396   N425    1.366   .     A
C396   H418    1.082   .     S
C396   C631    1.414   .     S
C397   H419    1.082   .     S
C397   N426    1.366   .     A
C398   N425    1.365   .     A
C398   H420    1.082   .     S
C398   C629    1.414   .     S
C399   C416    1.409   .     A
C399   C453    1.520   .     S
C400   C457    1.523   .     S
C400   C415    1.410   .     A
C400   C246    1.394   1_655 S
C401   C461    1.525   .     S
C401   C415    1.410   .     A
C401   C243    1.394   1_655 S
C402   C416    1.408   .     A
C402   C465    1.521   .     S
C403   C413    1.388   .     A
C403   H421    1.085   .     S
C403   C407    1.389   .     A
C404   C408    1.390   .     A
C404   C414    1.388   .     A
C404   H422    1.085   .     S
C405   C409    1.387   .     A
C405   C414    1.390   .     A
C405   H423    1.085   .     S
C406   H424    1.085   .     S
C406   C410    1.388   .     A
C406   C413    1.390   .     A
C407   C411    1.429   .     A
C407   C437    1.514   .     S
C408   C441    1.511   .     S
C408   C412    1.427   .     A
C409   C412    1.424   .     A
C409   C445    1.511   .     S
C410   C449    1.513   .     S
C410   C411    1.425   .     A
C413   C1116   1.445   1_554 S
C414   C1115   1.445   .     S
N425   Zn435   2.004   .     S
N426   Zn436   2.004   .     S
O427   Zn435   1.994   .     S
O428   Zn436   1.994   .     S
O429   Zn435   1.987   .     S
O430   Zn436   1.987   .     S
O431   Zn435   1.985   .     S
O432   Zn436   1.985   .     S
O433   Zn435   1.989   .     S
O434   Zn436   1.989   .     S
C437   H439    1.111   .     S
C437   H440    1.110   .     S
C437   H438    1.109   .     S
C441   H442    1.109   .     S
C441   H444    1.111   .     S
C441   H443    1.110   .     S
C445   H446    1.104   .     S
C445   H447    1.111   .     S
C445   H448    1.110   .     S
C449   H450    1.110   .     S
C449   H451    1.107   .     S
C449   H452    1.111   .     S
C453   H455    1.110   .     S
C453   H456    1.110   .     S
C453   H454    1.105   .     S
C457   H458    1.103   .     S
C457   H459    1.110   .     S
C457   H460    1.110   .     S
C461   H463    1.107   .     S
C461   H464    1.105   .     S
C461   H462    1.110   .     S
C465   H467    1.105   .     S
C465   H466    1.109   .     S
C465   H468    1.111   .     S
C469   O508    1.278   .     A
C469   O505    1.275   .     A
C469   C494    1.416   .     S
C470   O507    1.278   .     A
C470   O506    1.274   .     A
C470   C493    1.413   .     S
C471   O512    1.290   .     A
C471   C489    1.466   .     S
C471   O509    1.291   .     A
C472   C490    1.466   .     S
C472   O511    1.288   .     A
C472   O510    1.293   .     A
C473   N504    1.366   .     A
C473   H495    1.081   .     S
C474   N503    1.366   .     A
C474   H496    1.082   .     S
C474   C7      1.414   1_565 S
C475   H497    1.082   .     S
C475   N504    1.366   .     A
C476   N503    1.365   .     A
C476   H498    1.082   .     S
C476   C5      1.414   1_565 S
C477   C494    1.409   .     A
C477   C531    1.520   .     S
C477   C635    1.394   1_455 S
C478   C535    1.523   .     S
C478   C493    1.410   .     A
C478   C558    1.394   .     S
C479   C539    1.525   .     S
C479   C493    1.410   .     A
C479   C555    1.394   .     S
C480   C494    1.408   .     A
C480   C543    1.521   .     S
C480   C634    1.394   1_455 S
C481   C491    1.388   .     A
C481   H499    1.085   .     S
C481   C485    1.389   .     A
C482   C486    1.390   .     A
C482   C492    1.388   .     A
C482   H500    1.085   .     S
C483   C487    1.387   .     A
C483   C492    1.390   .     A
C483   H501    1.085   .     S
C484   H502    1.085   .     S
C484   C488    1.388   .     A
C484   C491    1.390   .     A
C485   C489    1.429   .     A
C485   C515    1.514   .     S
C486   C519    1.511   .     S
C486   C490    1.427   .     A
C487   C490    1.424   .     A
C487   C523    1.511   .     S
C488   C527    1.513   .     S
C488   C489    1.425   .     A
C491   C1194   1.445   1_554 S
C492   C1193   1.445   .     S
N503   Zn513   2.004   .     S
N504   Zn514   2.004   .     S
O505   Zn513   1.994   .     S
O506   Zn514   1.994   .     S
O507   Zn513   1.987   .     S
O508   Zn514   1.987   .     S
O509   Zn513   1.985   .     S
O510   Zn514   1.985   .     S
O511   Zn513   1.989   .     S
O512   Zn514   1.989   .     S
C515   H517    1.111   .     S
C515   H518    1.110   .     S
C515   H516    1.109   .     S
C519   H520    1.109   .     S
C519   H522    1.111   .     S
C519   H521    1.110   .     S
C523   H524    1.104   .     S
C523   H525    1.111   .     S
C523   H526    1.110   .     S
C527   H528    1.110   .     S
C527   H529    1.107   .     S
C527   H530    1.111   .     S
C531   H533    1.110   .     S
C531   H534    1.110   .     S
C531   H532    1.105   .     S
C535   H536    1.103   .     S
C535   H537    1.110   .     S
C535   H538    1.110   .     S
C539   H541    1.107   .     S
C539   H542    1.105   .     S
C539   H540    1.110   .     S
C543   H545    1.105   .     S
C543   H544    1.109   .     S
C543   H546    1.111   .     S
C547   O586    1.278   .     A
C547   O583    1.275   .     A
C547   C572    1.416   .     S
C548   O585    1.278   .     A
C548   O584    1.274   .     A
C548   C571    1.413   .     S
C549   O590    1.290   .     A
C549   C567    1.466   .     S
C549   O587    1.291   .     A
C550   C568    1.466   .     S
C550   O589    1.288   .     A
C550   O588    1.293   .     A
C551   N582    1.366   .     A
C551   H573    1.081   .     S
C552   N581    1.366   .     A
C552   H574    1.082   .     S
C552   C85     1.414   1_565 S
C553   H575    1.082   .     S
C553   N582    1.366   .     A
C554   N581    1.365   .     A
C554   H576    1.082   .     S
C554   C83     1.414   1_565 S
C555   C572    1.409   .     A
C555   C609    1.520   .     S
C556   C613    1.523   .     S
C556   C571    1.410   .     A
C556   C636    1.394   .     S
C557   C617    1.525   .     S
C557   C571    1.410   .     A
C557   C633    1.394   .     S
C558   C572    1.408   .     A
C558   C621    1.521   .     S
C559   C569    1.388   .     A
C559   H577    1.085   .     S
C559   C563    1.389   .     A
C560   C564    1.390   .     A
C560   C570    1.388   .     A
C560   H578    1.085   .     S
C561   C565    1.387   .     A
C561   C570    1.390   .     A
C561   H579    1.085   .     S
C562   H580    1.085   .     S
C562   C566    1.388   .     A
C562   C569    1.390   .     A
C563   C567    1.429   .     A
C563   C593    1.514   .     S
C564   C597    1.511   .     S
C564   C568    1.427   .     A
C565   C568    1.424   .     A
C565   C601    1.511   .     S
C566   C605    1.513   .     S
C566   C567    1.425   .     A
C569   C1272   1.445   1_554 S
C570   C1271   1.445   .     S
N581   Zn591   2.004   .     S
N582   Zn592   2.004   .     S
O583   Zn591   1.994   .     S
O584   Zn592   1.994   .     S
O585   Zn591   1.987   .     S
O586   Zn592   1.987   .     S
O587   Zn591   1.985   .     S
O588   Zn592   1.985   .     S
O589   Zn591   1.989   .     S
O590   Zn592   1.989   .     S
C593   H595    1.111   .     S
C593   H596    1.110   .     S
C593   H594    1.109   .     S
C597   H598    1.109   .     S
C597   H600    1.111   .     S
C597   H599    1.110   .     S
C601   H602    1.104   .     S
C601   H603    1.111   .     S
C601   H604    1.110   .     S
C605   H606    1.110   .     S
C605   H607    1.107   .     S
C605   H608    1.111   .     S
C609   H611    1.110   .     S
C609   H612    1.110   .     S
C609   H610    1.105   .     S
C613   H614    1.103   .     S
C613   H615    1.110   .     S
C613   H616    1.110   .     S
C617   H619    1.107   .     S
C617   H620    1.105   .     S
C617   H618    1.110   .     S
C621   H623    1.105   .     S
C621   H622    1.109   .     S
C621   H624    1.111   .     S
C625   O664    1.278   .     A
C625   O661    1.275   .     A
C625   C650    1.416   .     S
C626   O663    1.278   .     A
C626   O662    1.274   .     A
C626   C649    1.413   .     S
C627   O668    1.290   .     A
C627   C645    1.466   .     S
C627   O665    1.291   .     A
C628   C646    1.466   .     S
C628   O667    1.288   .     A
C628   O666    1.293   .     A
C629   N660    1.366   .     A
C629   H651    1.081   .     S
C630   N659    1.366   .     A
C630   H652    1.082   .     S
C630   C163    1.414   1_565 S
C631   H653    1.082   .     S
C631   N660    1.366   .     A
C632   N659    1.365   .     A
C632   H654    1.082   .     S
C632   C161    1.414   1_565 S
C633   C650    1.409   .     A
C633   C687    1.520   .     S
C634   C691    1.523   .     S
C634   C649    1.410   .     A
C634   C480    1.394   1_655 S
C635   C695    1.525   .     S
C635   C649    1.410   .     A
C635   C477    1.394   1_655 S
C636   C650    1.408   .     A
C636   C699    1.521   .     S
C637   C647    1.388   .     A
C637   H655    1.085   .     S
C637   C641    1.389   .     A
C638   C642    1.390   .     A
C638   C648    1.388   .     A
C638   H656    1.085   .     S
C639   C643    1.387   .     A
C639   C648    1.390   .     A
C639   H657    1.085   .     S
C640   H658    1.085   .     S
C640   C644    1.388   .     A
C640   C647    1.390   .     A
C641   C645    1.429   .     A
C641   C671    1.514   .     S
C642   C675    1.511   .     S
C642   C646    1.427   .     A
C643   C646    1.424   .     A
C643   C679    1.511   .     S
C644   C683    1.513   .     S
C644   C645    1.425   .     A
C647   C1350   1.445   1_554 S
C648   C1349   1.445   .     S
N659   Zn669   2.004   .     S
N660   Zn670   2.004   .     S
O661   Zn669   1.994   .     S
O662   Zn670   1.994   .     S
O663   Zn669   1.987   .     S
O664   Zn670   1.987   .     S
O665   Zn669   1.985   .     S
O666   Zn670   1.985   .     S
O667   Zn669   1.989   .     S
O668   Zn670   1.989   .     S
C671   H673    1.111   .     S
C671   H674    1.110   .     S
C671   H672    1.109   .     S
C675   H676    1.109   .     S
C675   H678    1.111   .     S
C675   H677    1.110   .     S
C679   H680    1.104   .     S
C679   H681    1.111   .     S
C679   H682    1.110   .     S
C683   H684    1.110   .     S
C683   H685    1.107   .     S
C683   H686    1.111   .     S
C687   H689    1.110   .     S
C687   H690    1.110   .     S
C687   H688    1.105   .     S
C691   H692    1.103   .     S
C691   H693    1.110   .     S
C691   H694    1.110   .     S
C695   H697    1.107   .     S
C695   H698    1.105   .     S
C695   H696    1.110   .     S
C699   H701    1.105   .     S
C699   H700    1.109   .     S
C699   H702    1.111   .     S
C703   O742    1.278   .     A
C703   O739    1.275   .     A
C703   C728    1.416   .     S
C704   O741    1.278   .     A
C704   O740    1.274   .     A
C704   C727    1.413   .     S
C705   O746    1.290   .     A
C705   C723    1.466   .     S
C705   O743    1.291   .     A
C706   C724    1.466   .     S
C706   O745    1.288   .     A
C706   O744    1.293   .     A
C707   N738    1.366   .     A
C707   H729    1.081   .     S
C707   C1178   1.414   1_545 S
C708   N737    1.366   .     A
C708   H730    1.082   .     S
C708   C943    1.414   .     S
C709   H731    1.082   .     S
C709   N738    1.366   .     A
C709   C1176   1.414   1_545 S
C710   N737    1.365   .     A
C710   H732    1.082   .     S
C710   C941    1.414   .     S
C711   C728    1.409   .     A
C711   C765    1.520   .     S
C711   C869    1.394   1_455 S
C712   C769    1.523   .     S
C712   C727    1.410   .     A
C712   C792    1.394   .     S
C713   C773    1.525   .     S
C713   C727    1.410   .     A
C713   C789    1.394   .     S
C714   C728    1.408   .     A
C714   C777    1.521   .     S
C714   C868    1.394   1_455 S
C715   C725    1.388   .     A
C715   H733    1.085   .     S
C715   C719    1.389   .     A
C716   C720    1.390   .     A
C716   C726    1.388   .     A
C716   H734    1.085   .     S
C717   C721    1.387   .     A
C717   C726    1.390   .     A
C717   H735    1.085   .     S
C718   H736    1.085   .     S
C718   C722    1.388   .     A
C718   C725    1.390   .     A
C719   C723    1.429   .     A
C719   C749    1.514   .     S
C720   C753    1.511   .     S
C720   C724    1.427   .     A
C721   C724    1.424   .     A
C721   C757    1.511   .     S
C722   C761    1.513   .     S
C722   C723    1.425   .     A
C726   C23     1.445   1_556 S
N737   Zn747   2.004   .     S
N738   Zn748   2.004   .     S
O739   Zn747   1.994   .     S
O740   Zn748   1.994   .     S
O741   Zn747   1.987   .     S
O742   Zn748   1.987   .     S
O743   Zn747   1.985   .     S
O744   Zn748   1.985   .     S
O745   Zn747   1.989   .     S
O746   Zn748   1.989   .     S
C749   H751    1.111   .     S
C749   H752    1.110   .     S
C749   H750    1.109   .     S
C753   H754    1.109   .     S
C753   H756    1.111   .     S
C753   H755    1.110   .     S
C757   H758    1.104   .     S
C757   H759    1.111   .     S
C757   H760    1.110   .     S
C761   H762    1.110   .     S
C761   H763    1.107   .     S
C761   H764    1.111   .     S
C765   H767    1.110   .     S
C765   H768    1.110   .     S
C765   H766    1.105   .     S
C769   H770    1.103   .     S
C769   H771    1.110   .     S
C769   H772    1.110   .     S
C773   H775    1.107   .     S
C773   H776    1.105   .     S
C773   H774    1.110   .     S
C777   H779    1.105   .     S
C777   H778    1.109   .     S
C777   H780    1.111   .     S
C781   O820    1.278   .     A
C781   O817    1.275   .     A
C781   C806    1.416   .     S
C782   O819    1.278   .     A
C782   O818    1.274   .     A
C782   C805    1.413   .     S
C783   O824    1.290   .     A
C783   C801    1.466   .     S
C783   O821    1.291   .     A
C784   C802    1.466   .     S
C784   O823    1.288   .     A
C784   O822    1.293   .     A
C785   N816    1.366   .     A
C785   H807    1.081   .     S
C785   C1256   1.414   1_545 S
C786   N815    1.366   .     A
C786   H808    1.082   .     S
C786   C1021   1.414   .     S
C787   H809    1.082   .     S
C787   N816    1.366   .     A
C787   C1254   1.414   1_545 S
C788   N815    1.365   .     A
C788   H810    1.082   .     S
C788   C1019   1.414   .     S
C789   C806    1.409   .     A
C789   C843    1.520   .     S
C790   C847    1.523   .     S
C790   C805    1.410   .     A
C790   C870    1.394   .     S
C791   C851    1.525   .     S
C791   C805    1.410   .     A
C791   C867    1.394   .     S
C792   C806    1.408   .     A
C792   C855    1.521   .     S
C793   C803    1.388   .     A
C793   H811    1.085   .     S
C793   C797    1.389   .     A
C794   C798    1.390   .     A
C794   C804    1.388   .     A
C794   H812    1.085   .     S
C795   C799    1.387   .     A
C795   C804    1.390   .     A
C795   H813    1.085   .     S
C796   H814    1.085   .     S
C796   C800    1.388   .     A
C796   C803    1.390   .     A
C797   C801    1.429   .     A
C797   C827    1.514   .     S
C798   C831    1.511   .     S
C798   C802    1.427   .     A
C799   C802    1.424   .     A
C799   C835    1.511   .     S
C800   C839    1.513   .     S
C800   C801    1.425   .     A
C804   C101    1.445   1_556 S
N815   Zn825   2.004   .     S
N816   Zn826   2.004   .     S
O817   Zn825   1.994   .     S
O818   Zn826   1.994   .     S
O819   Zn825   1.987   .     S
O820   Zn826   1.987   .     S
O821   Zn825   1.985   .     S
O822   Zn826   1.985   .     S
O823   Zn825   1.989   .     S
O824   Zn826   1.989   .     S
C827   H829    1.111   .     S
C827   H830    1.110   .     S
C827   H828    1.109   .     S
C831   H832    1.109   .     S
C831   H834    1.111   .     S
C831   H833    1.110   .     S
C835   H836    1.104   .     S
C835   H837    1.111   .     S
C835   H838    1.110   .     S
C839   H840    1.110   .     S
C839   H841    1.107   .     S
C839   H842    1.111   .     S
C843   H845    1.110   .     S
C843   H846    1.110   .     S
C843   H844    1.105   .     S
C847   H848    1.103   .     S
C847   H849    1.110   .     S
C847   H850    1.110   .     S
C851   H853    1.107   .     S
C851   H854    1.105   .     S
C851   H852    1.110   .     S
C855   H857    1.105   .     S
C855   H856    1.109   .     S
C855   H858    1.111   .     S
C859   O898    1.278   .     A
C859   O895    1.275   .     A
C859   C884    1.416   .     S
C860   O897    1.278   .     A
C860   O896    1.274   .     A
C860   C883    1.413   .     S
C861   O902    1.290   .     A
C861   C879    1.466   .     S
C861   O899    1.291   .     A
C862   C880    1.466   .     S
C862   O901    1.288   .     A
C862   O900    1.293   .     A
C863   N894    1.366   .     A
C863   H885    1.081   .     S
C863   C1334   1.414   1_545 S
C864   N893    1.366   .     A
C864   H886    1.082   .     S
C864   C1099   1.414   .     S
C865   H887    1.082   .     S
C865   N894    1.366   .     A
C865   C1332   1.414   1_545 S
C866   N893    1.365   .     A
C866   H888    1.082   .     S
C866   C1097   1.414   .     S
C867   C884    1.409   .     A
C867   C921    1.520   .     S
C868   C925    1.523   .     S
C868   C883    1.410   .     A
C868   C714    1.394   1_655 S
C869   C929    1.525   .     S
C869   C883    1.410   .     A
C869   C711    1.394   1_655 S
C870   C884    1.408   .     A
C870   C933    1.521   .     S
C871   C881    1.388   .     A
C871   H889    1.085   .     S
C871   C875    1.389   .     A
C872   C876    1.390   .     A
C872   C882    1.388   .     A
C872   H890    1.085   .     S
C873   C877    1.387   .     A
C873   C882    1.390   .     A
C873   H891    1.085   .     S
C874   H892    1.085   .     S
C874   C878    1.388   .     A
C874   C881    1.390   .     A
C875   C879    1.429   .     A
C875   C905    1.514   .     S
C876   C909    1.511   .     S
C876   C880    1.427   .     A
C877   C880    1.424   .     A
C877   C913    1.511   .     S
C878   C917    1.513   .     S
C878   C879    1.425   .     A
C882   C179    1.445   1_556 S
N893   Zn903   2.004   .     S
N894   Zn904   2.004   .     S
O895   Zn903   1.994   .     S
O896   Zn904   1.994   .     S
O897   Zn903   1.987   .     S
O898   Zn904   1.987   .     S
O899   Zn903   1.985   .     S
O900   Zn904   1.985   .     S
O901   Zn903   1.989   .     S
O902   Zn904   1.989   .     S
C905   H907    1.111   .     S
C905   H908    1.110   .     S
C905   H906    1.109   .     S
C909   H910    1.109   .     S
C909   H912    1.111   .     S
C909   H911    1.110   .     S
C913   H914    1.104   .     S
C913   H915    1.111   .     S
C913   H916    1.110   .     S
C917   H918    1.110   .     S
C917   H919    1.107   .     S
C917   H920    1.111   .     S
C921   H923    1.110   .     S
C921   H924    1.110   .     S
C921   H922    1.105   .     S
C925   H926    1.103   .     S
C925   H927    1.110   .     S
C925   H928    1.110   .     S
C929   H931    1.107   .     S
C929   H932    1.105   .     S
C929   H930    1.110   .     S
C933   H935    1.105   .     S
C933   H934    1.109   .     S
C933   H936    1.111   .     S
C937   O976    1.278   .     A
C937   O973    1.275   .     A
C937   C962    1.416   .     S
C938   O975    1.278   .     A
C938   O974    1.274   .     A
C938   C961    1.413   .     S
C939   O980    1.290   .     A
C939   C957    1.466   .     S
C939   O977    1.291   .     A
C940   C958    1.466   .     S
C940   O979    1.288   .     A
C940   O978    1.293   .     A
C941   N972    1.366   .     A
C941   H963    1.081   .     S
C942   N971    1.366   .     A
C942   H964    1.082   .     S
C942   C1177   1.414   .     S
C943   H965    1.082   .     S
C943   N972    1.366   .     A
C944   N971    1.365   .     A
C944   H966    1.082   .     S
C944   C1175   1.414   .     S
C945   C962    1.409   .     A
C945   C999    1.520   .     S
C945   C1103   1.394   1_455 S
C946   C1003   1.523   .     S
C946   C961    1.410   .     A
C946   C1026   1.394   .     S
C947   C1007   1.525   .     S
C947   C961    1.410   .     A
C947   C1023   1.394   .     S
C948   C962    1.408   .     A
C948   C1011   1.521   .     S
C948   C1102   1.394   1_455 S
C949   C959    1.388   .     A
C949   H967    1.085   .     S
C949   C953    1.389   .     A
C950   C954    1.390   .     A
C950   C960    1.388   .     A
C950   H968    1.085   .     S
C951   C955    1.387   .     A
C951   C960    1.390   .     A
C951   H969    1.085   .     S
C952   H970    1.085   .     S
C952   C956    1.388   .     A
C952   C959    1.390   .     A
C953   C957    1.429   .     A
C953   C983    1.514   .     S
C954   C987    1.511   .     S
C954   C958    1.427   .     A
C955   C958    1.424   .     A
C955   C991    1.511   .     S
C956   C995    1.513   .     S
C956   C957    1.425   .     A
C960   C257    1.445   1_556 S
N971   Zn981   2.004   .     S
N972   Zn982   2.004   .     S
O973   Zn981   1.994   .     S
O974   Zn982   1.994   .     S
O975   Zn981   1.987   .     S
O976   Zn982   1.987   .     S
O977   Zn981   1.985   .     S
O978   Zn982   1.985   .     S
O979   Zn981   1.989   .     S
O980   Zn982   1.989   .     S
C983   H985    1.111   .     S
C983   H986    1.110   .     S
C983   H984    1.109   .     S
C987   H988    1.109   .     S
C987   H990    1.111   .     S
C987   H989    1.110   .     S
C991   H992    1.104   .     S
C991   H993    1.111   .     S
C991   H994    1.110   .     S
C995   H996    1.110   .     S
C995   H997    1.107   .     S
C995   H998    1.111   .     S
C999   H1001   1.110   .     S
C999   H1002   1.110   .     S
C999   H1000   1.105   .     S
C1003  H1004   1.103   .     S
C1003  H1005   1.110   .     S
C1003  H1006   1.110   .     S
C1007  H1009   1.107   .     S
C1007  H1010   1.105   .     S
C1007  H1008   1.110   .     S
C1011  H1013   1.105   .     S
C1011  H1012   1.109   .     S
C1011  H1014   1.111   .     S
C1015  O1054   1.278   .     A
C1015  O1051   1.275   .     A
C1015  C1040   1.416   .     S
C1016  O1053   1.278   .     A
C1016  O1052   1.274   .     A
C1016  C1039   1.413   .     S
C1017  O1058   1.290   .     A
C1017  C1035   1.466   .     S
C1017  O1055   1.291   .     A
C1018  C1036   1.466   .     S
C1018  O1057   1.288   .     A
C1018  O1056   1.293   .     A
C1019  N1050   1.366   .     A
C1019  H1041   1.081   .     S
C1020  N1049   1.366   .     A
C1020  H1042   1.082   .     S
C1020  C1255   1.414   .     S
C1021  H1043   1.082   .     S
C1021  N1050   1.366   .     A
C1022  N1049   1.365   .     A
C1022  H1044   1.082   .     S
C1022  C1253   1.414   .     S
C1023  C1040   1.409   .     A
C1023  C1077   1.520   .     S
C1024  C1081   1.523   .     S
C1024  C1039   1.410   .     A
C1024  C1104   1.394   .     S
C1025  C1085   1.525   .     S
C1025  C1039   1.410   .     A
C1025  C1101   1.394   .     S
C1026  C1040   1.408   .     A
C1026  C1089   1.521   .     S
C1027  C1037   1.388   .     A
C1027  H1045   1.085   .     S
C1027  C1031   1.389   .     A
C1028  C1032   1.390   .     A
C1028  C1038   1.388   .     A
C1028  H1046   1.085   .     S
C1029  C1033   1.387   .     A
C1029  C1038   1.390   .     A
C1029  H1047   1.085   .     S
C1030  H1048   1.085   .     S
C1030  C1034   1.388   .     A
C1030  C1037   1.390   .     A
C1031  C1035   1.429   .     A
C1031  C1061   1.514   .     S
C1032  C1065   1.511   .     S
C1032  C1036   1.427   .     A
C1033  C1036   1.424   .     A
C1033  C1069   1.511   .     S
C1034  C1073   1.513   .     S
C1034  C1035   1.425   .     A
C1038  C335    1.445   1_556 S
N1049  Zn1059  2.004   .     S
N1050  Zn1060  2.004   .     S
O1051  Zn1059  1.994   .     S
O1052  Zn1060  1.994   .     S
O1053  Zn1059  1.987   .     S
O1054  Zn1060  1.987   .     S
O1055  Zn1059  1.985   .     S
O1056  Zn1060  1.985   .     S
O1057  Zn1059  1.989   .     S
O1058  Zn1060  1.989   .     S
C1061  H1063   1.111   .     S
C1061  H1064   1.110   .     S
C1061  H1062   1.109   .     S
C1065  H1066   1.109   .     S
C1065  H1068   1.111   .     S
C1065  H1067   1.110   .     S
C1069  H1070   1.104   .     S
C1069  H1071   1.111   .     S
C1069  H1072   1.110   .     S
C1073  H1074   1.110   .     S
C1073  H1075   1.107   .     S
C1073  H1076   1.111   .     S
C1077  H1079   1.110   .     S
C1077  H1080   1.110   .     S
C1077  H1078   1.105   .     S
C1081  H1082   1.103   .     S
C1081  H1083   1.110   .     S
C1081  H1084   1.110   .     S
C1085  H1087   1.107   .     S
C1085  H1088   1.105   .     S
C1085  H1086   1.110   .     S
C1089  H1091   1.105   .     S
C1089  H1090   1.109   .     S
C1089  H1092   1.111   .     S
C1093  O1132   1.278   .     A
C1093  O1129   1.275   .     A
C1093  C1118   1.416   .     S
C1094  O1131   1.278   .     A
C1094  O1130   1.274   .     A
C1094  C1117   1.413   .     S
C1095  O1136   1.290   .     A
C1095  C1113   1.466   .     S
C1095  O1133   1.291   .     A
C1096  C1114   1.466   .     S
C1096  O1135   1.288   .     A
C1096  O1134   1.293   .     A
C1097  N1128   1.366   .     A
C1097  H1119   1.081   .     S
C1098  N1127   1.366   .     A
C1098  H1120   1.082   .     S
C1098  C1333   1.414   .     S
C1099  H1121   1.082   .     S
C1099  N1128   1.366   .     A
C1100  N1127   1.365   .     A
C1100  H1122   1.082   .     S
C1100  C1331   1.414   .     S
C1101  C1118   1.409   .     A
C1101  C1155   1.520   .     S
C1102  C1159   1.523   .     S
C1102  C1117   1.410   .     A
C1102  C948    1.394   1_655 S
C1103  C1163   1.525   .     S
C1103  C1117   1.410   .     A
C1103  C945    1.394   1_655 S
C1104  C1118   1.408   .     A
C1104  C1167   1.521   .     S
C1105  C1115   1.388   .     A
C1105  H1123   1.085   .     S
C1105  C1109   1.389   .     A
C1106  C1110   1.390   .     A
C1106  C1116   1.388   .     A
C1106  H1124   1.085   .     S
C1107  C1111   1.387   .     A
C1107  C1116   1.390   .     A
C1107  H1125   1.085   .     S
C1108  H1126   1.085   .     S
C1108  C1112   1.388   .     A
C1108  C1115   1.390   .     A
C1109  C1113   1.429   .     A
C1109  C1139   1.514   .     S
C1110  C1143   1.511   .     S
C1110  C1114   1.427   .     A
C1111  C1114   1.424   .     A
C1111  C1147   1.511   .     S
C1112  C1151   1.513   .     S
C1112  C1113   1.425   .     A
C1116  C413    1.445   1_556 S
N1127  Zn1137  2.004   .     S
N1128  Zn1138  2.004   .     S
O1129  Zn1137  1.994   .     S
O1130  Zn1138  1.994   .     S
O1131  Zn1137  1.987   .     S
O1132  Zn1138  1.987   .     S
O1133  Zn1137  1.985   .     S
O1134  Zn1138  1.985   .     S
O1135  Zn1137  1.989   .     S
O1136  Zn1138  1.989   .     S
C1139  H1141   1.111   .     S
C1139  H1142   1.110   .     S
C1139  H1140   1.109   .     S
C1143  H1144   1.109   .     S
C1143  H1146   1.111   .     S
C1143  H1145   1.110   .     S
C1147  H1148   1.104   .     S
C1147  H1149   1.111   .     S
C1147  H1150   1.110   .     S
C1151  H1152   1.110   .     S
C1151  H1153   1.107   .     S
C1151  H1154   1.111   .     S
C1155  H1157   1.110   .     S
C1155  H1158   1.110   .     S
C1155  H1156   1.105   .     S
C1159  H1160   1.103   .     S
C1159  H1161   1.110   .     S
C1159  H1162   1.110   .     S
C1163  H1165   1.107   .     S
C1163  H1166   1.105   .     S
C1163  H1164   1.110   .     S
C1167  H1169   1.105   .     S
C1167  H1168   1.109   .     S
C1167  H1170   1.111   .     S
C1171  O1210   1.278   .     A
C1171  O1207   1.275   .     A
C1171  C1196   1.416   .     S
C1172  O1209   1.278   .     A
C1172  O1208   1.274   .     A
C1172  C1195   1.413   .     S
C1173  O1214   1.290   .     A
C1173  C1191   1.466   .     S
C1173  O1211   1.291   .     A
C1174  C1192   1.466   .     S
C1174  O1213   1.288   .     A
C1174  O1212   1.293   .     A
C1175  N1206   1.366   .     A
C1175  H1197   1.081   .     S
C1176  N1205   1.366   .     A
C1176  H1198   1.082   .     S
C1176  C709    1.414   1_565 S
C1177  H1199   1.082   .     S
C1177  N1206   1.366   .     A
C1178  N1205   1.365   .     A
C1178  H1200   1.082   .     S
C1178  C707    1.414   1_565 S
C1179  C1196   1.409   .     A
C1179  C1233   1.520   .     S
C1179  C1337   1.394   1_455 S
C1180  C1237   1.523   .     S
C1180  C1195   1.410   .     A
C1180  C1260   1.394   .     S
C1181  C1241   1.525   .     S
C1181  C1195   1.410   .     A
C1181  C1257   1.394   .     S
C1182  C1196   1.408   .     A
C1182  C1245   1.521   .     S
C1182  C1336   1.394   1_455 S
C1183  C1193   1.388   .     A
C1183  H1201   1.085   .     S
C1183  C1187   1.389   .     A
C1184  C1188   1.390   .     A
C1184  C1194   1.388   .     A
C1184  H1202   1.085   .     S
C1185  C1189   1.387   .     A
C1185  C1194   1.390   .     A
C1185  H1203   1.085   .     S
C1186  H1204   1.085   .     S
C1186  C1190   1.388   .     A
C1186  C1193   1.390   .     A
C1187  C1191   1.429   .     A
C1187  C1217   1.514   .     S
C1188  C1221   1.511   .     S
C1188  C1192   1.427   .     A
C1189  C1192   1.424   .     A
C1189  C1225   1.511   .     S
C1190  C1229   1.513   .     S
C1190  C1191   1.425   .     A
C1194  C491    1.445   1_556 S
N1205  Zn1215  2.004   .     S
N1206  Zn1216  2.004   .     S
O1207  Zn1215  1.994   .     S
O1208  Zn1216  1.994   .     S
O1209  Zn1215  1.987   .     S
O1210  Zn1216  1.987   .     S
O1211  Zn1215  1.985   .     S
O1212  Zn1216  1.985   .     S
O1213  Zn1215  1.989   .     S
O1214  Zn1216  1.989   .     S
C1217  H1219   1.111   .     S
C1217  H1220   1.110   .     S
C1217  H1218   1.109   .     S
C1221  H1222   1.109   .     S
C1221  H1224   1.111   .     S
C1221  H1223   1.110   .     S
C1225  H1226   1.104   .     S
C1225  H1227   1.111   .     S
C1225  H1228   1.110   .     S
C1229  H1230   1.110   .     S
C1229  H1231   1.107   .     S
C1229  H1232   1.111   .     S
C1233  H1235   1.110   .     S
C1233  H1236   1.110   .     S
C1233  H1234   1.105   .     S
C1237  H1238   1.103   .     S
C1237  H1239   1.110   .     S
C1237  H1240   1.110   .     S
C1241  H1243   1.107   .     S
C1241  H1244   1.105   .     S
C1241  H1242   1.110   .     S
C1245  H1247   1.105   .     S
C1245  H1246   1.109   .     S
C1245  H1248   1.111   .     S
C1249  O1288   1.278   .     A
C1249  O1285   1.275   .     A
C1249  C1274   1.416   .     S
C1250  O1287   1.278   .     A
C1250  O1286   1.274   .     A
C1250  C1273   1.413   .     S
C1251  O1292   1.290   .     A
C1251  C1269   1.466   .     S
C1251  O1289   1.291   .     A
C1252  C1270   1.466   .     S
C1252  O1291   1.288   .     A
C1252  O1290   1.293   .     A
C1253  N1284   1.366   .     A
C1253  H1275   1.081   .     S
C1254  N1283   1.366   .     A
C1254  H1276   1.082   .     S
C1254  C787    1.414   1_565 S
C1255  H1277   1.082   .     S
C1255  N1284   1.366   .     A
C1256  N1283   1.365   .     A
C1256  H1278   1.082   .     S
C1256  C785    1.414   1_565 S
C1257  C1274   1.409   .     A
C1257  C1311   1.520   .     S
C1258  C1315   1.523   .     S
C1258  C1273   1.410   .     A
C1258  C1338   1.394   .     S
C1259  C1319   1.525   .     S
C1259  C1273   1.410   .     A
C1259  C1335   1.394   .     S
C1260  C1274   1.408   .     A
C1260  C1323   1.521   .     S
C1261  C1271   1.388   .     A
C1261  H1279   1.085   .     S
C1261  C1265   1.389   .     A
C1262  C1266   1.390   .     A
C1262  C1272   1.388   .     A
C1262  H1280   1.085   .     S
C1263  C1267   1.387   .     A
C1263  C1272   1.390   .     A
C1263  H1281   1.085   .     S
C1264  H1282   1.085   .     S
C1264  C1268   1.388   .     A
C1264  C1271   1.390   .     A
C1265  C1269   1.429   .     A
C1265  C1295   1.514   .     S
C1266  C1299   1.511   .     S
C1266  C1270   1.427   .     A
C1267  C1270   1.424   .     A
C1267  C1303   1.511   .     S
C1268  C1307   1.513   .     S
C1268  C1269   1.425   .     A
C1272  C569    1.445   1_556 S
N1283  Zn1293  2.004   .     S
N1284  Zn1294  2.004   .     S
O1285  Zn1293  1.994   .     S
O1286  Zn1294  1.994   .     S
O1287  Zn1293  1.987   .     S
O1288  Zn1294  1.987   .     S
O1289  Zn1293  1.985   .     S
O1290  Zn1294  1.985   .     S
O1291  Zn1293  1.989   .     S
O1292  Zn1294  1.989   .     S
C1295  H1297   1.111   .     S
C1295  H1298   1.110   .     S
C1295  H1296   1.109   .     S
C1299  H1300   1.109   .     S
C1299  H1302   1.111   .     S
C1299  H1301   1.110   .     S
C1303  H1304   1.104   .     S
C1303  H1305   1.111   .     S
C1303  H1306   1.110   .     S
C1307  H1308   1.110   .     S
C1307  H1309   1.107   .     S
C1307  H1310   1.111   .     S
C1311  H1313   1.110   .     S
C1311  H1314   1.110   .     S
C1311  H1312   1.105   .     S
C1315  H1316   1.103   .     S
C1315  H1317   1.110   .     S
C1315  H1318   1.110   .     S
C1319  H1321   1.107   .     S
C1319  H1322   1.105   .     S
C1319  H1320   1.110   .     S
C1323  H1325   1.105   .     S
C1323  H1324   1.109   .     S
C1323  H1326   1.111   .     S
C1327  O1366   1.278   .     A
C1327  O1363   1.275   .     A
C1327  C1352   1.416   .     S
C1328  O1365   1.278   .     A
C1328  O1364   1.274   .     A
C1328  C1351   1.413   .     S
C1329  O1370   1.290   .     A
C1329  C1347   1.466   .     S
C1329  O1367   1.291   .     A
C1330  C1348   1.466   .     S
C1330  O1369   1.288   .     A
C1330  O1368   1.293   .     A
C1331  N1362   1.366   .     A
C1331  H1353   1.081   .     S
C1332  N1361   1.366   .     A
C1332  H1354   1.082   .     S
C1332  C865    1.414   1_565 S
C1333  H1355   1.082   .     S
C1333  N1362   1.366   .     A
C1334  N1361   1.365   .     A
C1334  H1356   1.082   .     S
C1334  C863    1.414   1_565 S
C1335  C1352   1.409   .     A
C1335  C1389   1.520   .     S
C1336  C1393   1.523   .     S
C1336  C1351   1.410   .     A
C1336  C1182   1.394   1_655 S
C1337  C1397   1.525   .     S
C1337  C1351   1.410   .     A
C1337  C1179   1.394   1_655 S
C1338  C1352   1.408   .     A
C1338  C1401   1.521   .     S
C1339  C1349   1.388   .     A
C1339  H1357   1.085   .     S
C1339  C1343   1.389   .     A
C1340  C1344   1.390   .     A
C1340  C1350   1.388   .     A
C1340  H1358   1.085   .     S
C1341  C1345   1.387   .     A
C1341  C1350   1.390   .     A
C1341  H1359   1.085   .     S
C1342  H1360   1.085   .     S
C1342  C1346   1.388   .     A
C1342  C1349   1.390   .     A
C1343  C1347   1.429   .     A
C1343  C1373   1.514   .     S
C1344  C1377   1.511   .     S
C1344  C1348   1.427   .     A
C1345  C1348   1.424   .     A
C1345  C1381   1.511   .     S
C1346  C1385   1.513   .     S
C1346  C1347   1.425   .     A
C1350  C647    1.445   1_556 S
N1361  Zn1371  2.004   .     S
N1362  Zn1372  2.004   .     S
O1363  Zn1371  1.994   .     S
O1364  Zn1372  1.994   .     S
O1365  Zn1371  1.987   .     S
O1366  Zn1372  1.987   .     S
O1367  Zn1371  1.985   .     S
O1368  Zn1372  1.985   .     S
O1369  Zn1371  1.989   .     S
O1370  Zn1372  1.989   .     S
C1373  H1375   1.111   .     S
C1373  H1376   1.110   .     S
C1373  H1374   1.109   .     S
C1377  H1378   1.109   .     S
C1377  H1380   1.111   .     S
C1377  H1379   1.110   .     S
C1381  H1382   1.104   .     S
C1381  H1383   1.111   .     S
C1381  H1384   1.110   .     S
C1385  H1386   1.110   .     S
C1385  H1387   1.107   .     S
C1385  H1388   1.111   .     S
C1389  H1391   1.110   .     S
C1389  H1392   1.110   .     S
C1389  H1390   1.105   .     S
C1393  H1394   1.103   .     S
C1393  H1395   1.110   .     S
C1393  H1396   1.110   .     S
C1397  H1399   1.107   .     S
C1397  H1400   1.105   .     S
C1397  H1398   1.110   .     S
C1401  H1403   1.105   .     S
C1401  H1402   1.109   .     S
C1401  H1404   1.111   .     S
