data_str_m3_o10_o16_pcu_sym.74
_audit_creation_date              2020-01-03
_audit_creation_method            'Materials Studio'
_symmetry_space_group_name_H-M    'P1'
_symmetry_Int_Tables_number       1
_symmetry_cell_setting            triclinic
loop_
_symmetry_equiv_pos_as_xyz
  x,y,z
_cell_length_a                    23.7039
_cell_length_b                    25.8520
_cell_length_c                    25.2072
_cell_angle_alpha                 92.4193
_cell_angle_beta                  104.4714
_cell_angle_gamma                 93.5305
loop_
_atom_site_label
_atom_site_type_symbol
_atom_site_fract_x
_atom_site_fract_y
_atom_site_fract_z
_atom_site_U_iso_or_equiv
_atom_site_adp_type
_atom_site_occupancy
C1     C     0.01489   0.26472   0.24959   0.00000  Uiso   1.00
C2     C     0.06509   0.18736   0.41083   0.00000  Uiso   1.00
C3     C     0.02313   0.31933   0.25119   0.00000  Uiso   1.00
C4     C     0.03783   0.16994   0.35430   0.00000  Uiso   1.00
C5     C     0.31163   0.01420   0.25343   0.00000  Uiso   1.00
C6     C     0.31898   0.06869   0.25199   0.00000  Uiso   1.00
C7     C     0.29866   0.17123   0.14701   0.00000  Uiso   1.00
C8     C     0.30385   0.16481   0.00328   0.00000  Uiso   1.00
C9     C     0.28538   0.18648   0.09032   0.00000  Uiso   1.00
C10    C     0.04133   0.22985   0.43189   0.00000  Uiso   1.00
C11    C     0.07652   0.26404   0.47232   0.00000  Uiso   1.00
C12    C     0.15523   0.20712   0.48106   0.00000  Uiso   1.00
C13    C     0.13421   0.25399   0.49458   0.00000  Uiso   1.00
C14    C     0.07038   0.23400   0.12282   0.00000  Uiso   1.00
C15    C     0.11616   0.27605   0.11780   0.00000  Uiso   1.00
C16    C     0.15988   0.29118   0.17271   0.00000  Uiso   1.00
C17    C     0.12343   0.17570   0.43549   0.00000  Uiso   1.00
C18    C     0.21061   0.19402   0.00827   0.00000  Uiso   1.00
C19    C     0.24357   0.16562   0.47979   0.00000  Uiso   1.00
C20    C     0.21421   0.13641   0.43192   0.00000  Uiso   1.00
C21    C     0.15325   0.13698   0.41382   0.00000  Uiso   1.00
C22    C     0.22930   0.19850   0.06518   0.00000  Uiso   1.00
C23    C     0.32675   0.18445   0.05781   0.00000  Uiso   1.00
H24    H     0.26916   0.33070   0.25551   0.00000  Uiso   1.00
H25    H     0.06599   0.00287   0.25069   0.00000  Uiso   1.00
H26    H     0.09265   0.21247   0.15799   0.00000  Uiso   1.00
H27    H     0.03367   0.25423   0.13234   0.00000  Uiso   1.00
H28    H     0.14180   0.26043   0.09233   0.00000  Uiso   1.00
H29    H     0.09527   0.31041   0.09887   0.00000  Uiso   1.00
H30    H     0.13685   0.30037   0.20471   0.00000  Uiso   1.00
H31    H     0.18916   0.32480   0.16800   0.00000  Uiso   1.00
H32    H     0.18741   0.25854   0.18607   0.00000  Uiso   1.00
H33    H     0.07948   0.03446   0.16885   0.00000  Uiso   1.00
H34    H     0.17656   0.21256   0.28461   0.00000  Uiso   1.00
H35    H     0.23726   0.11039   0.41145   0.00000  Uiso   1.00
H36    H     0.33225   0.14912   0.48013   0.00000  Uiso   1.00
H37    H     0.19849   0.20344   0.08943   0.00000  Uiso   1.00
H38    H     0.33094   0.24023   0.41270   0.00000  Uiso   1.00
H39    H     0.16342   0.28366   0.02099   0.00000  Uiso   1.00
H40    H     0.05991   0.29949   0.48456   0.00000  Uiso   1.00
H41    H     0.13083   0.10872   0.38141   0.00000  Uiso   1.00
N42    N     0.14493   0.15223   0.23542   0.00000  Uiso   1.00
N43    N     0.18840   0.18110   0.26457   0.00000  Uiso   1.00
O44    O     0.29769   0.24629   0.25357   0.00000  Uiso   1.00
O45    O     0.19152   0.09260   0.16900   0.00000  Uiso   1.00
O46    O     0.16850   0.05544   0.25024   0.00000  Uiso   1.00
O47    O     0.08438   0.07220   0.16511   0.00000  Uiso   1.00
O48    O     0.05742   0.23704   0.24423   0.00000  Uiso   1.00
O49    O     0.31490   0.17358   0.33380   0.00000  Uiso   1.00
O50    O     0.07463   0.16433   0.32446   0.00000  Uiso   1.00
O51    O     0.27592   0.09629   0.25576   0.00000  Uiso   1.00
O52    O     0.03565   0.08704   0.24642   0.00000  Uiso   1.00
O53    O     0.25870   0.16901   0.17554   0.00000  Uiso   1.00
O54    O     0.01843   0.15976   0.16620   0.00000  Uiso   1.00
O55    O     0.05385   0.19760   0.07626   0.00000  Uiso   1.00
S56    S     0.15064   0.09231   0.20555   0.00000  Uiso   1.00
Zn57   Zn    0.27119   0.17284   0.25623   0.00000  Uiso   1.00
Zn58   Zn    0.06214   0.16049   0.24376   0.00000  Uiso   1.00
C59    C     0.34823   0.26472   0.24959   0.00000  Uiso   1.00
C60    C     0.39842   0.18736   0.41083   0.00000  Uiso   1.00
C61    C     0.35646   0.31933   0.25119   0.00000  Uiso   1.00
C62    C     0.37117   0.16994   0.35430   0.00000  Uiso   1.00
C63    C     0.64496   0.01420   0.25343   0.00000  Uiso   1.00
C64    C     0.65232   0.06869   0.25199   0.00000  Uiso   1.00
C65    C     0.63200   0.17123   0.14701   0.00000  Uiso   1.00
C66    C     0.63719   0.16481   0.00328   0.00000  Uiso   1.00
C67    C     0.61872   0.18648   0.09032   0.00000  Uiso   1.00
C68    C     0.37466   0.22985   0.43189   0.00000  Uiso   1.00
C69    C     0.40986   0.26404   0.47232   0.00000  Uiso   1.00
C70    C     0.48857   0.20712   0.48106   0.00000  Uiso   1.00
C71    C     0.46754   0.25399   0.49458   0.00000  Uiso   1.00
C72    C     0.40372   0.23400   0.12282   0.00000  Uiso   1.00
C73    C     0.44949   0.27605   0.11780   0.00000  Uiso   1.00
C74    C     0.49321   0.29118   0.17271   0.00000  Uiso   1.00
C75    C     0.45676   0.17570   0.43549   0.00000  Uiso   1.00
C76    C     0.54395   0.19402   0.00827   0.00000  Uiso   1.00
C77    C     0.57691   0.16562   0.47979   0.00000  Uiso   1.00
C78    C     0.54755   0.13641   0.43192   0.00000  Uiso   1.00
C79    C     0.48658   0.13698   0.41382   0.00000  Uiso   1.00
C80    C     0.56263   0.19850   0.06518   0.00000  Uiso   1.00
C81    C     0.66008   0.18445   0.05781   0.00000  Uiso   1.00
H82    H     0.60249   0.33070   0.25551   0.00000  Uiso   1.00
H83    H     0.39933   0.00287   0.25069   0.00000  Uiso   1.00
H84    H     0.42598   0.21247   0.15799   0.00000  Uiso   1.00
H85    H     0.36700   0.25423   0.13234   0.00000  Uiso   1.00
H86    H     0.47514   0.26043   0.09233   0.00000  Uiso   1.00
H87    H     0.42860   0.31041   0.09887   0.00000  Uiso   1.00
H88    H     0.47018   0.30037   0.20471   0.00000  Uiso   1.00
H89    H     0.52249   0.32480   0.16800   0.00000  Uiso   1.00
H90    H     0.52074   0.25854   0.18607   0.00000  Uiso   1.00
H91    H     0.41281   0.03446   0.16885   0.00000  Uiso   1.00
H92    H     0.50989   0.21256   0.28461   0.00000  Uiso   1.00
H93    H     0.57059   0.11039   0.41145   0.00000  Uiso   1.00
H94    H     0.66559   0.14912   0.48013   0.00000  Uiso   1.00
H95    H     0.53182   0.20344   0.08943   0.00000  Uiso   1.00
H96    H     0.66428   0.24023   0.41270   0.00000  Uiso   1.00
H97    H     0.49676   0.28366   0.02099   0.00000  Uiso   1.00
H98    H     0.39324   0.29949   0.48456   0.00000  Uiso   1.00
H99    H     0.46416   0.10872   0.38141   0.00000  Uiso   1.00
N100   N     0.47827   0.15223   0.23542   0.00000  Uiso   1.00
N101   N     0.52173   0.18110   0.26457   0.00000  Uiso   1.00
O102   O     0.63102   0.24629   0.25357   0.00000  Uiso   1.00
O103   O     0.52486   0.09260   0.16900   0.00000  Uiso   1.00
O104   O     0.50184   0.05544   0.25024   0.00000  Uiso   1.00
O105   O     0.41771   0.07220   0.16511   0.00000  Uiso   1.00
O106   O     0.39075   0.23704   0.24423   0.00000  Uiso   1.00
O107   O     0.64823   0.17358   0.33380   0.00000  Uiso   1.00
O108   O     0.40796   0.16433   0.32446   0.00000  Uiso   1.00
O109   O     0.60925   0.09629   0.25576   0.00000  Uiso   1.00
O110   O     0.36898   0.08704   0.24642   0.00000  Uiso   1.00
O111   O     0.59204   0.16901   0.17554   0.00000  Uiso   1.00
O112   O     0.35177   0.15976   0.16620   0.00000  Uiso   1.00
O113   O     0.38718   0.19760   0.07626   0.00000  Uiso   1.00
S114   S     0.48398   0.09231   0.20555   0.00000  Uiso   1.00
Zn115  Zn    0.60453   0.17284   0.25623   0.00000  Uiso   1.00
Zn116  Zn    0.39547   0.16049   0.24376   0.00000  Uiso   1.00
C117   C     0.68156   0.26472   0.24959   0.00000  Uiso   1.00
C118   C     0.73175   0.18736   0.41083   0.00000  Uiso   1.00
C119   C     0.68980   0.31933   0.25119   0.00000  Uiso   1.00
C120   C     0.70450   0.16994   0.35430   0.00000  Uiso   1.00
C121   C     0.97830   0.01420   0.25343   0.00000  Uiso   1.00
C122   C     0.98565   0.06869   0.25199   0.00000  Uiso   1.00
C123   C     0.96533   0.17123   0.14701   0.00000  Uiso   1.00
C124   C     0.97052   0.16481   0.00328   0.00000  Uiso   1.00
C125   C     0.95205   0.18648   0.09032   0.00000  Uiso   1.00
C126   C     0.70799   0.22985   0.43189   0.00000  Uiso   1.00
C127   C     0.74319   0.26404   0.47232   0.00000  Uiso   1.00
C128   C     0.82190   0.20712   0.48106   0.00000  Uiso   1.00
C129   C     0.80087   0.25399   0.49458   0.00000  Uiso   1.00
C130   C     0.73705   0.23400   0.12282   0.00000  Uiso   1.00
C131   C     0.78282   0.27605   0.11780   0.00000  Uiso   1.00
C132   C     0.82654   0.29118   0.17271   0.00000  Uiso   1.00
C133   C     0.79009   0.17570   0.43549   0.00000  Uiso   1.00
C134   C     0.87728   0.19402   0.00827   0.00000  Uiso   1.00
C135   C     0.91024   0.16562   0.47979   0.00000  Uiso   1.00
C136   C     0.88088   0.13641   0.43192   0.00000  Uiso   1.00
C137   C     0.81991   0.13698   0.41382   0.00000  Uiso   1.00
C138   C     0.89597   0.19850   0.06518   0.00000  Uiso   1.00
C139   C     0.99342   0.18445   0.05781   0.00000  Uiso   1.00
H140   H     0.93582   0.33070   0.25551   0.00000  Uiso   1.00
H141   H     0.73266   0.00287   0.25069   0.00000  Uiso   1.00
H142   H     0.75932   0.21247   0.15799   0.00000  Uiso   1.00
H143   H     0.70033   0.25423   0.13234   0.00000  Uiso   1.00
H144   H     0.80847   0.26043   0.09233   0.00000  Uiso   1.00
H145   H     0.76194   0.31041   0.09887   0.00000  Uiso   1.00
H146   H     0.80352   0.30037   0.20471   0.00000  Uiso   1.00
H147   H     0.85582   0.32480   0.16800   0.00000  Uiso   1.00
H148   H     0.85408   0.25854   0.18607   0.00000  Uiso   1.00
H149   H     0.74614   0.03446   0.16885   0.00000  Uiso   1.00
H150   H     0.84323   0.21256   0.28461   0.00000  Uiso   1.00
H151   H     0.90393   0.11039   0.41145   0.00000  Uiso   1.00
H152   H     0.99892   0.14912   0.48013   0.00000  Uiso   1.00
H153   H     0.86516   0.20344   0.08943   0.00000  Uiso   1.00
H154   H     0.99761   0.24023   0.41270   0.00000  Uiso   1.00
H155   H     0.83009   0.28366   0.02099   0.00000  Uiso   1.00
H156   H     0.72657   0.29949   0.48456   0.00000  Uiso   1.00
H157   H     0.79749   0.10872   0.38141   0.00000  Uiso   1.00
N158   N     0.81160   0.15223   0.23542   0.00000  Uiso   1.00
N159   N     0.85507   0.18110   0.26457   0.00000  Uiso   1.00
O160   O     0.96435   0.24629   0.25357   0.00000  Uiso   1.00
O161   O     0.85819   0.09260   0.16900   0.00000  Uiso   1.00
O162   O     0.83517   0.05544   0.25024   0.00000  Uiso   1.00
O163   O     0.75105   0.07220   0.16511   0.00000  Uiso   1.00
O164   O     0.72408   0.23704   0.24423   0.00000  Uiso   1.00
O165   O     0.98157   0.17358   0.33380   0.00000  Uiso   1.00
O166   O     0.74130   0.16433   0.32446   0.00000  Uiso   1.00
O167   O     0.94258   0.09629   0.25576   0.00000  Uiso   1.00
O168   O     0.70231   0.08704   0.24642   0.00000  Uiso   1.00
O169   O     0.92537   0.16901   0.17554   0.00000  Uiso   1.00
O170   O     0.68510   0.15976   0.16620   0.00000  Uiso   1.00
O171   O     0.72052   0.19760   0.07626   0.00000  Uiso   1.00
S172   S     0.81731   0.09231   0.20555   0.00000  Uiso   1.00
Zn173  Zn    0.93786   0.17284   0.25623   0.00000  Uiso   1.00
Zn174  Zn    0.72881   0.16049   0.24376   0.00000  Uiso   1.00
C175   C     0.01489   0.59805   0.24959   0.00000  Uiso   1.00
C176   C     0.06509   0.52069   0.41083   0.00000  Uiso   1.00
C177   C     0.02313   0.65266   0.25119   0.00000  Uiso   1.00
C178   C     0.03783   0.50327   0.35430   0.00000  Uiso   1.00
C179   C     0.31163   0.34753   0.25343   0.00000  Uiso   1.00
C180   C     0.31898   0.40202   0.25199   0.00000  Uiso   1.00
C181   C     0.29866   0.50457   0.14701   0.00000  Uiso   1.00
C182   C     0.30385   0.49815   0.00328   0.00000  Uiso   1.00
C183   C     0.28538   0.51981   0.09032   0.00000  Uiso   1.00
C184   C     0.04133   0.56319   0.43189   0.00000  Uiso   1.00
C185   C     0.07652   0.59737   0.47232   0.00000  Uiso   1.00
C186   C     0.15523   0.54046   0.48106   0.00000  Uiso   1.00
C187   C     0.13421   0.58733   0.49458   0.00000  Uiso   1.00
C188   C     0.07038   0.56733   0.12282   0.00000  Uiso   1.00
C189   C     0.11616   0.60939   0.11780   0.00000  Uiso   1.00
C190   C     0.15988   0.62452   0.17271   0.00000  Uiso   1.00
C191   C     0.12343   0.50903   0.43549   0.00000  Uiso   1.00
C192   C     0.21061   0.52735   0.00827   0.00000  Uiso   1.00
C193   C     0.24357   0.49896   0.47979   0.00000  Uiso   1.00
C194   C     0.21421   0.46974   0.43192   0.00000  Uiso   1.00
C195   C     0.15325   0.47031   0.41382   0.00000  Uiso   1.00
C196   C     0.22930   0.53183   0.06518   0.00000  Uiso   1.00
C197   C     0.32675   0.51779   0.05781   0.00000  Uiso   1.00
H198   H     0.26916   0.66403   0.25551   0.00000  Uiso   1.00
H199   H     0.06599   0.33620   0.25069   0.00000  Uiso   1.00
H200   H     0.09265   0.54580   0.15799   0.00000  Uiso   1.00
H201   H     0.03367   0.58756   0.13234   0.00000  Uiso   1.00
H202   H     0.14180   0.59376   0.09233   0.00000  Uiso   1.00
H203   H     0.09527   0.64374   0.09887   0.00000  Uiso   1.00
H204   H     0.13685   0.63371   0.20471   0.00000  Uiso   1.00
H205   H     0.18916   0.65813   0.16800   0.00000  Uiso   1.00
H206   H     0.18741   0.59187   0.18607   0.00000  Uiso   1.00
H207   H     0.07948   0.36780   0.16885   0.00000  Uiso   1.00
H208   H     0.17656   0.54589   0.28461   0.00000  Uiso   1.00
H209   H     0.23726   0.44373   0.41145   0.00000  Uiso   1.00
H210   H     0.33225   0.48246   0.48013   0.00000  Uiso   1.00
H211   H     0.19849   0.53677   0.08943   0.00000  Uiso   1.00
H212   H     0.33094   0.57356   0.41270   0.00000  Uiso   1.00
H213   H     0.16342   0.61699   0.02099   0.00000  Uiso   1.00
H214   H     0.05991   0.63283   0.48456   0.00000  Uiso   1.00
H215   H     0.13083   0.44205   0.38141   0.00000  Uiso   1.00
N216   N     0.14493   0.48556   0.23542   0.00000  Uiso   1.00
N217   N     0.18840   0.51444   0.26457   0.00000  Uiso   1.00
O218   O     0.29769   0.57963   0.25357   0.00000  Uiso   1.00
O219   O     0.19152   0.42594   0.16900   0.00000  Uiso   1.00
O220   O     0.16850   0.38878   0.25024   0.00000  Uiso   1.00
O221   O     0.08438   0.40553   0.16511   0.00000  Uiso   1.00
O222   O     0.05742   0.57038   0.24423   0.00000  Uiso   1.00
O223   O     0.31490   0.50691   0.33380   0.00000  Uiso   1.00
O224   O     0.07463   0.49766   0.32446   0.00000  Uiso   1.00
O225   O     0.27592   0.42962   0.25576   0.00000  Uiso   1.00
O226   O     0.03565   0.42037   0.24642   0.00000  Uiso   1.00
O227   O     0.25870   0.50234   0.17554   0.00000  Uiso   1.00
O228   O     0.01843   0.49309   0.16620   0.00000  Uiso   1.00
O229   O     0.05385   0.53094   0.07626   0.00000  Uiso   1.00
S230   S     0.15064   0.42564   0.20555   0.00000  Uiso   1.00
Zn231  Zn    0.27119   0.50618   0.25623   0.00000  Uiso   1.00
Zn232  Zn    0.06214   0.49382   0.24376   0.00000  Uiso   1.00
C233   C     0.34823   0.59805   0.24959   0.00000  Uiso   1.00
C234   C     0.39842   0.52069   0.41083   0.00000  Uiso   1.00
C235   C     0.35646   0.65266   0.25119   0.00000  Uiso   1.00
C236   C     0.37117   0.50327   0.35430   0.00000  Uiso   1.00
C237   C     0.64496   0.34753   0.25343   0.00000  Uiso   1.00
C238   C     0.65232   0.40202   0.25199   0.00000  Uiso   1.00
C239   C     0.63200   0.50457   0.14701   0.00000  Uiso   1.00
C240   C     0.63719   0.49815   0.00328   0.00000  Uiso   1.00
C241   C     0.61872   0.51981   0.09032   0.00000  Uiso   1.00
C242   C     0.37466   0.56319   0.43189   0.00000  Uiso   1.00
C243   C     0.40986   0.59737   0.47232   0.00000  Uiso   1.00
C244   C     0.48857   0.54046   0.48106   0.00000  Uiso   1.00
C245   C     0.46754   0.58733   0.49458   0.00000  Uiso   1.00
C246   C     0.40372   0.56733   0.12282   0.00000  Uiso   1.00
C247   C     0.44949   0.60939   0.11780   0.00000  Uiso   1.00
C248   C     0.49321   0.62452   0.17271   0.00000  Uiso   1.00
C249   C     0.45676   0.50903   0.43549   0.00000  Uiso   1.00
C250   C     0.54395   0.52735   0.00827   0.00000  Uiso   1.00
C251   C     0.57691   0.49896   0.47979   0.00000  Uiso   1.00
C252   C     0.54755   0.46974   0.43192   0.00000  Uiso   1.00
C253   C     0.48658   0.47031   0.41382   0.00000  Uiso   1.00
C254   C     0.56263   0.53183   0.06518   0.00000  Uiso   1.00
C255   C     0.66008   0.51779   0.05781   0.00000  Uiso   1.00
H256   H     0.60249   0.66403   0.25551   0.00000  Uiso   1.00
H257   H     0.39933   0.33620   0.25069   0.00000  Uiso   1.00
H258   H     0.42598   0.54580   0.15799   0.00000  Uiso   1.00
H259   H     0.36700   0.58756   0.13234   0.00000  Uiso   1.00
H260   H     0.47514   0.59376   0.09233   0.00000  Uiso   1.00
H261   H     0.42860   0.64374   0.09887   0.00000  Uiso   1.00
H262   H     0.47018   0.63371   0.20471   0.00000  Uiso   1.00
H263   H     0.52249   0.65813   0.16800   0.00000  Uiso   1.00
H264   H     0.52074   0.59187   0.18607   0.00000  Uiso   1.00
H265   H     0.41281   0.36780   0.16885   0.00000  Uiso   1.00
H266   H     0.50989   0.54589   0.28461   0.00000  Uiso   1.00
H267   H     0.57059   0.44373   0.41145   0.00000  Uiso   1.00
H268   H     0.66559   0.48246   0.48013   0.00000  Uiso   1.00
H269   H     0.53182   0.53677   0.08943   0.00000  Uiso   1.00
H270   H     0.66428   0.57356   0.41270   0.00000  Uiso   1.00
H271   H     0.49676   0.61699   0.02099   0.00000  Uiso   1.00
H272   H     0.39324   0.63283   0.48456   0.00000  Uiso   1.00
H273   H     0.46416   0.44205   0.38141   0.00000  Uiso   1.00
N274   N     0.47827   0.48556   0.23542   0.00000  Uiso   1.00
N275   N     0.52173   0.51444   0.26457   0.00000  Uiso   1.00
O276   O     0.63102   0.57963   0.25357   0.00000  Uiso   1.00
O277   O     0.52486   0.42594   0.16900   0.00000  Uiso   1.00
O278   O     0.50184   0.38878   0.25024   0.00000  Uiso   1.00
O279   O     0.41771   0.40553   0.16511   0.00000  Uiso   1.00
O280   O     0.39075   0.57038   0.24423   0.00000  Uiso   1.00
O281   O     0.64823   0.50691   0.33380   0.00000  Uiso   1.00
O282   O     0.40796   0.49766   0.32446   0.00000  Uiso   1.00
O283   O     0.60925   0.42962   0.25576   0.00000  Uiso   1.00
O284   O     0.36898   0.42037   0.24642   0.00000  Uiso   1.00
O285   O     0.59204   0.50234   0.17554   0.00000  Uiso   1.00
O286   O     0.35177   0.49309   0.16620   0.00000  Uiso   1.00
O287   O     0.38718   0.53094   0.07626   0.00000  Uiso   1.00
S288   S     0.48398   0.42564   0.20555   0.00000  Uiso   1.00
Zn289  Zn    0.60453   0.50618   0.25623   0.00000  Uiso   1.00
Zn290  Zn    0.39547   0.49382   0.24376   0.00000  Uiso   1.00
C291   C     0.68156   0.59805   0.24959   0.00000  Uiso   1.00
C292   C     0.73175   0.52069   0.41083   0.00000  Uiso   1.00
C293   C     0.68980   0.65266   0.25119   0.00000  Uiso   1.00
C294   C     0.70450   0.50327   0.35430   0.00000  Uiso   1.00
C295   C     0.97830   0.34753   0.25343   0.00000  Uiso   1.00
C296   C     0.98565   0.40202   0.25199   0.00000  Uiso   1.00
C297   C     0.96533   0.50457   0.14701   0.00000  Uiso   1.00
C298   C     0.97052   0.49815   0.00328   0.00000  Uiso   1.00
C299   C     0.95205   0.51981   0.09032   0.00000  Uiso   1.00
C300   C     0.70799   0.56319   0.43189   0.00000  Uiso   1.00
C301   C     0.74319   0.59737   0.47232   0.00000  Uiso   1.00
C302   C     0.82190   0.54046   0.48106   0.00000  Uiso   1.00
C303   C     0.80087   0.58733   0.49458   0.00000  Uiso   1.00
C304   C     0.73705   0.56733   0.12282   0.00000  Uiso   1.00
C305   C     0.78282   0.60939   0.11780   0.00000  Uiso   1.00
C306   C     0.82654   0.62452   0.17271   0.00000  Uiso   1.00
C307   C     0.79009   0.50903   0.43549   0.00000  Uiso   1.00
C308   C     0.87728   0.52735   0.00827   0.00000  Uiso   1.00
C309   C     0.91024   0.49896   0.47979   0.00000  Uiso   1.00
C310   C     0.88088   0.46974   0.43192   0.00000  Uiso   1.00
C311   C     0.81991   0.47031   0.41382   0.00000  Uiso   1.00
C312   C     0.89597   0.53183   0.06518   0.00000  Uiso   1.00
C313   C     0.99342   0.51779   0.05781   0.00000  Uiso   1.00
H314   H     0.93582   0.66403   0.25551   0.00000  Uiso   1.00
H315   H     0.73266   0.33620   0.25069   0.00000  Uiso   1.00
H316   H     0.75932   0.54580   0.15799   0.00000  Uiso   1.00
H317   H     0.70033   0.58756   0.13234   0.00000  Uiso   1.00
H318   H     0.80847   0.59376   0.09233   0.00000  Uiso   1.00
H319   H     0.76194   0.64374   0.09887   0.00000  Uiso   1.00
H320   H     0.80352   0.63371   0.20471   0.00000  Uiso   1.00
H321   H     0.85582   0.65813   0.16800   0.00000  Uiso   1.00
H322   H     0.85408   0.59187   0.18607   0.00000  Uiso   1.00
H323   H     0.74614   0.36780   0.16885   0.00000  Uiso   1.00
H324   H     0.84323   0.54589   0.28461   0.00000  Uiso   1.00
H325   H     0.90393   0.44373   0.41145   0.00000  Uiso   1.00
H326   H     0.99892   0.48246   0.48013   0.00000  Uiso   1.00
H327   H     0.86516   0.53677   0.08943   0.00000  Uiso   1.00
H328   H     0.99761   0.57356   0.41270   0.00000  Uiso   1.00
H329   H     0.83009   0.61699   0.02099   0.00000  Uiso   1.00
H330   H     0.72657   0.63283   0.48456   0.00000  Uiso   1.00
H331   H     0.79749   0.44205   0.38141   0.00000  Uiso   1.00
N332   N     0.81160   0.48556   0.23542   0.00000  Uiso   1.00
N333   N     0.85507   0.51444   0.26457   0.00000  Uiso   1.00
O334   O     0.96435   0.57963   0.25357   0.00000  Uiso   1.00
O335   O     0.85819   0.42594   0.16900   0.00000  Uiso   1.00
O336   O     0.83517   0.38878   0.25024   0.00000  Uiso   1.00
O337   O     0.75105   0.40553   0.16511   0.00000  Uiso   1.00
O338   O     0.72408   0.57038   0.24423   0.00000  Uiso   1.00
O339   O     0.98157   0.50691   0.33380   0.00000  Uiso   1.00
O340   O     0.74130   0.49766   0.32446   0.00000  Uiso   1.00
O341   O     0.94258   0.42962   0.25576   0.00000  Uiso   1.00
O342   O     0.70231   0.42037   0.24642   0.00000  Uiso   1.00
O343   O     0.92537   0.50234   0.17554   0.00000  Uiso   1.00
O344   O     0.68510   0.49309   0.16620   0.00000  Uiso   1.00
O345   O     0.72052   0.53094   0.07626   0.00000  Uiso   1.00
S346   S     0.81731   0.42564   0.20555   0.00000  Uiso   1.00
Zn347  Zn    0.93786   0.50618   0.25623   0.00000  Uiso   1.00
Zn348  Zn    0.72881   0.49382   0.24376   0.00000  Uiso   1.00
C349   C     0.01489   0.93138   0.24959   0.00000  Uiso   1.00
C350   C     0.06509   0.85402   0.41083   0.00000  Uiso   1.00
C351   C     0.02313   0.98600   0.25119   0.00000  Uiso   1.00
C352   C     0.03783   0.83660   0.35430   0.00000  Uiso   1.00
C353   C     0.31163   0.68087   0.25343   0.00000  Uiso   1.00
C354   C     0.31898   0.73536   0.25199   0.00000  Uiso   1.00
C355   C     0.29866   0.83790   0.14701   0.00000  Uiso   1.00
C356   C     0.30385   0.83148   0.00328   0.00000  Uiso   1.00
C357   C     0.28538   0.85315   0.09032   0.00000  Uiso   1.00
C358   C     0.04133   0.89652   0.43189   0.00000  Uiso   1.00
C359   C     0.07652   0.93071   0.47232   0.00000  Uiso   1.00
C360   C     0.15523   0.87379   0.48106   0.00000  Uiso   1.00
C361   C     0.13421   0.92066   0.49458   0.00000  Uiso   1.00
C362   C     0.07038   0.90067   0.12282   0.00000  Uiso   1.00
C363   C     0.11616   0.94272   0.11780   0.00000  Uiso   1.00
C364   C     0.15988   0.95785   0.17271   0.00000  Uiso   1.00
C365   C     0.12343   0.84237   0.43549   0.00000  Uiso   1.00
C366   C     0.21061   0.86068   0.00827   0.00000  Uiso   1.00
C367   C     0.24357   0.83229   0.47979   0.00000  Uiso   1.00
C368   C     0.21421   0.80308   0.43192   0.00000  Uiso   1.00
C369   C     0.15325   0.80365   0.41382   0.00000  Uiso   1.00
C370   C     0.22930   0.86517   0.06518   0.00000  Uiso   1.00
C371   C     0.32675   0.85112   0.05781   0.00000  Uiso   1.00
H372   H     0.26916   0.99736   0.25551   0.00000  Uiso   1.00
H373   H     0.06599   0.66953   0.25069   0.00000  Uiso   1.00
H374   H     0.09265   0.87914   0.15799   0.00000  Uiso   1.00
H375   H     0.03367   0.92090   0.13234   0.00000  Uiso   1.00
H376   H     0.14180   0.92710   0.09233   0.00000  Uiso   1.00
H377   H     0.09527   0.97707   0.09887   0.00000  Uiso   1.00
H378   H     0.13685   0.96704   0.20471   0.00000  Uiso   1.00
H379   H     0.18916   0.99147   0.16800   0.00000  Uiso   1.00
H380   H     0.18741   0.92521   0.18607   0.00000  Uiso   1.00
H381   H     0.07948   0.70113   0.16885   0.00000  Uiso   1.00
H382   H     0.17656   0.87922   0.28461   0.00000  Uiso   1.00
H383   H     0.23726   0.77706   0.41145   0.00000  Uiso   1.00
H384   H     0.33225   0.81579   0.48013   0.00000  Uiso   1.00
H385   H     0.19849   0.87011   0.08943   0.00000  Uiso   1.00
H386   H     0.33094   0.90689   0.41270   0.00000  Uiso   1.00
H387   H     0.16342   0.95033   0.02099   0.00000  Uiso   1.00
H388   H     0.05991   0.96616   0.48456   0.00000  Uiso   1.00
H389   H     0.13083   0.77538   0.38141   0.00000  Uiso   1.00
N390   N     0.14493   0.81890   0.23542   0.00000  Uiso   1.00
N391   N     0.18840   0.84777   0.26457   0.00000  Uiso   1.00
O392   O     0.29769   0.91296   0.25357   0.00000  Uiso   1.00
O393   O     0.19152   0.75927   0.16900   0.00000  Uiso   1.00
O394   O     0.16850   0.72211   0.25024   0.00000  Uiso   1.00
O395   O     0.08438   0.73886   0.16511   0.00000  Uiso   1.00
O396   O     0.05742   0.90371   0.24423   0.00000  Uiso   1.00
O397   O     0.31490   0.84024   0.33380   0.00000  Uiso   1.00
O398   O     0.07463   0.83099   0.32446   0.00000  Uiso   1.00
O399   O     0.27592   0.76296   0.25576   0.00000  Uiso   1.00
O400   O     0.03565   0.75371   0.24642   0.00000  Uiso   1.00
O401   O     0.25870   0.83567   0.17554   0.00000  Uiso   1.00
O402   O     0.01843   0.82642   0.16620   0.00000  Uiso   1.00
O403   O     0.05385   0.86427   0.07626   0.00000  Uiso   1.00
S404   S     0.15064   0.75897   0.20555   0.00000  Uiso   1.00
Zn405  Zn    0.27119   0.83951   0.25623   0.00000  Uiso   1.00
Zn406  Zn    0.06214   0.82716   0.24376   0.00000  Uiso   1.00
C407   C     0.34823   0.93138   0.24959   0.00000  Uiso   1.00
C408   C     0.39842   0.85402   0.41083   0.00000  Uiso   1.00
C409   C     0.35646   0.98600   0.25119   0.00000  Uiso   1.00
C410   C     0.37117   0.83660   0.35430   0.00000  Uiso   1.00
C411   C     0.64496   0.68087   0.25343   0.00000  Uiso   1.00
C412   C     0.65232   0.73536   0.25199   0.00000  Uiso   1.00
C413   C     0.63200   0.83790   0.14701   0.00000  Uiso   1.00
C414   C     0.63719   0.83148   0.00328   0.00000  Uiso   1.00
C415   C     0.61872   0.85315   0.09032   0.00000  Uiso   1.00
C416   C     0.37466   0.89652   0.43189   0.00000  Uiso   1.00
C417   C     0.40986   0.93071   0.47232   0.00000  Uiso   1.00
C418   C     0.48857   0.87379   0.48106   0.00000  Uiso   1.00
C419   C     0.46754   0.92066   0.49458   0.00000  Uiso   1.00
C420   C     0.40372   0.90067   0.12282   0.00000  Uiso   1.00
C421   C     0.44949   0.94272   0.11780   0.00000  Uiso   1.00
C422   C     0.49321   0.95785   0.17271   0.00000  Uiso   1.00
C423   C     0.45676   0.84237   0.43549   0.00000  Uiso   1.00
C424   C     0.54395   0.86068   0.00827   0.00000  Uiso   1.00
C425   C     0.57691   0.83229   0.47979   0.00000  Uiso   1.00
C426   C     0.54755   0.80308   0.43192   0.00000  Uiso   1.00
C427   C     0.48658   0.80365   0.41382   0.00000  Uiso   1.00
C428   C     0.56263   0.86517   0.06518   0.00000  Uiso   1.00
C429   C     0.66008   0.85112   0.05781   0.00000  Uiso   1.00
H430   H     0.60249   0.99736   0.25551   0.00000  Uiso   1.00
H431   H     0.39933   0.66953   0.25069   0.00000  Uiso   1.00
H432   H     0.42598   0.87914   0.15799   0.00000  Uiso   1.00
H433   H     0.36700   0.92090   0.13234   0.00000  Uiso   1.00
H434   H     0.47514   0.92710   0.09233   0.00000  Uiso   1.00
H435   H     0.42860   0.97707   0.09887   0.00000  Uiso   1.00
H436   H     0.47018   0.96704   0.20471   0.00000  Uiso   1.00
H437   H     0.52249   0.99147   0.16800   0.00000  Uiso   1.00
H438   H     0.52074   0.92521   0.18607   0.00000  Uiso   1.00
H439   H     0.41281   0.70113   0.16885   0.00000  Uiso   1.00
H440   H     0.50989   0.87922   0.28461   0.00000  Uiso   1.00
H441   H     0.57059   0.77706   0.41145   0.00000  Uiso   1.00
H442   H     0.66559   0.81579   0.48013   0.00000  Uiso   1.00
H443   H     0.53182   0.87011   0.08943   0.00000  Uiso   1.00
H444   H     0.66428   0.90689   0.41270   0.00000  Uiso   1.00
H445   H     0.49676   0.95033   0.02099   0.00000  Uiso   1.00
H446   H     0.39324   0.96616   0.48456   0.00000  Uiso   1.00
H447   H     0.46416   0.77538   0.38141   0.00000  Uiso   1.00
N448   N     0.47827   0.81890   0.23542   0.00000  Uiso   1.00
N449   N     0.52173   0.84777   0.26457   0.00000  Uiso   1.00
O450   O     0.63102   0.91296   0.25357   0.00000  Uiso   1.00
O451   O     0.52486   0.75927   0.16900   0.00000  Uiso   1.00
O452   O     0.50184   0.72211   0.25024   0.00000  Uiso   1.00
O453   O     0.41771   0.73886   0.16511   0.00000  Uiso   1.00
O454   O     0.39075   0.90371   0.24423   0.00000  Uiso   1.00
O455   O     0.64823   0.84024   0.33380   0.00000  Uiso   1.00
O456   O     0.40796   0.83099   0.32446   0.00000  Uiso   1.00
O457   O     0.60925   0.76296   0.25576   0.00000  Uiso   1.00
O458   O     0.36898   0.75371   0.24642   0.00000  Uiso   1.00
O459   O     0.59204   0.83567   0.17554   0.00000  Uiso   1.00
O460   O     0.35177   0.82642   0.16620   0.00000  Uiso   1.00
O461   O     0.38718   0.86427   0.07626   0.00000  Uiso   1.00
S462   S     0.48398   0.75897   0.20555   0.00000  Uiso   1.00
Zn463  Zn    0.60453   0.83951   0.25623   0.00000  Uiso   1.00
Zn464  Zn    0.39547   0.82716   0.24376   0.00000  Uiso   1.00
C465   C     0.68156   0.93138   0.24959   0.00000  Uiso   1.00
C466   C     0.73175   0.85402   0.41083   0.00000  Uiso   1.00
C467   C     0.68980   0.98600   0.25119   0.00000  Uiso   1.00
C468   C     0.70450   0.83660   0.35430   0.00000  Uiso   1.00
C469   C     0.97830   0.68087   0.25343   0.00000  Uiso   1.00
C470   C     0.98565   0.73536   0.25199   0.00000  Uiso   1.00
C471   C     0.96533   0.83790   0.14701   0.00000  Uiso   1.00
C472   C     0.97052   0.83148   0.00328   0.00000  Uiso   1.00
C473   C     0.95205   0.85315   0.09032   0.00000  Uiso   1.00
C474   C     0.70799   0.89652   0.43189   0.00000  Uiso   1.00
C475   C     0.74319   0.93071   0.47232   0.00000  Uiso   1.00
C476   C     0.82190   0.87379   0.48106   0.00000  Uiso   1.00
C477   C     0.80087   0.92066   0.49458   0.00000  Uiso   1.00
C478   C     0.73705   0.90067   0.12282   0.00000  Uiso   1.00
C479   C     0.78282   0.94272   0.11780   0.00000  Uiso   1.00
C480   C     0.82654   0.95785   0.17271   0.00000  Uiso   1.00
C481   C     0.79009   0.84237   0.43549   0.00000  Uiso   1.00
C482   C     0.87728   0.86068   0.00827   0.00000  Uiso   1.00
C483   C     0.91024   0.83229   0.47979   0.00000  Uiso   1.00
C484   C     0.88088   0.80308   0.43192   0.00000  Uiso   1.00
C485   C     0.81991   0.80365   0.41382   0.00000  Uiso   1.00
C486   C     0.89597   0.86517   0.06518   0.00000  Uiso   1.00
C487   C     0.99342   0.85112   0.05781   0.00000  Uiso   1.00
H488   H     0.93582   0.99736   0.25551   0.00000  Uiso   1.00
H489   H     0.73266   0.66953   0.25069   0.00000  Uiso   1.00
H490   H     0.75932   0.87914   0.15799   0.00000  Uiso   1.00
H491   H     0.70033   0.92090   0.13234   0.00000  Uiso   1.00
H492   H     0.80847   0.92710   0.09233   0.00000  Uiso   1.00
H493   H     0.76194   0.97707   0.09887   0.00000  Uiso   1.00
H494   H     0.80352   0.96704   0.20471   0.00000  Uiso   1.00
H495   H     0.85582   0.99147   0.16800   0.00000  Uiso   1.00
H496   H     0.85408   0.92521   0.18607   0.00000  Uiso   1.00
H497   H     0.74614   0.70113   0.16885   0.00000  Uiso   1.00
H498   H     0.84323   0.87922   0.28461   0.00000  Uiso   1.00
H499   H     0.90393   0.77706   0.41145   0.00000  Uiso   1.00
H500   H     0.99892   0.81579   0.48013   0.00000  Uiso   1.00
H501   H     0.86516   0.87011   0.08943   0.00000  Uiso   1.00
H502   H     0.99761   0.90689   0.41270   0.00000  Uiso   1.00
H503   H     0.83009   0.95033   0.02099   0.00000  Uiso   1.00
H504   H     0.72657   0.96616   0.48456   0.00000  Uiso   1.00
H505   H     0.79749   0.77538   0.38141   0.00000  Uiso   1.00
N506   N     0.81160   0.81890   0.23542   0.00000  Uiso   1.00
N507   N     0.85507   0.84777   0.26457   0.00000  Uiso   1.00
O508   O     0.96435   0.91296   0.25357   0.00000  Uiso   1.00
O509   O     0.85819   0.75927   0.16900   0.00000  Uiso   1.00
O510   O     0.83517   0.72211   0.25024   0.00000  Uiso   1.00
O511   O     0.75105   0.73886   0.16511   0.00000  Uiso   1.00
O512   O     0.72408   0.90371   0.24423   0.00000  Uiso   1.00
O513   O     0.98157   0.84024   0.33380   0.00000  Uiso   1.00
O514   O     0.74130   0.83099   0.32446   0.00000  Uiso   1.00
O515   O     0.94258   0.76296   0.25576   0.00000  Uiso   1.00
O516   O     0.70231   0.75371   0.24642   0.00000  Uiso   1.00
O517   O     0.92537   0.83567   0.17554   0.00000  Uiso   1.00
O518   O     0.68510   0.82642   0.16620   0.00000  Uiso   1.00
O519   O     0.72052   0.86427   0.07626   0.00000  Uiso   1.00
S520   S     0.81731   0.75897   0.20555   0.00000  Uiso   1.00
Zn521  Zn    0.93786   0.83951   0.25623   0.00000  Uiso   1.00
Zn522  Zn    0.72881   0.82716   0.24376   0.00000  Uiso   1.00
C523   C     0.01489   0.26472   0.74959   0.00000  Uiso   1.00
C524   C     0.06509   0.18736   0.91083   0.00000  Uiso   1.00
C525   C     0.02313   0.31933   0.75119   0.00000  Uiso   1.00
C526   C     0.03783   0.16994   0.85430   0.00000  Uiso   1.00
C527   C     0.31163   0.01420   0.75343   0.00000  Uiso   1.00
C528   C     0.31898   0.06869   0.75199   0.00000  Uiso   1.00
C529   C     0.29866   0.17123   0.64701   0.00000  Uiso   1.00
C530   C     0.30385   0.16481   0.50328   0.00000  Uiso   1.00
C531   C     0.28538   0.18648   0.59032   0.00000  Uiso   1.00
C532   C     0.04133   0.22985   0.93189   0.00000  Uiso   1.00
C533   C     0.07652   0.26404   0.97232   0.00000  Uiso   1.00
C534   C     0.15523   0.20712   0.98106   0.00000  Uiso   1.00
C535   C     0.13421   0.25399   0.99458   0.00000  Uiso   1.00
C536   C     0.07038   0.23400   0.62282   0.00000  Uiso   1.00
C537   C     0.11616   0.27605   0.61780   0.00000  Uiso   1.00
C538   C     0.15988   0.29118   0.67271   0.00000  Uiso   1.00
C539   C     0.12343   0.17570   0.93549   0.00000  Uiso   1.00
C540   C     0.21061   0.19402   0.50827   0.00000  Uiso   1.00
C541   C     0.24357   0.16562   0.97979   0.00000  Uiso   1.00
C542   C     0.21421   0.13641   0.93192   0.00000  Uiso   1.00
C543   C     0.15325   0.13698   0.91382   0.00000  Uiso   1.00
C544   C     0.22930   0.19850   0.56518   0.00000  Uiso   1.00
C545   C     0.32675   0.18445   0.55781   0.00000  Uiso   1.00
H546   H     0.26916   0.33070   0.75551   0.00000  Uiso   1.00
H547   H     0.06599   0.00287   0.75069   0.00000  Uiso   1.00
H548   H     0.09265   0.21247   0.65799   0.00000  Uiso   1.00
H549   H     0.03367   0.25423   0.63234   0.00000  Uiso   1.00
H550   H     0.14180   0.26043   0.59233   0.00000  Uiso   1.00
H551   H     0.09527   0.31041   0.59887   0.00000  Uiso   1.00
H552   H     0.13685   0.30037   0.70471   0.00000  Uiso   1.00
H553   H     0.18916   0.32480   0.66800   0.00000  Uiso   1.00
H554   H     0.18741   0.25854   0.68607   0.00000  Uiso   1.00
H555   H     0.07948   0.03446   0.66885   0.00000  Uiso   1.00
H556   H     0.17656   0.21256   0.78461   0.00000  Uiso   1.00
H557   H     0.23726   0.11039   0.91145   0.00000  Uiso   1.00
H558   H     0.33225   0.14912   0.98013   0.00000  Uiso   1.00
H559   H     0.19849   0.20344   0.58943   0.00000  Uiso   1.00
H560   H     0.33094   0.24023   0.91270   0.00000  Uiso   1.00
H561   H     0.16342   0.28366   0.52099   0.00000  Uiso   1.00
H562   H     0.05991   0.29949   0.98456   0.00000  Uiso   1.00
H563   H     0.13083   0.10872   0.88141   0.00000  Uiso   1.00
N564   N     0.14493   0.15223   0.73542   0.00000  Uiso   1.00
N565   N     0.18840   0.18110   0.76457   0.00000  Uiso   1.00
O566   O     0.29769   0.24629   0.75357   0.00000  Uiso   1.00
O567   O     0.19152   0.09260   0.66900   0.00000  Uiso   1.00
O568   O     0.16850   0.05544   0.75024   0.00000  Uiso   1.00
O569   O     0.08438   0.07220   0.66511   0.00000  Uiso   1.00
O570   O     0.05742   0.23704   0.74423   0.00000  Uiso   1.00
O571   O     0.31490   0.17358   0.83380   0.00000  Uiso   1.00
O572   O     0.07463   0.16433   0.82446   0.00000  Uiso   1.00
O573   O     0.27592   0.09629   0.75576   0.00000  Uiso   1.00
O574   O     0.03565   0.08704   0.74642   0.00000  Uiso   1.00
O575   O     0.25870   0.16901   0.67554   0.00000  Uiso   1.00
O576   O     0.01843   0.15976   0.66620   0.00000  Uiso   1.00
O577   O     0.05385   0.19760   0.57626   0.00000  Uiso   1.00
S578   S     0.15064   0.09231   0.70555   0.00000  Uiso   1.00
Zn579  Zn    0.27119   0.17284   0.75623   0.00000  Uiso   1.00
Zn580  Zn    0.06214   0.16049   0.74376   0.00000  Uiso   1.00
C581   C     0.34823   0.26472   0.74959   0.00000  Uiso   1.00
C582   C     0.39842   0.18736   0.91083   0.00000  Uiso   1.00
C583   C     0.35646   0.31933   0.75119   0.00000  Uiso   1.00
C584   C     0.37117   0.16994   0.85430   0.00000  Uiso   1.00
C585   C     0.64496   0.01420   0.75343   0.00000  Uiso   1.00
C586   C     0.65232   0.06869   0.75199   0.00000  Uiso   1.00
C587   C     0.63200   0.17123   0.64701   0.00000  Uiso   1.00
C588   C     0.63719   0.16481   0.50328   0.00000  Uiso   1.00
C589   C     0.61872   0.18648   0.59032   0.00000  Uiso   1.00
C590   C     0.37466   0.22985   0.93189   0.00000  Uiso   1.00
C591   C     0.40986   0.26404   0.97232   0.00000  Uiso   1.00
C592   C     0.48857   0.20712   0.98106   0.00000  Uiso   1.00
C593   C     0.46754   0.25399   0.99458   0.00000  Uiso   1.00
C594   C     0.40372   0.23400   0.62282   0.00000  Uiso   1.00
C595   C     0.44949   0.27605   0.61780   0.00000  Uiso   1.00
C596   C     0.49321   0.29118   0.67271   0.00000  Uiso   1.00
C597   C     0.45676   0.17570   0.93549   0.00000  Uiso   1.00
C598   C     0.54395   0.19402   0.50827   0.00000  Uiso   1.00
C599   C     0.57691   0.16562   0.97979   0.00000  Uiso   1.00
C600   C     0.54755   0.13641   0.93192   0.00000  Uiso   1.00
C601   C     0.48658   0.13698   0.91382   0.00000  Uiso   1.00
C602   C     0.56263   0.19850   0.56518   0.00000  Uiso   1.00
C603   C     0.66008   0.18445   0.55781   0.00000  Uiso   1.00
H604   H     0.60249   0.33070   0.75551   0.00000  Uiso   1.00
H605   H     0.39933   0.00287   0.75069   0.00000  Uiso   1.00
H606   H     0.42598   0.21247   0.65799   0.00000  Uiso   1.00
H607   H     0.36700   0.25423   0.63234   0.00000  Uiso   1.00
H608   H     0.47514   0.26043   0.59233   0.00000  Uiso   1.00
H609   H     0.42860   0.31041   0.59887   0.00000  Uiso   1.00
H610   H     0.47018   0.30037   0.70471   0.00000  Uiso   1.00
H611   H     0.52249   0.32480   0.66800   0.00000  Uiso   1.00
H612   H     0.52074   0.25854   0.68607   0.00000  Uiso   1.00
H613   H     0.41281   0.03446   0.66885   0.00000  Uiso   1.00
H614   H     0.50989   0.21256   0.78461   0.00000  Uiso   1.00
H615   H     0.57059   0.11039   0.91145   0.00000  Uiso   1.00
H616   H     0.66559   0.14912   0.98013   0.00000  Uiso   1.00
H617   H     0.53182   0.20344   0.58943   0.00000  Uiso   1.00
H618   H     0.66428   0.24023   0.91270   0.00000  Uiso   1.00
H619   H     0.49676   0.28366   0.52099   0.00000  Uiso   1.00
H620   H     0.39324   0.29949   0.98456   0.00000  Uiso   1.00
H621   H     0.46416   0.10872   0.88141   0.00000  Uiso   1.00
N622   N     0.47827   0.15223   0.73542   0.00000  Uiso   1.00
N623   N     0.52173   0.18110   0.76457   0.00000  Uiso   1.00
O624   O     0.63102   0.24629   0.75357   0.00000  Uiso   1.00
O625   O     0.52486   0.09260   0.66900   0.00000  Uiso   1.00
O626   O     0.50184   0.05544   0.75024   0.00000  Uiso   1.00
O627   O     0.41771   0.07220   0.66511   0.00000  Uiso   1.00
O628   O     0.39075   0.23704   0.74423   0.00000  Uiso   1.00
O629   O     0.64823   0.17358   0.83380   0.00000  Uiso   1.00
O630   O     0.40796   0.16433   0.82446   0.00000  Uiso   1.00
O631   O     0.60925   0.09629   0.75576   0.00000  Uiso   1.00
O632   O     0.36898   0.08704   0.74642   0.00000  Uiso   1.00
O633   O     0.59204   0.16901   0.67554   0.00000  Uiso   1.00
O634   O     0.35177   0.15976   0.66620   0.00000  Uiso   1.00
O635   O     0.38718   0.19760   0.57626   0.00000  Uiso   1.00
S636   S     0.48398   0.09231   0.70555   0.00000  Uiso   1.00
Zn637  Zn    0.60453   0.17284   0.75623   0.00000  Uiso   1.00
Zn638  Zn    0.39547   0.16049   0.74376   0.00000  Uiso   1.00
C639   C     0.68156   0.26472   0.74959   0.00000  Uiso   1.00
C640   C     0.73175   0.18736   0.91083   0.00000  Uiso   1.00
C641   C     0.68980   0.31933   0.75119   0.00000  Uiso   1.00
C642   C     0.70450   0.16994   0.85430   0.00000  Uiso   1.00
C643   C     0.97830   0.01420   0.75343   0.00000  Uiso   1.00
C644   C     0.98565   0.06869   0.75199   0.00000  Uiso   1.00
C645   C     0.96533   0.17123   0.64701   0.00000  Uiso   1.00
C646   C     0.97052   0.16481   0.50328   0.00000  Uiso   1.00
C647   C     0.95205   0.18648   0.59032   0.00000  Uiso   1.00
C648   C     0.70799   0.22985   0.93189   0.00000  Uiso   1.00
C649   C     0.74319   0.26404   0.97232   0.00000  Uiso   1.00
C650   C     0.82190   0.20712   0.98106   0.00000  Uiso   1.00
C651   C     0.80087   0.25399   0.99458   0.00000  Uiso   1.00
C652   C     0.73705   0.23400   0.62282   0.00000  Uiso   1.00
C653   C     0.78282   0.27605   0.61780   0.00000  Uiso   1.00
C654   C     0.82654   0.29118   0.67271   0.00000  Uiso   1.00
C655   C     0.79009   0.17570   0.93549   0.00000  Uiso   1.00
C656   C     0.87728   0.19402   0.50827   0.00000  Uiso   1.00
C657   C     0.91024   0.16562   0.97979   0.00000  Uiso   1.00
C658   C     0.88088   0.13641   0.93192   0.00000  Uiso   1.00
C659   C     0.81991   0.13698   0.91382   0.00000  Uiso   1.00
C660   C     0.89597   0.19850   0.56518   0.00000  Uiso   1.00
C661   C     0.99342   0.18445   0.55781   0.00000  Uiso   1.00
H662   H     0.93582   0.33070   0.75551   0.00000  Uiso   1.00
H663   H     0.73266   0.00287   0.75069   0.00000  Uiso   1.00
H664   H     0.75932   0.21247   0.65799   0.00000  Uiso   1.00
H665   H     0.70033   0.25423   0.63234   0.00000  Uiso   1.00
H666   H     0.80847   0.26043   0.59233   0.00000  Uiso   1.00
H667   H     0.76194   0.31041   0.59887   0.00000  Uiso   1.00
H668   H     0.80352   0.30037   0.70471   0.00000  Uiso   1.00
H669   H     0.85582   0.32480   0.66800   0.00000  Uiso   1.00
H670   H     0.85408   0.25854   0.68607   0.00000  Uiso   1.00
H671   H     0.74614   0.03446   0.66885   0.00000  Uiso   1.00
H672   H     0.84323   0.21256   0.78461   0.00000  Uiso   1.00
H673   H     0.90393   0.11039   0.91145   0.00000  Uiso   1.00
H674   H     0.99892   0.14912   0.98013   0.00000  Uiso   1.00
H675   H     0.86516   0.20344   0.58943   0.00000  Uiso   1.00
H676   H     0.99761   0.24023   0.91270   0.00000  Uiso   1.00
H677   H     0.83009   0.28366   0.52099   0.00000  Uiso   1.00
H678   H     0.72657   0.29949   0.98456   0.00000  Uiso   1.00
H679   H     0.79749   0.10872   0.88141   0.00000  Uiso   1.00
N680   N     0.81160   0.15223   0.73542   0.00000  Uiso   1.00
N681   N     0.85507   0.18110   0.76457   0.00000  Uiso   1.00
O682   O     0.96435   0.24629   0.75357   0.00000  Uiso   1.00
O683   O     0.85819   0.09260   0.66900   0.00000  Uiso   1.00
O684   O     0.83517   0.05544   0.75024   0.00000  Uiso   1.00
O685   O     0.75105   0.07220   0.66511   0.00000  Uiso   1.00
O686   O     0.72408   0.23704   0.74423   0.00000  Uiso   1.00
O687   O     0.98157   0.17358   0.83380   0.00000  Uiso   1.00
O688   O     0.74130   0.16433   0.82446   0.00000  Uiso   1.00
O689   O     0.94258   0.09629   0.75576   0.00000  Uiso   1.00
O690   O     0.70231   0.08704   0.74642   0.00000  Uiso   1.00
O691   O     0.92537   0.16901   0.67554   0.00000  Uiso   1.00
O692   O     0.68510   0.15976   0.66620   0.00000  Uiso   1.00
O693   O     0.72052   0.19760   0.57626   0.00000  Uiso   1.00
S694   S     0.81731   0.09231   0.70555   0.00000  Uiso   1.00
Zn695  Zn    0.93786   0.17284   0.75623   0.00000  Uiso   1.00
Zn696  Zn    0.72881   0.16049   0.74376   0.00000  Uiso   1.00
C697   C     0.01489   0.59805   0.74959   0.00000  Uiso   1.00
C698   C     0.06509   0.52069   0.91083   0.00000  Uiso   1.00
C699   C     0.02313   0.65266   0.75119   0.00000  Uiso   1.00
C700   C     0.03783   0.50327   0.85430   0.00000  Uiso   1.00
C701   C     0.31163   0.34753   0.75343   0.00000  Uiso   1.00
C702   C     0.31898   0.40202   0.75199   0.00000  Uiso   1.00
C703   C     0.29866   0.50457   0.64701   0.00000  Uiso   1.00
C704   C     0.30385   0.49815   0.50328   0.00000  Uiso   1.00
C705   C     0.28538   0.51981   0.59032   0.00000  Uiso   1.00
C706   C     0.04133   0.56319   0.93189   0.00000  Uiso   1.00
C707   C     0.07652   0.59737   0.97232   0.00000  Uiso   1.00
C708   C     0.15523   0.54046   0.98106   0.00000  Uiso   1.00
C709   C     0.13421   0.58733   0.99458   0.00000  Uiso   1.00
C710   C     0.07038   0.56733   0.62282   0.00000  Uiso   1.00
C711   C     0.11616   0.60939   0.61780   0.00000  Uiso   1.00
C712   C     0.15988   0.62452   0.67271   0.00000  Uiso   1.00
C713   C     0.12343   0.50903   0.93549   0.00000  Uiso   1.00
C714   C     0.21061   0.52735   0.50827   0.00000  Uiso   1.00
C715   C     0.24357   0.49896   0.97979   0.00000  Uiso   1.00
C716   C     0.21421   0.46974   0.93192   0.00000  Uiso   1.00
C717   C     0.15325   0.47031   0.91382   0.00000  Uiso   1.00
C718   C     0.22930   0.53183   0.56518   0.00000  Uiso   1.00
C719   C     0.32675   0.51779   0.55781   0.00000  Uiso   1.00
H720   H     0.26916   0.66403   0.75551   0.00000  Uiso   1.00
H721   H     0.06599   0.33620   0.75069   0.00000  Uiso   1.00
H722   H     0.09265   0.54580   0.65799   0.00000  Uiso   1.00
H723   H     0.03367   0.58756   0.63234   0.00000  Uiso   1.00
H724   H     0.14180   0.59376   0.59233   0.00000  Uiso   1.00
H725   H     0.09527   0.64374   0.59887   0.00000  Uiso   1.00
H726   H     0.13685   0.63371   0.70471   0.00000  Uiso   1.00
H727   H     0.18916   0.65813   0.66800   0.00000  Uiso   1.00
H728   H     0.18741   0.59187   0.68607   0.00000  Uiso   1.00
H729   H     0.07948   0.36780   0.66885   0.00000  Uiso   1.00
H730   H     0.17656   0.54589   0.78461   0.00000  Uiso   1.00
H731   H     0.23726   0.44373   0.91145   0.00000  Uiso   1.00
H732   H     0.33225   0.48246   0.98013   0.00000  Uiso   1.00
H733   H     0.19849   0.53677   0.58943   0.00000  Uiso   1.00
H734   H     0.33094   0.57356   0.91270   0.00000  Uiso   1.00
H735   H     0.16342   0.61699   0.52099   0.00000  Uiso   1.00
H736   H     0.05991   0.63283   0.98456   0.00000  Uiso   1.00
H737   H     0.13083   0.44205   0.88141   0.00000  Uiso   1.00
N738   N     0.14493   0.48556   0.73542   0.00000  Uiso   1.00
N739   N     0.18840   0.51444   0.76457   0.00000  Uiso   1.00
O740   O     0.29769   0.57963   0.75357   0.00000  Uiso   1.00
O741   O     0.19152   0.42594   0.66900   0.00000  Uiso   1.00
O742   O     0.16850   0.38878   0.75024   0.00000  Uiso   1.00
O743   O     0.08438   0.40553   0.66511   0.00000  Uiso   1.00
O744   O     0.05742   0.57038   0.74423   0.00000  Uiso   1.00
O745   O     0.31490   0.50691   0.83380   0.00000  Uiso   1.00
O746   O     0.07463   0.49766   0.82446   0.00000  Uiso   1.00
O747   O     0.27592   0.42962   0.75576   0.00000  Uiso   1.00
O748   O     0.03565   0.42037   0.74642   0.00000  Uiso   1.00
O749   O     0.25870   0.50234   0.67554   0.00000  Uiso   1.00
O750   O     0.01843   0.49309   0.66620   0.00000  Uiso   1.00
O751   O     0.05385   0.53094   0.57626   0.00000  Uiso   1.00
S752   S     0.15064   0.42564   0.70555   0.00000  Uiso   1.00
Zn753  Zn    0.27119   0.50618   0.75623   0.00000  Uiso   1.00
Zn754  Zn    0.06214   0.49382   0.74376   0.00000  Uiso   1.00
C755   C     0.34823   0.59805   0.74959   0.00000  Uiso   1.00
C756   C     0.39842   0.52069   0.91083   0.00000  Uiso   1.00
C757   C     0.35646   0.65266   0.75119   0.00000  Uiso   1.00
C758   C     0.37117   0.50327   0.85430   0.00000  Uiso   1.00
C759   C     0.64496   0.34753   0.75343   0.00000  Uiso   1.00
C760   C     0.65232   0.40202   0.75199   0.00000  Uiso   1.00
C761   C     0.63200   0.50457   0.64701   0.00000  Uiso   1.00
C762   C     0.63719   0.49815   0.50328   0.00000  Uiso   1.00
C763   C     0.61872   0.51981   0.59032   0.00000  Uiso   1.00
C764   C     0.37466   0.56319   0.93189   0.00000  Uiso   1.00
C765   C     0.40986   0.59737   0.97232   0.00000  Uiso   1.00
C766   C     0.48857   0.54046   0.98106   0.00000  Uiso   1.00
C767   C     0.46754   0.58733   0.99458   0.00000  Uiso   1.00
C768   C     0.40372   0.56733   0.62282   0.00000  Uiso   1.00
C769   C     0.44949   0.60939   0.61780   0.00000  Uiso   1.00
C770   C     0.49321   0.62452   0.67271   0.00000  Uiso   1.00
C771   C     0.45676   0.50903   0.93549   0.00000  Uiso   1.00
C772   C     0.54395   0.52735   0.50827   0.00000  Uiso   1.00
C773   C     0.57691   0.49896   0.97979   0.00000  Uiso   1.00
C774   C     0.54755   0.46974   0.93192   0.00000  Uiso   1.00
C775   C     0.48658   0.47031   0.91382   0.00000  Uiso   1.00
C776   C     0.56263   0.53183   0.56518   0.00000  Uiso   1.00
C777   C     0.66008   0.51779   0.55781   0.00000  Uiso   1.00
H778   H     0.60249   0.66403   0.75551   0.00000  Uiso   1.00
H779   H     0.39933   0.33620   0.75069   0.00000  Uiso   1.00
H780   H     0.42598   0.54580   0.65799   0.00000  Uiso   1.00
H781   H     0.36700   0.58756   0.63234   0.00000  Uiso   1.00
H782   H     0.47514   0.59376   0.59233   0.00000  Uiso   1.00
H783   H     0.42860   0.64374   0.59887   0.00000  Uiso   1.00
H784   H     0.47018   0.63371   0.70471   0.00000  Uiso   1.00
H785   H     0.52249   0.65813   0.66800   0.00000  Uiso   1.00
H786   H     0.52074   0.59187   0.68607   0.00000  Uiso   1.00
H787   H     0.41281   0.36780   0.66885   0.00000  Uiso   1.00
H788   H     0.50989   0.54589   0.78461   0.00000  Uiso   1.00
H789   H     0.57059   0.44373   0.91145   0.00000  Uiso   1.00
H790   H     0.66559   0.48246   0.98013   0.00000  Uiso   1.00
H791   H     0.53182   0.53677   0.58943   0.00000  Uiso   1.00
H792   H     0.66428   0.57356   0.91270   0.00000  Uiso   1.00
H793   H     0.49676   0.61699   0.52099   0.00000  Uiso   1.00
H794   H     0.39324   0.63283   0.98456   0.00000  Uiso   1.00
H795   H     0.46416   0.44205   0.88141   0.00000  Uiso   1.00
N796   N     0.47827   0.48556   0.73542   0.00000  Uiso   1.00
N797   N     0.52173   0.51444   0.76457   0.00000  Uiso   1.00
O798   O     0.63102   0.57963   0.75357   0.00000  Uiso   1.00
O799   O     0.52486   0.42594   0.66900   0.00000  Uiso   1.00
O800   O     0.50184   0.38878   0.75024   0.00000  Uiso   1.00
O801   O     0.41771   0.40553   0.66511   0.00000  Uiso   1.00
O802   O     0.39075   0.57038   0.74423   0.00000  Uiso   1.00
O803   O     0.64823   0.50691   0.83380   0.00000  Uiso   1.00
O804   O     0.40796   0.49766   0.82446   0.00000  Uiso   1.00
O805   O     0.60925   0.42962   0.75576   0.00000  Uiso   1.00
O806   O     0.36898   0.42037   0.74642   0.00000  Uiso   1.00
O807   O     0.59204   0.50234   0.67554   0.00000  Uiso   1.00
O808   O     0.35177   0.49309   0.66620   0.00000  Uiso   1.00
O809   O     0.38718   0.53094   0.57626   0.00000  Uiso   1.00
S810   S     0.48398   0.42564   0.70555   0.00000  Uiso   1.00
Zn811  Zn    0.60453   0.50618   0.75623   0.00000  Uiso   1.00
Zn812  Zn    0.39547   0.49382   0.74376   0.00000  Uiso   1.00
C813   C     0.68156   0.59805   0.74959   0.00000  Uiso   1.00
C814   C     0.73175   0.52069   0.91083   0.00000  Uiso   1.00
C815   C     0.68980   0.65266   0.75119   0.00000  Uiso   1.00
C816   C     0.70450   0.50327   0.85430   0.00000  Uiso   1.00
C817   C     0.97830   0.34753   0.75343   0.00000  Uiso   1.00
C818   C     0.98565   0.40202   0.75199   0.00000  Uiso   1.00
C819   C     0.96533   0.50457   0.64701   0.00000  Uiso   1.00
C820   C     0.97052   0.49815   0.50328   0.00000  Uiso   1.00
C821   C     0.95205   0.51981   0.59032   0.00000  Uiso   1.00
C822   C     0.70799   0.56319   0.93189   0.00000  Uiso   1.00
C823   C     0.74319   0.59737   0.97232   0.00000  Uiso   1.00
C824   C     0.82190   0.54046   0.98106   0.00000  Uiso   1.00
C825   C     0.80087   0.58733   0.99458   0.00000  Uiso   1.00
C826   C     0.73705   0.56733   0.62282   0.00000  Uiso   1.00
C827   C     0.78282   0.60939   0.61780   0.00000  Uiso   1.00
C828   C     0.82654   0.62452   0.67271   0.00000  Uiso   1.00
C829   C     0.79009   0.50903   0.93549   0.00000  Uiso   1.00
C830   C     0.87728   0.52735   0.50827   0.00000  Uiso   1.00
C831   C     0.91024   0.49896   0.97979   0.00000  Uiso   1.00
C832   C     0.88088   0.46974   0.93192   0.00000  Uiso   1.00
C833   C     0.81991   0.47031   0.91382   0.00000  Uiso   1.00
C834   C     0.89597   0.53183   0.56518   0.00000  Uiso   1.00
C835   C     0.99342   0.51779   0.55781   0.00000  Uiso   1.00
H836   H     0.93582   0.66403   0.75551   0.00000  Uiso   1.00
H837   H     0.73266   0.33620   0.75069   0.00000  Uiso   1.00
H838   H     0.75932   0.54580   0.65799   0.00000  Uiso   1.00
H839   H     0.70033   0.58756   0.63234   0.00000  Uiso   1.00
H840   H     0.80847   0.59376   0.59233   0.00000  Uiso   1.00
H841   H     0.76194   0.64374   0.59887   0.00000  Uiso   1.00
H842   H     0.80352   0.63371   0.70471   0.00000  Uiso   1.00
H843   H     0.85582   0.65813   0.66800   0.00000  Uiso   1.00
H844   H     0.85408   0.59187   0.68607   0.00000  Uiso   1.00
H845   H     0.74614   0.36780   0.66885   0.00000  Uiso   1.00
H846   H     0.84323   0.54589   0.78461   0.00000  Uiso   1.00
H847   H     0.90393   0.44373   0.91145   0.00000  Uiso   1.00
H848   H     0.99892   0.48246   0.98013   0.00000  Uiso   1.00
H849   H     0.86516   0.53677   0.58943   0.00000  Uiso   1.00
H850   H     0.99761   0.57356   0.91270   0.00000  Uiso   1.00
H851   H     0.83009   0.61699   0.52099   0.00000  Uiso   1.00
H852   H     0.72657   0.63283   0.98456   0.00000  Uiso   1.00
H853   H     0.79749   0.44205   0.88141   0.00000  Uiso   1.00
N854   N     0.81160   0.48556   0.73542   0.00000  Uiso   1.00
N855   N     0.85507   0.51444   0.76457   0.00000  Uiso   1.00
O856   O     0.96435   0.57963   0.75357   0.00000  Uiso   1.00
O857   O     0.85819   0.42594   0.66900   0.00000  Uiso   1.00
O858   O     0.83517   0.38878   0.75024   0.00000  Uiso   1.00
O859   O     0.75105   0.40553   0.66511   0.00000  Uiso   1.00
O860   O     0.72408   0.57038   0.74423   0.00000  Uiso   1.00
O861   O     0.98157   0.50691   0.83380   0.00000  Uiso   1.00
O862   O     0.74130   0.49766   0.82446   0.00000  Uiso   1.00
O863   O     0.94258   0.42962   0.75576   0.00000  Uiso   1.00
O864   O     0.70231   0.42037   0.74642   0.00000  Uiso   1.00
O865   O     0.92537   0.50234   0.67554   0.00000  Uiso   1.00
O866   O     0.68510   0.49309   0.66620   0.00000  Uiso   1.00
O867   O     0.72052   0.53094   0.57626   0.00000  Uiso   1.00
S868   S     0.81731   0.42564   0.70555   0.00000  Uiso   1.00
Zn869  Zn    0.93786   0.50618   0.75623   0.00000  Uiso   1.00
Zn870  Zn    0.72881   0.49382   0.74376   0.00000  Uiso   1.00
C871   C     0.01489   0.93138   0.74959   0.00000  Uiso   1.00
C872   C     0.06509   0.85402   0.91083   0.00000  Uiso   1.00
C873   C     0.02313   0.98600   0.75119   0.00000  Uiso   1.00
C874   C     0.03783   0.83660   0.85430   0.00000  Uiso   1.00
C875   C     0.31163   0.68087   0.75343   0.00000  Uiso   1.00
C876   C     0.31898   0.73536   0.75199   0.00000  Uiso   1.00
C877   C     0.29866   0.83790   0.64701   0.00000  Uiso   1.00
C878   C     0.30385   0.83148   0.50328   0.00000  Uiso   1.00
C879   C     0.28538   0.85315   0.59032   0.00000  Uiso   1.00
C880   C     0.04133   0.89652   0.93189   0.00000  Uiso   1.00
C881   C     0.07652   0.93071   0.97232   0.00000  Uiso   1.00
C882   C     0.15523   0.87379   0.98106   0.00000  Uiso   1.00
C883   C     0.13421   0.92066   0.99458   0.00000  Uiso   1.00
C884   C     0.07038   0.90067   0.62282   0.00000  Uiso   1.00
C885   C     0.11616   0.94272   0.61780   0.00000  Uiso   1.00
C886   C     0.15988   0.95785   0.67271   0.00000  Uiso   1.00
C887   C     0.12343   0.84237   0.93549   0.00000  Uiso   1.00
C888   C     0.21061   0.86068   0.50827   0.00000  Uiso   1.00
C889   C     0.24357   0.83229   0.97979   0.00000  Uiso   1.00
C890   C     0.21421   0.80308   0.93192   0.00000  Uiso   1.00
C891   C     0.15325   0.80365   0.91382   0.00000  Uiso   1.00
C892   C     0.22930   0.86517   0.56518   0.00000  Uiso   1.00
C893   C     0.32675   0.85112   0.55781   0.00000  Uiso   1.00
H894   H     0.26916   0.99736   0.75551   0.00000  Uiso   1.00
H895   H     0.06599   0.66953   0.75069   0.00000  Uiso   1.00
H896   H     0.09265   0.87914   0.65799   0.00000  Uiso   1.00
H897   H     0.03367   0.92090   0.63234   0.00000  Uiso   1.00
H898   H     0.14180   0.92710   0.59233   0.00000  Uiso   1.00
H899   H     0.09527   0.97707   0.59887   0.00000  Uiso   1.00
H900   H     0.13685   0.96704   0.70471   0.00000  Uiso   1.00
H901   H     0.18916   0.99147   0.66800   0.00000  Uiso   1.00
H902   H     0.18741   0.92521   0.68607   0.00000  Uiso   1.00
H903   H     0.07948   0.70113   0.66885   0.00000  Uiso   1.00
H904   H     0.17656   0.87922   0.78461   0.00000  Uiso   1.00
H905   H     0.23726   0.77706   0.91145   0.00000  Uiso   1.00
H906   H     0.33225   0.81579   0.98013   0.00000  Uiso   1.00
H907   H     0.19849   0.87011   0.58943   0.00000  Uiso   1.00
H908   H     0.33094   0.90689   0.91270   0.00000  Uiso   1.00
H909   H     0.16342   0.95033   0.52099   0.00000  Uiso   1.00
H910   H     0.05991   0.96616   0.98456   0.00000  Uiso   1.00
H911   H     0.13083   0.77538   0.88141   0.00000  Uiso   1.00
N912   N     0.14493   0.81890   0.73542   0.00000  Uiso   1.00
N913   N     0.18840   0.84777   0.76457   0.00000  Uiso   1.00
O914   O     0.29769   0.91296   0.75357   0.00000  Uiso   1.00
O915   O     0.19152   0.75927   0.66900   0.00000  Uiso   1.00
O916   O     0.16850   0.72211   0.75024   0.00000  Uiso   1.00
O917   O     0.08438   0.73886   0.66511   0.00000  Uiso   1.00
O918   O     0.05742   0.90371   0.74423   0.00000  Uiso   1.00
O919   O     0.31490   0.84024   0.83380   0.00000  Uiso   1.00
O920   O     0.07463   0.83099   0.82446   0.00000  Uiso   1.00
O921   O     0.27592   0.76296   0.75576   0.00000  Uiso   1.00
O922   O     0.03565   0.75371   0.74642   0.00000  Uiso   1.00
O923   O     0.25870   0.83567   0.67554   0.00000  Uiso   1.00
O924   O     0.01843   0.82642   0.66620   0.00000  Uiso   1.00
O925   O     0.05385   0.86427   0.57626   0.00000  Uiso   1.00
S926   S     0.15064   0.75897   0.70555   0.00000  Uiso   1.00
Zn927  Zn    0.27119   0.83951   0.75623   0.00000  Uiso   1.00
Zn928  Zn    0.06214   0.82716   0.74376   0.00000  Uiso   1.00
C929   C     0.34823   0.93138   0.74959   0.00000  Uiso   1.00
C930   C     0.39842   0.85402   0.91083   0.00000  Uiso   1.00
C931   C     0.35646   0.98600   0.75119   0.00000  Uiso   1.00
C932   C     0.37117   0.83660   0.85430   0.00000  Uiso   1.00
C933   C     0.64496   0.68087   0.75343   0.00000  Uiso   1.00
C934   C     0.65232   0.73536   0.75199   0.00000  Uiso   1.00
C935   C     0.63200   0.83790   0.64701   0.00000  Uiso   1.00
C936   C     0.63719   0.83148   0.50328   0.00000  Uiso   1.00
C937   C     0.61872   0.85315   0.59032   0.00000  Uiso   1.00
C938   C     0.37466   0.89652   0.93189   0.00000  Uiso   1.00
C939   C     0.40986   0.93071   0.97232   0.00000  Uiso   1.00
C940   C     0.48857   0.87379   0.98106   0.00000  Uiso   1.00
C941   C     0.46754   0.92066   0.99458   0.00000  Uiso   1.00
C942   C     0.40372   0.90067   0.62282   0.00000  Uiso   1.00
C943   C     0.44949   0.94272   0.61780   0.00000  Uiso   1.00
C944   C     0.49321   0.95785   0.67271   0.00000  Uiso   1.00
C945   C     0.45676   0.84237   0.93549   0.00000  Uiso   1.00
C946   C     0.54395   0.86068   0.50827   0.00000  Uiso   1.00
C947   C     0.57691   0.83229   0.97979   0.00000  Uiso   1.00
C948   C     0.54755   0.80308   0.93192   0.00000  Uiso   1.00
C949   C     0.48658   0.80365   0.91382   0.00000  Uiso   1.00
C950   C     0.56263   0.86517   0.56518   0.00000  Uiso   1.00
C951   C     0.66008   0.85112   0.55781   0.00000  Uiso   1.00
H952   H     0.60249   0.99736   0.75551   0.00000  Uiso   1.00
H953   H     0.39933   0.66953   0.75069   0.00000  Uiso   1.00
H954   H     0.42598   0.87914   0.65799   0.00000  Uiso   1.00
H955   H     0.36700   0.92090   0.63234   0.00000  Uiso   1.00
H956   H     0.47514   0.92710   0.59233   0.00000  Uiso   1.00
H957   H     0.42860   0.97707   0.59887   0.00000  Uiso   1.00
H958   H     0.47018   0.96704   0.70471   0.00000  Uiso   1.00
H959   H     0.52249   0.99147   0.66800   0.00000  Uiso   1.00
H960   H     0.52074   0.92521   0.68607   0.00000  Uiso   1.00
H961   H     0.41281   0.70113   0.66885   0.00000  Uiso   1.00
H962   H     0.50989   0.87922   0.78461   0.00000  Uiso   1.00
H963   H     0.57059   0.77706   0.91145   0.00000  Uiso   1.00
H964   H     0.66559   0.81579   0.98013   0.00000  Uiso   1.00
H965   H     0.53182   0.87011   0.58943   0.00000  Uiso   1.00
H966   H     0.66428   0.90689   0.91270   0.00000  Uiso   1.00
H967   H     0.49676   0.95033   0.52099   0.00000  Uiso   1.00
H968   H     0.39324   0.96616   0.98456   0.00000  Uiso   1.00
H969   H     0.46416   0.77538   0.88141   0.00000  Uiso   1.00
N970   N     0.47827   0.81890   0.73542   0.00000  Uiso   1.00
N971   N     0.52173   0.84777   0.76457   0.00000  Uiso   1.00
O972   O     0.63102   0.91296   0.75357   0.00000  Uiso   1.00
O973   O     0.52486   0.75927   0.66900   0.00000  Uiso   1.00
O974   O     0.50184   0.72211   0.75024   0.00000  Uiso   1.00
O975   O     0.41771   0.73886   0.66511   0.00000  Uiso   1.00
O976   O     0.39075   0.90371   0.74423   0.00000  Uiso   1.00
O977   O     0.64823   0.84024   0.83380   0.00000  Uiso   1.00
O978   O     0.40796   0.83099   0.82446   0.00000  Uiso   1.00
O979   O     0.60925   0.76296   0.75576   0.00000  Uiso   1.00
O980   O     0.36898   0.75371   0.74642   0.00000  Uiso   1.00
O981   O     0.59204   0.83567   0.67554   0.00000  Uiso   1.00
O982   O     0.35177   0.82642   0.66620   0.00000  Uiso   1.00
O983   O     0.38718   0.86427   0.57626   0.00000  Uiso   1.00
S984   S     0.48398   0.75897   0.70555   0.00000  Uiso   1.00
Zn985  Zn    0.60453   0.83951   0.75623   0.00000  Uiso   1.00
Zn986  Zn    0.39547   0.82716   0.74376   0.00000  Uiso   1.00
C987   C     0.68156   0.93138   0.74959   0.00000  Uiso   1.00
C988   C     0.73175   0.85402   0.91083   0.00000  Uiso   1.00
C989   C     0.68980   0.98600   0.75119   0.00000  Uiso   1.00
C990   C     0.70450   0.83660   0.85430   0.00000  Uiso   1.00
C991   C     0.97830   0.68087   0.75343   0.00000  Uiso   1.00
C992   C     0.98565   0.73536   0.75199   0.00000  Uiso   1.00
C993   C     0.96533   0.83790   0.64701   0.00000  Uiso   1.00
C994   C     0.97052   0.83148   0.50328   0.00000  Uiso   1.00
C995   C     0.95205   0.85315   0.59032   0.00000  Uiso   1.00
C996   C     0.70799   0.89652   0.93189   0.00000  Uiso   1.00
C997   C     0.74319   0.93071   0.97232   0.00000  Uiso   1.00
C998   C     0.82190   0.87379   0.98106   0.00000  Uiso   1.00
C999   C     0.80087   0.92066   0.99458   0.00000  Uiso   1.00
C1000  C     0.73705   0.90067   0.62282   0.00000  Uiso   1.00
C1001  C     0.78282   0.94272   0.61780   0.00000  Uiso   1.00
C1002  C     0.82654   0.95785   0.67271   0.00000  Uiso   1.00
C1003  C     0.79009   0.84237   0.93549   0.00000  Uiso   1.00
C1004  C     0.87728   0.86068   0.50827   0.00000  Uiso   1.00
C1005  C     0.91024   0.83229   0.97979   0.00000  Uiso   1.00
C1006  C     0.88088   0.80308   0.93192   0.00000  Uiso   1.00
C1007  C     0.81991   0.80365   0.91382   0.00000  Uiso   1.00
C1008  C     0.89597   0.86517   0.56518   0.00000  Uiso   1.00
C1009  C     0.99342   0.85112   0.55781   0.00000  Uiso   1.00
H1010  H     0.93582   0.99736   0.75551   0.00000  Uiso   1.00
H1011  H     0.73266   0.66953   0.75069   0.00000  Uiso   1.00
H1012  H     0.75932   0.87914   0.65799   0.00000  Uiso   1.00
H1013  H     0.70033   0.92090   0.63234   0.00000  Uiso   1.00
H1014  H     0.80847   0.92710   0.59233   0.00000  Uiso   1.00
H1015  H     0.76194   0.97707   0.59887   0.00000  Uiso   1.00
H1016  H     0.80352   0.96704   0.70471   0.00000  Uiso   1.00
H1017  H     0.85582   0.99147   0.66800   0.00000  Uiso   1.00
H1018  H     0.85408   0.92521   0.68607   0.00000  Uiso   1.00
H1019  H     0.74614   0.70113   0.66885   0.00000  Uiso   1.00
H1020  H     0.84323   0.87922   0.78461   0.00000  Uiso   1.00
H1021  H     0.90393   0.77706   0.91145   0.00000  Uiso   1.00
H1022  H     0.99892   0.81579   0.98013   0.00000  Uiso   1.00
H1023  H     0.86516   0.87011   0.58943   0.00000  Uiso   1.00
H1024  H     0.99761   0.90689   0.91270   0.00000  Uiso   1.00
H1025  H     0.83009   0.95033   0.52099   0.00000  Uiso   1.00
H1026  H     0.72657   0.96616   0.98456   0.00000  Uiso   1.00
H1027  H     0.79749   0.77538   0.88141   0.00000  Uiso   1.00
N1028  N     0.81160   0.81890   0.73542   0.00000  Uiso   1.00
N1029  N     0.85507   0.84777   0.76457   0.00000  Uiso   1.00
O1030  O     0.96435   0.91296   0.75357   0.00000  Uiso   1.00
O1031  O     0.85819   0.75927   0.66900   0.00000  Uiso   1.00
O1032  O     0.83517   0.72211   0.75024   0.00000  Uiso   1.00
O1033  O     0.75105   0.73886   0.66511   0.00000  Uiso   1.00
O1034  O     0.72408   0.90371   0.74423   0.00000  Uiso   1.00
O1035  O     0.98157   0.84024   0.83380   0.00000  Uiso   1.00
O1036  O     0.74130   0.83099   0.82446   0.00000  Uiso   1.00
O1037  O     0.94258   0.76296   0.75576   0.00000  Uiso   1.00
O1038  O     0.70231   0.75371   0.74642   0.00000  Uiso   1.00
O1039  O     0.92537   0.83567   0.67554   0.00000  Uiso   1.00
O1040  O     0.68510   0.82642   0.66620   0.00000  Uiso   1.00
O1041  O     0.72052   0.86427   0.57626   0.00000  Uiso   1.00
S1042  S     0.81731   0.75897   0.70555   0.00000  Uiso   1.00
Zn1043 Zn    0.93786   0.83951   0.75623   0.00000  Uiso   1.00
Zn1044 Zn    0.72881   0.82716   0.74376   0.00000  Uiso   1.00
loop_
_geom_bond_atom_site_label_1
_geom_bond_atom_site_label_2
_geom_bond_distance
_geom_bond_site_symmetry_2
_ccdc_geom_bond_type
C1     O48     1.302   .     A
C1     C3      1.411   .     S
C1     O160    1.291   1_455 S
C2     C4      1.449   .     S
C2     C17     1.424   .     A
C2     C10     1.408   .     A
C3     C295    1.336   1_455 S
C3     H199    1.084   .     S
C4     O50     1.297   .     A
C4     O165    1.315   1_455 S
C5     C6      1.412   .     S
C5     C409    1.336   1_545 S
C5     H372    1.086   1_545 S
C6     O51     1.301   .     A
C6     O110    1.292   .     S
C7     O53     1.325   .     A
C7     C9      1.461   .     S
C7     O112    1.289   .     S
C8     C23     1.406   .     A
C8     C541    1.405   1_554 S
C8     H558    1.081   1_554 S
C9     C22     1.383   .     A
C9     C23     1.428   .     A
C10    C11     1.387   .     A
C10    H154    1.084   1_455 S
C11    C13     1.387   .     A
C11    H40     1.082   .     S
C12    C17     1.400   .     A
C12    C13     1.399   .     A
C12    C540    1.390   .     S
C13    H561    1.083   .     S
C14    O55     1.431   .     S
C14    H26     1.104   .     S
C14    H27     1.113   .     S
C14    C15     1.520   .     S
C15    H28     1.072   .     S
C15    H29     1.111   .     S
C15    C16     1.526   .     S
C16    H32     1.111   .     S
C16    H31     1.108   .     S
C16    H30     1.107   .     S
C17    C21     1.426   .     A
C18    C22     1.389   .     A
C18    C534    1.390   1_554 S
C18    C541    1.404   1_554 S
C19    C20     1.396   .     A
C19    C530    1.405   .     S
C19    C540    1.404   .     S
C20    C21     1.404   .     A
C20    H35     1.083   .     S
C21    H41     1.081   .     S
C22    H37     1.073   .     S
C23    O113    1.406   .     S
H24    C179    1.086   .     S
H25    C351    1.084   1_545 S
H33    O47     0.987   .     S
H34    N43     1.029   .     S
H36    C530    1.081   .     S
H38    C68     1.084   .     S
H39    C535    1.083   1_554 S
N42    S56     1.721   .     S
N42    Zn58    2.048   .     S
N42    N43     1.280   .     D
N43    Zn57    2.048   .     S
O44    Zn57    1.972   .     S
O44    C59     1.291   .     S
O45    S56     1.495   .     D
O46    S56     1.503   .     D
O47    S56     1.683   .     S
O48    Zn58    1.989   .     S
O49    Zn57    1.969   .     S
O49    C62     1.315   .     S
O50    Zn58    1.978   .     S
O51    Zn57    1.989   .     S
O52    Zn58    1.972   .     S
O52    C122    1.292   1_455 S
O53    Zn57    1.978   .     S
O54    Zn58    1.969   .     S
O54    C123    1.289   1_455 S
O55    C139    1.406   1_455 S
C59    O106    1.302   .     A
C59    C61     1.411   .     S
C60    C62     1.449   .     S
C60    C75     1.424   .     A
C60    C68     1.408   .     A
C61    C179    1.336   .     S
C61    H257    1.084   .     S
C62    O108    1.297   .     A
C63    C64     1.412   .     S
C63    C467    1.336   1_545 S
C63    H430    1.086   1_545 S
C64    O109    1.301   .     A
C64    O168    1.292   .     S
C65    O111    1.325   .     A
C65    C67     1.461   .     S
C65    O170    1.289   .     S
C66    C81     1.406   .     A
C66    C599    1.405   1_554 S
C66    H616    1.081   1_554 S
C67    C80     1.383   .     A
C67    C81     1.428   .     A
C68    C69     1.387   .     A
C69    C71     1.387   .     A
C69    H98     1.082   .     S
C70    C75     1.400   .     A
C70    C71     1.399   .     A
C70    C598    1.390   .     S
C71    H619    1.083   .     S
C72    O113    1.431   .     S
C72    H84     1.104   .     S
C72    H85     1.113   .     S
C72    C73     1.520   .     S
C73    H86     1.072   .     S
C73    H87     1.111   .     S
C73    C74     1.526   .     S
C74    H90     1.111   .     S
C74    H89     1.108   .     S
C74    H88     1.107   .     S
C75    C79     1.426   .     A
C76    C80     1.389   .     A
C76    C592    1.390   1_554 S
C76    C599    1.404   1_554 S
C77    C78     1.396   .     A
C77    C588    1.405   .     S
C77    C598    1.404   .     S
C78    C79     1.404   .     A
C78    H93     1.083   .     S
C79    H99     1.081   .     S
C80    H95     1.073   .     S
C81    O171    1.406   .     S
H82    C237    1.086   .     S
H83    C409    1.084   1_545 S
H91    O105    0.987   .     S
H92    N101    1.029   .     S
H94    C588    1.081   .     S
H96    C126    1.084   .     S
H97    C593    1.083   1_554 S
N100   S114    1.721   .     S
N100   Zn116   2.048   .     S
N100   N101    1.280   .     D
N101   Zn115   2.048   .     S
O102   Zn115   1.972   .     S
O102   C117    1.291   .     S
O103   S114    1.495   .     D
O104   S114    1.503   .     D
O105   S114    1.683   .     S
O106   Zn116   1.989   .     S
O107   Zn115   1.969   .     S
O107   C120    1.315   .     S
O108   Zn116   1.978   .     S
O109   Zn115   1.989   .     S
O110   Zn116   1.972   .     S
O111   Zn115   1.978   .     S
O112   Zn116   1.969   .     S
C117   O164    1.302   .     A
C117   C119    1.411   .     S
C118   C120    1.449   .     S
C118   C133    1.424   .     A
C118   C126    1.408   .     A
C119   C237    1.336   .     S
C119   H315    1.084   .     S
C120   O166    1.297   .     A
C121   C122    1.412   .     S
C121   C351    1.336   1_645 S
C121   H488    1.086   1_545 S
C122   O167    1.301   .     A
C122   O52     1.292   1_655 S
C123   O169    1.325   .     A
C123   C125    1.461   .     S
C123   O54     1.289   1_655 S
C124   C139    1.406   .     A
C124   C657    1.405   1_554 S
C124   H674    1.081   1_554 S
C125   C138    1.383   .     A
C125   C139    1.428   .     A
C126   C127    1.387   .     A
C127   C129    1.387   .     A
C127   H156    1.082   .     S
C128   C133    1.400   .     A
C128   C129    1.399   .     A
C128   C656    1.390   .     S
C129   H677    1.083   .     S
C130   O171    1.431   .     S
C130   H142    1.104   .     S
C130   H143    1.113   .     S
C130   C131    1.520   .     S
C131   H144    1.072   .     S
C131   H145    1.111   .     S
C131   C132    1.526   .     S
C132   H148    1.111   .     S
C132   H147    1.108   .     S
C132   H146    1.107   .     S
C133   C137    1.426   .     A
C134   C138    1.389   .     A
C134   C650    1.390   1_554 S
C134   C657    1.404   1_554 S
C135   C136    1.396   .     A
C135   C646    1.405   .     S
C135   C656    1.404   .     S
C136   C137    1.404   .     A
C136   H151    1.083   .     S
C137   H157    1.081   .     S
C138   H153    1.073   .     S
C139   O55     1.406   1_655 S
H140   C295    1.086   .     S
H141   C467    1.084   1_545 S
H149   O163    0.987   .     S
H150   N159    1.029   .     S
H152   C646    1.081   .     S
H154   C10     1.084   1_655 S
H155   C651    1.083   1_554 S
N158   S172    1.721   .     S
N158   Zn174   2.048   .     S
N158   N159    1.280   .     D
N159   Zn173   2.048   .     S
O160   Zn173   1.972   .     S
O160   C1      1.291   1_655 S
O161   S172    1.495   .     D
O162   S172    1.503   .     D
O163   S172    1.683   .     S
O164   Zn174   1.989   .     S
O165   Zn173   1.969   .     S
O165   C4      1.315   1_655 S
O166   Zn174   1.978   .     S
O167   Zn173   1.989   .     S
O168   Zn174   1.972   .     S
O169   Zn173   1.978   .     S
O170   Zn174   1.969   .     S
C175   O222    1.302   .     A
C175   C177    1.411   .     S
C175   O334    1.291   1_455 S
C176   C178    1.449   .     S
C176   C191    1.424   .     A
C176   C184    1.408   .     A
C177   C469    1.336   1_455 S
C177   H373    1.084   .     S
C178   O224    1.297   .     A
C178   O339    1.315   1_455 S
C179   C180    1.412   .     S
C180   O225    1.301   .     A
C180   O284    1.292   .     S
C181   O227    1.325   .     A
C181   C183    1.461   .     S
C181   O286    1.289   .     S
C182   C197    1.406   .     A
C182   C715    1.405   1_554 S
C182   H732    1.081   1_554 S
C183   C196    1.383   .     A
C183   C197    1.428   .     A
C184   C185    1.387   .     A
C184   H328    1.084   1_455 S
C185   C187    1.387   .     A
C185   H214    1.082   .     S
C186   C191    1.400   .     A
C186   C187    1.399   .     A
C186   C714    1.390   .     S
C187   H735    1.083   .     S
C188   O229    1.431   .     S
C188   H200    1.104   .     S
C188   H201    1.113   .     S
C188   C189    1.520   .     S
C189   H202    1.072   .     S
C189   H203    1.111   .     S
C189   C190    1.526   .     S
C190   H206    1.111   .     S
C190   H205    1.108   .     S
C190   H204    1.107   .     S
C191   C195    1.426   .     A
C192   C196    1.389   .     A
C192   C708    1.390   1_554 S
C192   C715    1.404   1_554 S
C193   C194    1.396   .     A
C193   C704    1.405   .     S
C193   C714    1.404   .     S
C194   C195    1.404   .     A
C194   H209    1.083   .     S
C195   H215    1.081   .     S
C196   H211    1.073   .     S
C197   O287    1.406   .     S
H198   C353    1.086   .     S
H207   O221    0.987   .     S
H208   N217    1.029   .     S
H210   C704    1.081   .     S
H212   C242    1.084   .     S
H213   C709    1.083   1_554 S
N216   S230    1.721   .     S
N216   Zn232   2.048   .     S
N216   N217    1.280   .     D
N217   Zn231   2.048   .     S
O218   Zn231   1.972   .     S
O218   C233    1.291   .     S
O219   S230    1.495   .     D
O220   S230    1.503   .     D
O221   S230    1.683   .     S
O222   Zn232   1.989   .     S
O223   Zn231   1.969   .     S
O223   C236    1.315   .     S
O224   Zn232   1.978   .     S
O225   Zn231   1.989   .     S
O226   Zn232   1.972   .     S
O226   C296    1.292   1_455 S
O227   Zn231   1.978   .     S
O228   Zn232   1.969   .     S
O228   C297    1.289   1_455 S
O229   C313    1.406   1_455 S
C233   O280    1.302   .     A
C233   C235    1.411   .     S
C234   C236    1.449   .     S
C234   C249    1.424   .     A
C234   C242    1.408   .     A
C235   C353    1.336   .     S
C235   H431    1.084   .     S
C236   O282    1.297   .     A
C237   C238    1.412   .     S
C238   O283    1.301   .     A
C238   O342    1.292   .     S
C239   O285    1.325   .     A
C239   C241    1.461   .     S
C239   O344    1.289   .     S
C240   C255    1.406   .     A
C240   C773    1.405   1_554 S
C240   H790    1.081   1_554 S
C241   C254    1.383   .     A
C241   C255    1.428   .     A
C242   C243    1.387   .     A
C243   C245    1.387   .     A
C243   H272    1.082   .     S
C244   C249    1.400   .     A
C244   C245    1.399   .     A
C244   C772    1.390   .     S
C245   H793    1.083   .     S
C246   O287    1.431   .     S
C246   H258    1.104   .     S
C246   H259    1.113   .     S
C246   C247    1.520   .     S
C247   H260    1.072   .     S
C247   H261    1.111   .     S
C247   C248    1.526   .     S
C248   H264    1.111   .     S
C248   H263    1.108   .     S
C248   H262    1.107   .     S
C249   C253    1.426   .     A
C250   C254    1.389   .     A
C250   C766    1.390   1_554 S
C250   C773    1.404   1_554 S
C251   C252    1.396   .     A
C251   C762    1.405   .     S
C251   C772    1.404   .     S
C252   C253    1.404   .     A
C252   H267    1.083   .     S
C253   H273    1.081   .     S
C254   H269    1.073   .     S
C255   O345    1.406   .     S
H256   C411    1.086   .     S
H265   O279    0.987   .     S
H266   N275    1.029   .     S
H268   C762    1.081   .     S
H270   C300    1.084   .     S
H271   C767    1.083   1_554 S
N274   S288    1.721   .     S
N274   Zn290   2.048   .     S
N274   N275    1.280   .     D
N275   Zn289   2.048   .     S
O276   Zn289   1.972   .     S
O276   C291    1.291   .     S
O277   S288    1.495   .     D
O278   S288    1.503   .     D
O279   S288    1.683   .     S
O280   Zn290   1.989   .     S
O281   Zn289   1.969   .     S
O281   C294    1.315   .     S
O282   Zn290   1.978   .     S
O283   Zn289   1.989   .     S
O284   Zn290   1.972   .     S
O285   Zn289   1.978   .     S
O286   Zn290   1.969   .     S
C291   O338    1.302   .     A
C291   C293    1.411   .     S
C292   C294    1.449   .     S
C292   C307    1.424   .     A
C292   C300    1.408   .     A
C293   C411    1.336   .     S
C293   H489    1.084   .     S
C294   O340    1.297   .     A
C295   C296    1.412   .     S
C295   C3      1.336   1_655 S
C296   O341    1.301   .     A
C296   O226    1.292   1_655 S
C297   O343    1.325   .     A
C297   C299    1.461   .     S
C297   O228    1.289   1_655 S
C298   C313    1.406   .     A
C298   C831    1.405   1_554 S
C298   H848    1.081   1_554 S
C299   C312    1.383   .     A
C299   C313    1.428   .     A
C300   C301    1.387   .     A
C301   C303    1.387   .     A
C301   H330    1.082   .     S
C302   C307    1.400   .     A
C302   C303    1.399   .     A
C302   C830    1.390   .     S
C303   H851    1.083   .     S
C304   O345    1.431   .     S
C304   H316    1.104   .     S
C304   H317    1.113   .     S
C304   C305    1.520   .     S
C305   H318    1.072   .     S
C305   H319    1.111   .     S
C305   C306    1.526   .     S
C306   H322    1.111   .     S
C306   H321    1.108   .     S
C306   H320    1.107   .     S
C307   C311    1.426   .     A
C308   C312    1.389   .     A
C308   C824    1.390   1_554 S
C308   C831    1.404   1_554 S
C309   C310    1.396   .     A
C309   C820    1.405   .     S
C309   C830    1.404   .     S
C310   C311    1.404   .     A
C310   H325    1.083   .     S
C311   H331    1.081   .     S
C312   H327    1.073   .     S
C313   O229    1.406   1_655 S
H314   C469    1.086   .     S
H323   O337    0.987   .     S
H324   N333    1.029   .     S
H326   C820    1.081   .     S
H328   C184    1.084   1_655 S
H329   C825    1.083   1_554 S
N332   S346    1.721   .     S
N332   Zn348   2.048   .     S
N332   N333    1.280   .     D
N333   Zn347   2.048   .     S
O334   Zn347   1.972   .     S
O334   C175    1.291   1_655 S
O335   S346    1.495   .     D
O336   S346    1.503   .     D
O337   S346    1.683   .     S
O338   Zn348   1.989   .     S
O339   Zn347   1.969   .     S
O339   C178    1.315   1_655 S
O340   Zn348   1.978   .     S
O341   Zn347   1.989   .     S
O342   Zn348   1.972   .     S
O343   Zn347   1.978   .     S
O344   Zn348   1.969   .     S
C349   O396    1.302   .     A
C349   C351    1.411   .     S
C349   O508    1.291   1_455 S
C350   C352    1.449   .     S
C350   C365    1.424   .     A
C350   C358    1.408   .     A
C351   C121    1.336   1_465 S
C351   H25     1.084   1_565 S
C352   O398    1.297   .     A
C352   O513    1.315   1_455 S
C353   C354    1.412   .     S
C354   O399    1.301   .     A
C354   O458    1.292   .     S
C355   O401    1.325   .     A
C355   C357    1.461   .     S
C355   O460    1.289   .     S
C356   C371    1.406   .     A
C356   C889    1.405   1_554 S
C356   H906    1.081   1_554 S
C357   C370    1.383   .     A
C357   C371    1.428   .     A
C358   C359    1.387   .     A
C358   H502    1.084   1_455 S
C359   C361    1.387   .     A
C359   H388    1.082   .     S
C360   C365    1.400   .     A
C360   C361    1.399   .     A
C360   C888    1.390   .     S
C361   H909    1.083   .     S
C362   O403    1.431   .     S
C362   H374    1.104   .     S
C362   H375    1.113   .     S
C362   C363    1.520   .     S
C363   H376    1.072   .     S
C363   H377    1.111   .     S
C363   C364    1.526   .     S
C364   H380    1.111   .     S
C364   H379    1.108   .     S
C364   H378    1.107   .     S
C365   C369    1.426   .     A
C366   C370    1.389   .     A
C366   C882    1.390   1_554 S
C366   C889    1.404   1_554 S
C367   C368    1.396   .     A
C367   C878    1.405   .     S
C367   C888    1.404   .     S
C368   C369    1.404   .     A
C368   H383    1.083   .     S
C369   H389    1.081   .     S
C370   H385    1.073   .     S
C371   O461    1.406   .     S
H372   C5      1.086   1_565 S
H381   O395    0.987   .     S
H382   N391    1.029   .     S
H384   C878    1.081   .     S
H386   C416    1.084   .     S
H387   C883    1.083   1_554 S
N390   S404    1.721   .     S
N390   Zn406   2.048   .     S
N390   N391    1.280   .     D
N391   Zn405   2.048   .     S
O392   Zn405   1.972   .     S
O392   C407    1.291   .     S
O393   S404    1.495   .     D
O394   S404    1.503   .     D
O395   S404    1.683   .     S
O396   Zn406   1.989   .     S
O397   Zn405   1.969   .     S
O397   C410    1.315   .     S
O398   Zn406   1.978   .     S
O399   Zn405   1.989   .     S
O400   Zn406   1.972   .     S
O400   C470    1.292   1_455 S
O401   Zn405   1.978   .     S
O402   Zn406   1.969   .     S
O402   C471    1.289   1_455 S
O403   C487    1.406   1_455 S
C407   O454    1.302   .     A
C407   C409    1.411   .     S
C408   C410    1.449   .     S
C408   C423    1.424   .     A
C408   C416    1.408   .     A
C409   C5      1.336   1_565 S
C409   H83     1.084   1_565 S
C410   O456    1.297   .     A
C411   C412    1.412   .     S
C412   O457    1.301   .     A
C412   O516    1.292   .     S
C413   O459    1.325   .     A
C413   C415    1.461   .     S
C413   O518    1.289   .     S
C414   C429    1.406   .     A
C414   C947    1.405   1_554 S
C414   H964    1.081   1_554 S
C415   C428    1.383   .     A
C415   C429    1.428   .     A
C416   C417    1.387   .     A
C417   C419    1.387   .     A
C417   H446    1.082   .     S
C418   C423    1.400   .     A
C418   C419    1.399   .     A
C418   C946    1.390   .     S
C419   H967    1.083   .     S
C420   O461    1.431   .     S
C420   H432    1.104   .     S
C420   H433    1.113   .     S
C420   C421    1.520   .     S
C421   H434    1.072   .     S
C421   H435    1.111   .     S
C421   C422    1.526   .     S
C422   H438    1.111   .     S
C422   H437    1.108   .     S
C422   H436    1.107   .     S
C423   C427    1.426   .     A
C424   C428    1.389   .     A
C424   C940    1.390   1_554 S
C424   C947    1.404   1_554 S
C425   C426    1.396   .     A
C425   C936    1.405   .     S
C425   C946    1.404   .     S
C426   C427    1.404   .     A
C426   H441    1.083   .     S
C427   H447    1.081   .     S
C428   H443    1.073   .     S
C429   O519    1.406   .     S
H430   C63     1.086   1_565 S
H439   O453    0.987   .     S
H440   N449    1.029   .     S
H442   C936    1.081   .     S
H444   C474    1.084   .     S
H445   C941    1.083   1_554 S
N448   S462    1.721   .     S
N448   Zn464   2.048   .     S
N448   N449    1.280   .     D
N449   Zn463   2.048   .     S
O450   Zn463   1.972   .     S
O450   C465    1.291   .     S
O451   S462    1.495   .     D
O452   S462    1.503   .     D
O453   S462    1.683   .     S
O454   Zn464   1.989   .     S
O455   Zn463   1.969   .     S
O455   C468    1.315   .     S
O456   Zn464   1.978   .     S
O457   Zn463   1.989   .     S
O458   Zn464   1.972   .     S
O459   Zn463   1.978   .     S
O460   Zn464   1.969   .     S
C465   O512    1.302   .     A
C465   C467    1.411   .     S
C466   C468    1.449   .     S
C466   C481    1.424   .     A
C466   C474    1.408   .     A
C467   C63     1.336   1_565 S
C467   H141    1.084   1_565 S
C468   O514    1.297   .     A
C469   C470    1.412   .     S
C469   C177    1.336   1_655 S
C470   O515    1.301   .     A
C470   O400    1.292   1_655 S
C471   O517    1.325   .     A
C471   C473    1.461   .     S
C471   O402    1.289   1_655 S
C472   C487    1.406   .     A
C472   C1005   1.405   1_554 S
C472   H1022   1.081   1_554 S
C473   C486    1.383   .     A
C473   C487    1.428   .     A
C474   C475    1.387   .     A
C475   C477    1.387   .     A
C475   H504    1.082   .     S
C476   C481    1.400   .     A
C476   C477    1.399   .     A
C476   C1004   1.390   .     S
C477   H1025   1.083   .     S
C478   O519    1.431   .     S
C478   H490    1.104   .     S
C478   H491    1.113   .     S
C478   C479    1.520   .     S
C479   H492    1.072   .     S
C479   H493    1.111   .     S
C479   C480    1.526   .     S
C480   H496    1.111   .     S
C480   H495    1.108   .     S
C480   H494    1.107   .     S
C481   C485    1.426   .     A
C482   C486    1.389   .     A
C482   C998    1.390   1_554 S
C482   C1005   1.404   1_554 S
C483   C484    1.396   .     A
C483   C994    1.405   .     S
C483   C1004   1.404   .     S
C484   C485    1.404   .     A
C484   H499    1.083   .     S
C485   H505    1.081   .     S
C486   H501    1.073   .     S
C487   O403    1.406   1_655 S
H488   C121    1.086   1_565 S
H497   O511    0.987   .     S
H498   N507    1.029   .     S
H500   C994    1.081   .     S
H502   C358    1.084   1_655 S
H503   C999    1.083   1_554 S
N506   S520    1.721   .     S
N506   Zn522   2.048   .     S
N506   N507    1.280   .     D
N507   Zn521   2.048   .     S
O508   Zn521   1.972   .     S
O508   C349    1.291   1_655 S
O509   S520    1.495   .     D
O510   S520    1.503   .     D
O511   S520    1.683   .     S
O512   Zn522   1.989   .     S
O513   Zn521   1.969   .     S
O513   C352    1.315   1_655 S
O514   Zn522   1.978   .     S
O515   Zn521   1.989   .     S
O516   Zn522   1.972   .     S
O517   Zn521   1.978   .     S
O518   Zn522   1.969   .     S
C523   O570    1.302   .     A
C523   C525    1.411   .     S
C523   O682    1.291   1_455 S
C524   C526    1.449   .     S
C524   C539    1.424   .     A
C524   C532    1.408   .     A
C525   C817    1.336   1_455 S
C525   H721    1.084   .     S
C526   O572    1.297   .     A
C526   O687    1.315   1_455 S
C527   C528    1.412   .     S
C527   C931    1.336   1_545 S
C527   H894    1.086   1_545 S
C528   O573    1.301   .     A
C528   O632    1.292   .     S
C529   O575    1.325   .     A
C529   C531    1.461   .     S
C529   O634    1.289   .     S
C530   C545    1.406   .     A
C531   C544    1.383   .     A
C531   C545    1.428   .     A
C532   C533    1.387   .     A
C532   H676    1.084   1_455 S
C533   C535    1.387   .     A
C533   H562    1.082   .     S
C534   C539    1.400   .     A
C534   C535    1.399   .     A
C534   C18     1.390   1_556 S
C535   H39     1.083   1_556 S
C536   O577    1.431   .     S
C536   H548    1.104   .     S
C536   H549    1.113   .     S
C536   C537    1.520   .     S
C537   H550    1.072   .     S
C537   H551    1.111   .     S
C537   C538    1.526   .     S
C538   H554    1.111   .     S
C538   H553    1.108   .     S
C538   H552    1.107   .     S
C539   C543    1.426   .     A
C540   C544    1.389   .     A
C541   C542    1.396   .     A
C541   C8      1.405   1_556 S
C541   C18     1.404   1_556 S
C542   C543    1.404   .     A
C542   H557    1.083   .     S
C543   H563    1.081   .     S
C544   H559    1.073   .     S
C545   O635    1.406   .     S
H546   C701    1.086   .     S
H547   C873    1.084   1_545 S
H555   O569    0.987   .     S
H556   N565    1.029   .     S
H558   C8      1.081   1_556 S
H560   C590    1.084   .     S
N564   S578    1.721   .     S
N564   Zn580   2.048   .     S
N564   N565    1.280   .     D
N565   Zn579   2.048   .     S
O566   Zn579   1.972   .     S
O566   C581    1.291   .     S
O567   S578    1.495   .     D
O568   S578    1.503   .     D
O569   S578    1.683   .     S
O570   Zn580   1.989   .     S
O571   Zn579   1.969   .     S
O571   C584    1.315   .     S
O572   Zn580   1.978   .     S
O573   Zn579   1.989   .     S
O574   Zn580   1.972   .     S
O574   C644    1.292   1_455 S
O575   Zn579   1.978   .     S
O576   Zn580   1.969   .     S
O576   C645    1.289   1_455 S
O577   C661    1.406   1_455 S
C581   O628    1.302   .     A
C581   C583    1.411   .     S
C582   C584    1.449   .     S
C582   C597    1.424   .     A
C582   C590    1.408   .     A
C583   C701    1.336   .     S
C583   H779    1.084   .     S
C584   O630    1.297   .     A
C585   C586    1.412   .     S
C585   C989    1.336   1_545 S
C585   H952    1.086   1_545 S
C586   O631    1.301   .     A
C586   O690    1.292   .     S
C587   O633    1.325   .     A
C587   C589    1.461   .     S
C587   O692    1.289   .     S
C588   C603    1.406   .     A
C589   C602    1.383   .     A
C589   C603    1.428   .     A
C590   C591    1.387   .     A
C591   C593    1.387   .     A
C591   H620    1.082   .     S
C592   C597    1.400   .     A
C592   C593    1.399   .     A
C592   C76     1.390   1_556 S
C593   H97     1.083   1_556 S
C594   O635    1.431   .     S
C594   H606    1.104   .     S
C594   H607    1.113   .     S
C594   C595    1.520   .     S
C595   H608    1.072   .     S
C595   H609    1.111   .     S
C595   C596    1.526   .     S
C596   H612    1.111   .     S
C596   H611    1.108   .     S
C596   H610    1.107   .     S
C597   C601    1.426   .     A
C598   C602    1.389   .     A
C599   C600    1.396   .     A
C599   C66     1.405   1_556 S
C599   C76     1.404   1_556 S
C600   C601    1.404   .     A
C600   H615    1.083   .     S
C601   H621    1.081   .     S
C602   H617    1.073   .     S
C603   O693    1.406   .     S
H604   C759    1.086   .     S
H605   C931    1.084   1_545 S
H613   O627    0.987   .     S
H614   N623    1.029   .     S
H616   C66     1.081   1_556 S
H618   C648    1.084   .     S
N622   S636    1.721   .     S
N622   Zn638   2.048   .     S
N622   N623    1.280   .     D
N623   Zn637   2.048   .     S
O624   Zn637   1.972   .     S
O624   C639    1.291   .     S
O625   S636    1.495   .     D
O626   S636    1.503   .     D
O627   S636    1.683   .     S
O628   Zn638   1.989   .     S
O629   Zn637   1.969   .     S
O629   C642    1.315   .     S
O630   Zn638   1.978   .     S
O631   Zn637   1.989   .     S
O632   Zn638   1.972   .     S
O633   Zn637   1.978   .     S
O634   Zn638   1.969   .     S
C639   O686    1.302   .     A
C639   C641    1.411   .     S
C640   C642    1.449   .     S
C640   C655    1.424   .     A
C640   C648    1.408   .     A
C641   C759    1.336   .     S
C641   H837    1.084   .     S
C642   O688    1.297   .     A
C643   C644    1.412   .     S
C643   C873    1.336   1_645 S
C643   H1010   1.086   1_545 S
C644   O689    1.301   .     A
C644   O574    1.292   1_655 S
C645   O691    1.325   .     A
C645   C647    1.461   .     S
C645   O576    1.289   1_655 S
C646   C661    1.406   .     A
C647   C660    1.383   .     A
C647   C661    1.428   .     A
C648   C649    1.387   .     A
C649   C651    1.387   .     A
C649   H678    1.082   .     S
C650   C655    1.400   .     A
C650   C651    1.399   .     A
C650   C134    1.390   1_556 S
C651   H155    1.083   1_556 S
C652   O693    1.431   .     S
C652   H664    1.104   .     S
C652   H665    1.113   .     S
C652   C653    1.520   .     S
C653   H666    1.072   .     S
C653   H667    1.111   .     S
C653   C654    1.526   .     S
C654   H670    1.111   .     S
C654   H669    1.108   .     S
C654   H668    1.107   .     S
C655   C659    1.426   .     A
C656   C660    1.389   .     A
C657   C658    1.396   .     A
C657   C124    1.405   1_556 S
C657   C134    1.404   1_556 S
C658   C659    1.404   .     A
C658   H673    1.083   .     S
C659   H679    1.081   .     S
C660   H675    1.073   .     S
C661   O577    1.406   1_655 S
H662   C817    1.086   .     S
H663   C989    1.084   1_545 S
H671   O685    0.987   .     S
H672   N681    1.029   .     S
H674   C124    1.081   1_556 S
H676   C532    1.084   1_655 S
N680   S694    1.721   .     S
N680   Zn696   2.048   .     S
N680   N681    1.280   .     D
N681   Zn695   2.048   .     S
O682   Zn695   1.972   .     S
O682   C523    1.291   1_655 S
O683   S694    1.495   .     D
O684   S694    1.503   .     D
O685   S694    1.683   .     S
O686   Zn696   1.989   .     S
O687   Zn695   1.969   .     S
O687   C526    1.315   1_655 S
O688   Zn696   1.978   .     S
O689   Zn695   1.989   .     S
O690   Zn696   1.972   .     S
O691   Zn695   1.978   .     S
O692   Zn696   1.969   .     S
C697   O744    1.302   .     A
C697   C699    1.411   .     S
C697   O856    1.291   1_455 S
C698   C700    1.449   .     S
C698   C713    1.424   .     A
C698   C706    1.408   .     A
C699   C991    1.336   1_455 S
C699   H895    1.084   .     S
C700   O746    1.297   .     A
C700   O861    1.315   1_455 S
C701   C702    1.412   .     S
C702   O747    1.301   .     A
C702   O806    1.292   .     S
C703   O749    1.325   .     A
C703   C705    1.461   .     S
C703   O808    1.289   .     S
C704   C719    1.406   .     A
C705   C718    1.383   .     A
C705   C719    1.428   .     A
C706   C707    1.387   .     A
C706   H850    1.084   1_455 S
C707   C709    1.387   .     A
C707   H736    1.082   .     S
C708   C713    1.400   .     A
C708   C709    1.399   .     A
C708   C192    1.390   1_556 S
C709   H213    1.083   1_556 S
C710   O751    1.431   .     S
C710   H722    1.104   .     S
C710   H723    1.113   .     S
C710   C711    1.520   .     S
C711   H724    1.072   .     S
C711   H725    1.111   .     S
C711   C712    1.526   .     S
C712   H728    1.111   .     S
C712   H727    1.108   .     S
C712   H726    1.107   .     S
C713   C717    1.426   .     A
C714   C718    1.389   .     A
C715   C716    1.396   .     A
C715   C182    1.405   1_556 S
C715   C192    1.404   1_556 S
C716   C717    1.404   .     A
C716   H731    1.083   .     S
C717   H737    1.081   .     S
C718   H733    1.073   .     S
C719   O809    1.406   .     S
H720   C875    1.086   .     S
H729   O743    0.987   .     S
H730   N739    1.029   .     S
H732   C182    1.081   1_556 S
H734   C764    1.084   .     S
N738   S752    1.721   .     S
N738   Zn754   2.048   .     S
N738   N739    1.280   .     D
N739   Zn753   2.048   .     S
O740   Zn753   1.972   .     S
O740   C755    1.291   .     S
O741   S752    1.495   .     D
O742   S752    1.503   .     D
O743   S752    1.683   .     S
O744   Zn754   1.989   .     S
O745   Zn753   1.969   .     S
O745   C758    1.315   .     S
O746   Zn754   1.978   .     S
O747   Zn753   1.989   .     S
O748   Zn754   1.972   .     S
O748   C818    1.292   1_455 S
O749   Zn753   1.978   .     S
O750   Zn754   1.969   .     S
O750   C819    1.289   1_455 S
O751   C835    1.406   1_455 S
C755   O802    1.302   .     A
C755   C757    1.411   .     S
C756   C758    1.449   .     S
C756   C771    1.424   .     A
C756   C764    1.408   .     A
C757   C875    1.336   .     S
C757   H953    1.084   .     S
C758   O804    1.297   .     A
C759   C760    1.412   .     S
C760   O805    1.301   .     A
C760   O864    1.292   .     S
C761   O807    1.325   .     A
C761   C763    1.461   .     S
C761   O866    1.289   .     S
C762   C777    1.406   .     A
C763   C776    1.383   .     A
C763   C777    1.428   .     A
C764   C765    1.387   .     A
C765   C767    1.387   .     A
C765   H794    1.082   .     S
C766   C771    1.400   .     A
C766   C767    1.399   .     A
C766   C250    1.390   1_556 S
C767   H271    1.083   1_556 S
C768   O809    1.431   .     S
C768   H780    1.104   .     S
C768   H781    1.113   .     S
C768   C769    1.520   .     S
C769   H782    1.072   .     S
C769   H783    1.111   .     S
C769   C770    1.526   .     S
C770   H786    1.111   .     S
C770   H785    1.108   .     S
C770   H784    1.107   .     S
C771   C775    1.426   .     A
C772   C776    1.389   .     A
C773   C774    1.396   .     A
C773   C240    1.405   1_556 S
C773   C250    1.404   1_556 S
C774   C775    1.404   .     A
C774   H789    1.083   .     S
C775   H795    1.081   .     S
C776   H791    1.073   .     S
C777   O867    1.406   .     S
H778   C933    1.086   .     S
H787   O801    0.987   .     S
H788   N797    1.029   .     S
H790   C240    1.081   1_556 S
H792   C822    1.084   .     S
N796   S810    1.721   .     S
N796   Zn812   2.048   .     S
N796   N797    1.280   .     D
N797   Zn811   2.048   .     S
O798   Zn811   1.972   .     S
O798   C813    1.291   .     S
O799   S810    1.495   .     D
O800   S810    1.503   .     D
O801   S810    1.683   .     S
O802   Zn812   1.989   .     S
O803   Zn811   1.969   .     S
O803   C816    1.315   .     S
O804   Zn812   1.978   .     S
O805   Zn811   1.989   .     S
O806   Zn812   1.972   .     S
O807   Zn811   1.978   .     S
O808   Zn812   1.969   .     S
C813   O860    1.302   .     A
C813   C815    1.411   .     S
C814   C816    1.449   .     S
C814   C829    1.424   .     A
C814   C822    1.408   .     A
C815   C933    1.336   .     S
C815   H1011   1.084   .     S
C816   O862    1.297   .     A
C817   C818    1.412   .     S
C817   C525    1.336   1_655 S
C818   O863    1.301   .     A
C818   O748    1.292   1_655 S
C819   O865    1.325   .     A
C819   C821    1.461   .     S
C819   O750    1.289   1_655 S
C820   C835    1.406   .     A
C821   C834    1.383   .     A
C821   C835    1.428   .     A
C822   C823    1.387   .     A
C823   C825    1.387   .     A
C823   H852    1.082   .     S
C824   C829    1.400   .     A
C824   C825    1.399   .     A
C824   C308    1.390   1_556 S
C825   H329    1.083   1_556 S
C826   O867    1.431   .     S
C826   H838    1.104   .     S
C826   H839    1.113   .     S
C826   C827    1.520   .     S
C827   H840    1.072   .     S
C827   H841    1.111   .     S
C827   C828    1.526   .     S
C828   H844    1.111   .     S
C828   H843    1.108   .     S
C828   H842    1.107   .     S
C829   C833    1.426   .     A
C830   C834    1.389   .     A
C831   C832    1.396   .     A
C831   C298    1.405   1_556 S
C831   C308    1.404   1_556 S
C832   C833    1.404   .     A
C832   H847    1.083   .     S
C833   H853    1.081   .     S
C834   H849    1.073   .     S
C835   O751    1.406   1_655 S
H836   C991    1.086   .     S
H845   O859    0.987   .     S
H846   N855    1.029   .     S
H848   C298    1.081   1_556 S
H850   C706    1.084   1_655 S
N854   S868    1.721   .     S
N854   Zn870   2.048   .     S
N854   N855    1.280   .     D
N855   Zn869   2.048   .     S
O856   Zn869   1.972   .     S
O856   C697    1.291   1_655 S
O857   S868    1.495   .     D
O858   S868    1.503   .     D
O859   S868    1.683   .     S
O860   Zn870   1.989   .     S
O861   Zn869   1.969   .     S
O861   C700    1.315   1_655 S
O862   Zn870   1.978   .     S
O863   Zn869   1.989   .     S
O864   Zn870   1.972   .     S
O865   Zn869   1.978   .     S
O866   Zn870   1.969   .     S
C871   O918    1.302   .     A
C871   C873    1.411   .     S
C871   O1030   1.291   1_455 S
C872   C874    1.449   .     S
C872   C887    1.424   .     A
C872   C880    1.408   .     A
C873   C643    1.336   1_465 S
C873   H547    1.084   1_565 S
C874   O920    1.297   .     A
C874   O1035   1.315   1_455 S
C875   C876    1.412   .     S
C876   O921    1.301   .     A
C876   O980    1.292   .     S
C877   O923    1.325   .     A
C877   C879    1.461   .     S
C877   O982    1.289   .     S
C878   C893    1.406   .     A
C879   C892    1.383   .     A
C879   C893    1.428   .     A
C880   C881    1.387   .     A
C880   H1024   1.084   1_455 S
C881   C883    1.387   .     A
C881   H910    1.082   .     S
C882   C887    1.400   .     A
C882   C883    1.399   .     A
C882   C366    1.390   1_556 S
C883   H387    1.083   1_556 S
C884   O925    1.431   .     S
C884   H896    1.104   .     S
C884   H897    1.113   .     S
C884   C885    1.520   .     S
C885   H898    1.072   .     S
C885   H899    1.111   .     S
C885   C886    1.526   .     S
C886   H902    1.111   .     S
C886   H901    1.108   .     S
C886   H900    1.107   .     S
C887   C891    1.426   .     A
C888   C892    1.389   .     A
C889   C890    1.396   .     A
C889   C356    1.405   1_556 S
C889   C366    1.404   1_556 S
C890   C891    1.404   .     A
C890   H905    1.083   .     S
C891   H911    1.081   .     S
C892   H907    1.073   .     S
C893   O983    1.406   .     S
H894   C527    1.086   1_565 S
H903   O917    0.987   .     S
H904   N913    1.029   .     S
H906   C356    1.081   1_556 S
H908   C938    1.084   .     S
N912   S926    1.721   .     S
N912   Zn928   2.048   .     S
N912   N913    1.280   .     D
N913   Zn927   2.048   .     S
O914   Zn927   1.972   .     S
O914   C929    1.291   .     S
O915   S926    1.495   .     D
O916   S926    1.503   .     D
O917   S926    1.683   .     S
O918   Zn928   1.989   .     S
O919   Zn927   1.969   .     S
O919   C932    1.315   .     S
O920   Zn928   1.978   .     S
O921   Zn927   1.989   .     S
O922   Zn928   1.972   .     S
O922   C992    1.292   1_455 S
O923   Zn927   1.978   .     S
O924   Zn928   1.969   .     S
O924   C993    1.289   1_455 S
O925   C1009   1.406   1_455 S
C929   O976    1.302   .     A
C929   C931    1.411   .     S
C930   C932    1.449   .     S
C930   C945    1.424   .     A
C930   C938    1.408   .     A
C931   C527    1.336   1_565 S
C931   H605    1.084   1_565 S
C932   O978    1.297   .     A
C933   C934    1.412   .     S
C934   O979    1.301   .     A
C934   O1038   1.292   .     S
C935   O981    1.325   .     A
C935   C937    1.461   .     S
C935   O1040   1.289   .     S
C936   C951    1.406   .     A
C937   C950    1.383   .     A
C937   C951    1.428   .     A
C938   C939    1.387   .     A
C939   C941    1.387   .     A
C939   H968    1.082   .     S
C940   C945    1.400   .     A
C940   C941    1.399   .     A
C940   C424    1.390   1_556 S
C941   H445    1.083   1_556 S
C942   O983    1.431   .     S
C942   H954    1.104   .     S
C942   H955    1.113   .     S
C942   C943    1.520   .     S
C943   H956    1.072   .     S
C943   H957    1.111   .     S
C943   C944    1.526   .     S
C944   H960    1.111   .     S
C944   H959    1.108   .     S
C944   H958    1.107   .     S
C945   C949    1.426   .     A
C946   C950    1.389   .     A
C947   C948    1.396   .     A
C947   C414    1.405   1_556 S
C947   C424    1.404   1_556 S
C948   C949    1.404   .     A
C948   H963    1.083   .     S
C949   H969    1.081   .     S
C950   H965    1.073   .     S
C951   O1041   1.406   .     S
H952   C585    1.086   1_565 S
H961   O975    0.987   .     S
H962   N971    1.029   .     S
H964   C414    1.081   1_556 S
H966   C996    1.084   .     S
N970   S984    1.721   .     S
N970   Zn986   2.048   .     S
N970   N971    1.280   .     D
N971   Zn985   2.048   .     S
O972   Zn985   1.972   .     S
O972   C987    1.291   .     S
O973   S984    1.495   .     D
O974   S984    1.503   .     D
O975   S984    1.683   .     S
O976   Zn986   1.989   .     S
O977   Zn985   1.969   .     S
O977   C990    1.315   .     S
O978   Zn986   1.978   .     S
O979   Zn985   1.989   .     S
O980   Zn986   1.972   .     S
O981   Zn985   1.978   .     S
O982   Zn986   1.969   .     S
C987   O1034   1.302   .     A
C987   C989    1.411   .     S
C988   C990    1.449   .     S
C988   C1003   1.424   .     A
C988   C996    1.408   .     A
C989   C585    1.336   1_565 S
C989   H663    1.084   1_565 S
C990   O1036   1.297   .     A
C991   C992    1.412   .     S
C991   C699    1.336   1_655 S
C992   O1037   1.301   .     A
C992   O922    1.292   1_655 S
C993   O1039   1.325   .     A
C993   C995    1.461   .     S
C993   O924    1.289   1_655 S
C994   C1009   1.406   .     A
C995   C1008   1.383   .     A
C995   C1009   1.428   .     A
C996   C997    1.387   .     A
C997   C999    1.387   .     A
C997   H1026   1.082   .     S
C998   C1003   1.400   .     A
C998   C999    1.399   .     A
C998   C482    1.390   1_556 S
C999   H503    1.083   1_556 S
C1000  O1041   1.431   .     S
C1000  H1012   1.104   .     S
C1000  H1013   1.113   .     S
C1000  C1001   1.520   .     S
C1001  H1014   1.072   .     S
C1001  H1015   1.111   .     S
C1001  C1002   1.526   .     S
C1002  H1018   1.111   .     S
C1002  H1017   1.108   .     S
C1002  H1016   1.107   .     S
C1003  C1007   1.426   .     A
C1004  C1008   1.389   .     A
C1005  C1006   1.396   .     A
C1005  C472    1.405   1_556 S
C1005  C482    1.404   1_556 S
C1006  C1007   1.404   .     A
C1006  H1021   1.083   .     S
C1007  H1027   1.081   .     S
C1008  H1023   1.073   .     S
C1009  O925    1.406   1_655 S
H1010  C643    1.086   1_565 S
H1019  O1033   0.987   .     S
H1020  N1029   1.029   .     S
H1022  C472    1.081   1_556 S
H1024  C880    1.084   1_655 S
N1028  S1042   1.721   .     S
N1028  Zn1044  2.048   .     S
N1028  N1029   1.280   .     D
N1029  Zn1043  2.048   .     S
O1030  Zn1043  1.972   .     S
O1030  C871    1.291   1_655 S
O1031  S1042   1.495   .     D
O1032  S1042   1.503   .     D
O1033  S1042   1.683   .     S
O1034  Zn1044  1.989   .     S
O1035  Zn1043  1.969   .     S
O1035  C874    1.315   1_655 S
O1036  Zn1044  1.978   .     S
O1037  Zn1043  1.989   .     S
O1038  Zn1044  1.972   .     S
O1039  Zn1043  1.978   .     S
O1040  Zn1044  1.969   .     S
