data_str_m3_o1_o17_pcu_sym.19
_audit_creation_date              2020-01-03
_audit_creation_method            'Materials Studio'
_symmetry_space_group_name_H-M    'P1'
_symmetry_Int_Tables_number       1
_symmetry_cell_setting            triclinic
loop_
_symmetry_equiv_pos_as_xyz
  x,y,z
_cell_length_a                    32.5533
_cell_length_b                    29.5985
_cell_length_c                    29.8475
_cell_angle_alpha                 90.0187
_cell_angle_beta                  91.8539
_cell_angle_gamma                 90.0348
loop_
_atom_site_label
_atom_site_type_symbol
_atom_site_fract_x
_atom_site_fract_y
_atom_site_fract_z
_atom_site_U_iso_or_equiv
_atom_site_adp_type
_atom_site_occupancy
C1     C     0.08674   0.16665   0.25338   0.00000  Uiso   1.00
C2     C     0.04239   0.16661   0.25650   0.00000  Uiso   1.00
C3     C     0.19151   0.02402   0.27957   0.00000  Uiso   1.00
C4     C     0.14179   0.30937   0.22047   0.00000  Uiso   1.00
C5     C     0.14183   0.02396   0.22043   0.00000  Uiso   1.00
C6     C     0.19152   0.30943   0.27954   0.00000  Uiso   1.00
C7     C     0.16611   0.16665   0.16365   0.00000  Uiso   1.00
C8     C     0.16723   0.16667   0.33635   0.00000  Uiso   1.00
C9     C     0.20518   0.17027   0.40770   0.00000  Uiso   1.00
C10    C     0.12814   0.17018   0.09231   0.00000  Uiso   1.00
C11    C     0.16763   0.16689   0.38401   0.00000  Uiso   1.00
C12    C     0.24660   0.16668   0.24665   0.00000  Uiso   1.00
C13    C     0.16570   0.16684   0.11599   0.00000  Uiso   1.00
C14    C     0.13012   0.16586   0.40495   0.00000  Uiso   1.00
C15    C     0.20320   0.16584   0.09504   0.00000  Uiso   1.00
C16    C     0.12952   0.17245   0.45119   0.00000  Uiso   1.00
C17    C     0.20381   0.17245   0.04881   0.00000  Uiso   1.00
C18    C     0.16710   0.17132   0.47647   0.00000  Uiso   1.00
C19    C     0.16623   0.17131   0.02353   0.00000  Uiso   1.00
C20    C     0.20543   0.16945   0.45483   0.00000  Uiso   1.00
C21    C     0.12789   0.16939   0.04517   0.00000  Uiso   1.00
C22    C     0.09242   0.17790   0.47314   0.00000  Uiso   1.00
C23    C     0.09110   0.16917   0.01872   0.00000  Uiso   1.00
C24    C     0.24092   0.17793   0.02686   0.00000  Uiso   1.00
C25    C     0.24222   0.16923   0.48127   0.00000  Uiso   1.00
C26    C     0.02083   0.12519   0.25489   0.00000  Uiso   1.00
C27    C     0.31253   0.20809   0.24518   0.00000  Uiso   1.00
C28    C     0.31245   0.12525   0.24480   0.00000  Uiso   1.00
C29    C     0.02088   0.20803   0.25537   0.00000  Uiso   1.00
C30    C     0.29096   0.16669   0.24359   0.00000  Uiso   1.00
Cl31   Cl    0.24997   0.17981   0.37645   0.00000  Uiso   1.00
Cl32   Cl    0.04381   0.26054   0.27101   0.00000  Uiso   1.00
Cl33   Cl    0.22382   0.05323   0.31811   0.00000  Uiso   1.00
Cl34   Cl    0.10932   0.28031   0.18209   0.00000  Uiso   1.00
Cl35   Cl    0.10959   0.05311   0.18181   0.00000  Uiso   1.00
Cl36   Cl    0.22390   0.28044   0.31803   0.00000  Uiso   1.00
Cl37   Cl    0.08332   0.17952   0.12358   0.00000  Uiso   1.00
Cl38   Cl    0.08560   0.14899   0.37314   0.00000  Uiso   1.00
Cl39   Cl    0.24770   0.14890   0.12683   0.00000  Uiso   1.00
Cl40   Cl    0.04407   0.14798   0.03755   0.00000  Uiso   1.00
Cl41   Cl    0.28925   0.14810   0.46239   0.00000  Uiso   1.00
Cl42   Cl    0.04369   0.07247   0.26980   0.00000  Uiso   1.00
Cl43   Cl    0.28972   0.26078   0.23009   0.00000  Uiso   1.00
Cl44   Cl    0.28949   0.07268   0.22938   0.00000  Uiso   1.00
I45    I     0.04273   0.21672   0.44446   0.00000  Uiso   1.00
I46    I     0.29070   0.21664   0.05561   0.00000  Uiso   1.00
N47    N     0.16667   0.28573   0.25000   0.00000  Uiso   1.00
N48    N     0.16667   0.04760   0.25000   0.00000  Uiso   1.00
O49    O     0.10559   0.20487   0.24999   0.00000  Uiso   1.00
O50    O     0.22774   0.12846   0.25001   0.00000  Uiso   1.00
O51    O     0.22774   0.20487   0.25000   0.00000  Uiso   1.00
O52    O     0.10559   0.12846   0.25000   0.00000  Uiso   1.00
O53    O     0.16666   0.20489   0.18392   0.00000  Uiso   1.00
O54    O     0.16667   0.12844   0.31608   0.00000  Uiso   1.00
O55    O     0.16667   0.20489   0.31607   0.00000  Uiso   1.00
O56    O     0.16666   0.12844   0.18392   0.00000  Uiso   1.00
Zn57   Zn    0.16667   0.21771   0.25000   0.00000  Uiso   1.00
Zn58   Zn    0.16667   0.11563   0.25000   0.00000  Uiso   1.00
C59    C     0.42008   0.16665   0.25338   0.00000  Uiso   1.00
C60    C     0.37572   0.16661   0.25650   0.00000  Uiso   1.00
C61    C     0.52484   0.02402   0.27957   0.00000  Uiso   1.00
C62    C     0.47513   0.30937   0.22047   0.00000  Uiso   1.00
C63    C     0.47516   0.02396   0.22043   0.00000  Uiso   1.00
C64    C     0.52486   0.30943   0.27954   0.00000  Uiso   1.00
C65    C     0.49944   0.16665   0.16365   0.00000  Uiso   1.00
C66    C     0.50056   0.16667   0.33635   0.00000  Uiso   1.00
C67    C     0.53852   0.17027   0.40770   0.00000  Uiso   1.00
C68    C     0.46148   0.17018   0.09231   0.00000  Uiso   1.00
C69    C     0.50096   0.16689   0.38401   0.00000  Uiso   1.00
C70    C     0.57993   0.16668   0.24665   0.00000  Uiso   1.00
C71    C     0.49904   0.16684   0.11599   0.00000  Uiso   1.00
C72    C     0.46346   0.16586   0.40495   0.00000  Uiso   1.00
C73    C     0.53654   0.16584   0.09504   0.00000  Uiso   1.00
C74    C     0.46286   0.17245   0.45119   0.00000  Uiso   1.00
C75    C     0.53714   0.17245   0.04881   0.00000  Uiso   1.00
C76    C     0.50043   0.17132   0.47647   0.00000  Uiso   1.00
C77    C     0.49956   0.17131   0.02353   0.00000  Uiso   1.00
C78    C     0.53877   0.16945   0.45483   0.00000  Uiso   1.00
C79    C     0.46122   0.16939   0.04517   0.00000  Uiso   1.00
C80    C     0.42575   0.17790   0.47314   0.00000  Uiso   1.00
C81    C     0.42444   0.16917   0.01872   0.00000  Uiso   1.00
C82    C     0.57425   0.17793   0.02686   0.00000  Uiso   1.00
C83    C     0.57555   0.16923   0.48127   0.00000  Uiso   1.00
C84    C     0.35416   0.12519   0.25489   0.00000  Uiso   1.00
C85    C     0.64586   0.20809   0.24518   0.00000  Uiso   1.00
C86    C     0.64579   0.12525   0.24480   0.00000  Uiso   1.00
C87    C     0.35422   0.20803   0.25537   0.00000  Uiso   1.00
C88    C     0.62429   0.16669   0.24359   0.00000  Uiso   1.00
Cl89   Cl    0.58331   0.17981   0.37645   0.00000  Uiso   1.00
Cl90   Cl    0.37715   0.26054   0.27101   0.00000  Uiso   1.00
Cl91   Cl    0.55716   0.05323   0.31811   0.00000  Uiso   1.00
Cl92   Cl    0.44266   0.28031   0.18209   0.00000  Uiso   1.00
Cl93   Cl    0.44293   0.05311   0.18181   0.00000  Uiso   1.00
Cl94   Cl    0.55723   0.28044   0.31803   0.00000  Uiso   1.00
Cl95   Cl    0.41666   0.17952   0.12358   0.00000  Uiso   1.00
Cl96   Cl    0.41893   0.14899   0.37314   0.00000  Uiso   1.00
Cl97   Cl    0.58104   0.14890   0.12683   0.00000  Uiso   1.00
Cl98   Cl    0.37740   0.14798   0.03755   0.00000  Uiso   1.00
Cl99   Cl    0.62258   0.14810   0.46239   0.00000  Uiso   1.00
Cl100  Cl    0.37703   0.07247   0.26980   0.00000  Uiso   1.00
Cl101  Cl    0.62305   0.26078   0.23009   0.00000  Uiso   1.00
Cl102  Cl    0.62283   0.07268   0.22938   0.00000  Uiso   1.00
I103   I     0.37606   0.21672   0.44446   0.00000  Uiso   1.00
I104   I     0.62403   0.21664   0.05561   0.00000  Uiso   1.00
N105   N     0.50000   0.28573   0.25000   0.00000  Uiso   1.00
N106   N     0.50000   0.04760   0.25000   0.00000  Uiso   1.00
O107   O     0.43892   0.20487   0.24999   0.00000  Uiso   1.00
O108   O     0.56108   0.12846   0.25001   0.00000  Uiso   1.00
O109   O     0.56108   0.20487   0.25000   0.00000  Uiso   1.00
O110   O     0.43892   0.12846   0.25000   0.00000  Uiso   1.00
O111   O     0.49999   0.20489   0.18392   0.00000  Uiso   1.00
O112   O     0.50001   0.12844   0.31608   0.00000  Uiso   1.00
O113   O     0.50001   0.20489   0.31607   0.00000  Uiso   1.00
O114   O     0.49999   0.12844   0.18392   0.00000  Uiso   1.00
Zn115  Zn    0.50000   0.21771   0.25000   0.00000  Uiso   1.00
Zn116  Zn    0.50000   0.11563   0.25000   0.00000  Uiso   1.00
C117   C     0.75341   0.16665   0.25338   0.00000  Uiso   1.00
C118   C     0.70906   0.16661   0.25650   0.00000  Uiso   1.00
C119   C     0.85818   0.02402   0.27957   0.00000  Uiso   1.00
C120   C     0.80846   0.30937   0.22047   0.00000  Uiso   1.00
C121   C     0.80850   0.02396   0.22043   0.00000  Uiso   1.00
C122   C     0.85819   0.30943   0.27954   0.00000  Uiso   1.00
C123   C     0.83278   0.16665   0.16365   0.00000  Uiso   1.00
C124   C     0.83389   0.16667   0.33635   0.00000  Uiso   1.00
C125   C     0.87185   0.17027   0.40770   0.00000  Uiso   1.00
C126   C     0.79481   0.17018   0.09231   0.00000  Uiso   1.00
C127   C     0.83429   0.16689   0.38401   0.00000  Uiso   1.00
C128   C     0.91326   0.16668   0.24665   0.00000  Uiso   1.00
C129   C     0.83237   0.16684   0.11599   0.00000  Uiso   1.00
C130   C     0.79679   0.16586   0.40495   0.00000  Uiso   1.00
C131   C     0.86987   0.16584   0.09504   0.00000  Uiso   1.00
C132   C     0.79619   0.17245   0.45119   0.00000  Uiso   1.00
C133   C     0.87047   0.17245   0.04881   0.00000  Uiso   1.00
C134   C     0.83376   0.17132   0.47647   0.00000  Uiso   1.00
C135   C     0.83290   0.17131   0.02353   0.00000  Uiso   1.00
C136   C     0.87210   0.16945   0.45483   0.00000  Uiso   1.00
C137   C     0.79456   0.16939   0.04517   0.00000  Uiso   1.00
C138   C     0.75908   0.17790   0.47314   0.00000  Uiso   1.00
C139   C     0.75777   0.16917   0.01872   0.00000  Uiso   1.00
C140   C     0.90759   0.17793   0.02686   0.00000  Uiso   1.00
C141   C     0.90889   0.16923   0.48127   0.00000  Uiso   1.00
C142   C     0.68749   0.12519   0.25489   0.00000  Uiso   1.00
C143   C     0.97919   0.20809   0.24518   0.00000  Uiso   1.00
C144   C     0.97912   0.12525   0.24480   0.00000  Uiso   1.00
C145   C     0.68755   0.20803   0.25537   0.00000  Uiso   1.00
C146   C     0.95762   0.16669   0.24359   0.00000  Uiso   1.00
Cl147  Cl    0.91664   0.17981   0.37645   0.00000  Uiso   1.00
Cl148  Cl    0.71048   0.26054   0.27101   0.00000  Uiso   1.00
Cl149  Cl    0.89049   0.05323   0.31811   0.00000  Uiso   1.00
Cl150  Cl    0.77599   0.28031   0.18209   0.00000  Uiso   1.00
Cl151  Cl    0.77626   0.05311   0.18181   0.00000  Uiso   1.00
Cl152  Cl    0.89056   0.28044   0.31803   0.00000  Uiso   1.00
Cl153  Cl    0.74999   0.17952   0.12358   0.00000  Uiso   1.00
Cl154  Cl    0.75226   0.14899   0.37314   0.00000  Uiso   1.00
Cl155  Cl    0.91437   0.14890   0.12683   0.00000  Uiso   1.00
Cl156  Cl    0.71073   0.14798   0.03755   0.00000  Uiso   1.00
Cl157  Cl    0.95591   0.14810   0.46239   0.00000  Uiso   1.00
Cl158  Cl    0.71036   0.07247   0.26980   0.00000  Uiso   1.00
Cl159  Cl    0.95639   0.26078   0.23009   0.00000  Uiso   1.00
Cl160  Cl    0.95616   0.07268   0.22938   0.00000  Uiso   1.00
I161   I     0.70940   0.21672   0.44446   0.00000  Uiso   1.00
I162   I     0.95736   0.21664   0.05561   0.00000  Uiso   1.00
N163   N     0.83333   0.28573   0.25000   0.00000  Uiso   1.00
N164   N     0.83333   0.04760   0.25000   0.00000  Uiso   1.00
O165   O     0.77226   0.20487   0.24999   0.00000  Uiso   1.00
O166   O     0.89441   0.12846   0.25001   0.00000  Uiso   1.00
O167   O     0.89441   0.20487   0.25000   0.00000  Uiso   1.00
O168   O     0.77226   0.12846   0.25000   0.00000  Uiso   1.00
O169   O     0.83333   0.20489   0.18392   0.00000  Uiso   1.00
O170   O     0.83334   0.12844   0.31608   0.00000  Uiso   1.00
O171   O     0.83334   0.20489   0.31607   0.00000  Uiso   1.00
O172   O     0.83333   0.12844   0.18392   0.00000  Uiso   1.00
Zn173  Zn    0.83333   0.21771   0.25000   0.00000  Uiso   1.00
Zn174  Zn    0.83333   0.11563   0.25000   0.00000  Uiso   1.00
C175   C     0.08674   0.49998   0.25338   0.00000  Uiso   1.00
C176   C     0.04239   0.49994   0.25650   0.00000  Uiso   1.00
C177   C     0.19151   0.35735   0.27957   0.00000  Uiso   1.00
C178   C     0.14179   0.64271   0.22047   0.00000  Uiso   1.00
C179   C     0.14183   0.35730   0.22043   0.00000  Uiso   1.00
C180   C     0.19152   0.64276   0.27954   0.00000  Uiso   1.00
C181   C     0.16611   0.49998   0.16365   0.00000  Uiso   1.00
C182   C     0.16723   0.50000   0.33635   0.00000  Uiso   1.00
C183   C     0.20518   0.50360   0.40770   0.00000  Uiso   1.00
C184   C     0.12814   0.50351   0.09231   0.00000  Uiso   1.00
C185   C     0.16763   0.50022   0.38401   0.00000  Uiso   1.00
C186   C     0.24660   0.50001   0.24665   0.00000  Uiso   1.00
C187   C     0.16570   0.50017   0.11599   0.00000  Uiso   1.00
C188   C     0.13012   0.49920   0.40495   0.00000  Uiso   1.00
C189   C     0.20320   0.49917   0.09504   0.00000  Uiso   1.00
C190   C     0.12952   0.50579   0.45119   0.00000  Uiso   1.00
C191   C     0.20381   0.50579   0.04881   0.00000  Uiso   1.00
C192   C     0.16710   0.50465   0.47647   0.00000  Uiso   1.00
C193   C     0.16623   0.50464   0.02353   0.00000  Uiso   1.00
C194   C     0.20543   0.50278   0.45483   0.00000  Uiso   1.00
C195   C     0.12789   0.50273   0.04517   0.00000  Uiso   1.00
C196   C     0.09242   0.51123   0.47314   0.00000  Uiso   1.00
C197   C     0.09110   0.50250   0.01872   0.00000  Uiso   1.00
C198   C     0.24092   0.51126   0.02686   0.00000  Uiso   1.00
C199   C     0.24222   0.50257   0.48127   0.00000  Uiso   1.00
C200   C     0.02083   0.45852   0.25489   0.00000  Uiso   1.00
C201   C     0.31253   0.54143   0.24518   0.00000  Uiso   1.00
C202   C     0.31245   0.45858   0.24480   0.00000  Uiso   1.00
C203   C     0.02088   0.54136   0.25537   0.00000  Uiso   1.00
C204   C     0.29096   0.50002   0.24359   0.00000  Uiso   1.00
Cl205  Cl    0.24997   0.51314   0.37645   0.00000  Uiso   1.00
Cl206  Cl    0.04381   0.59387   0.27101   0.00000  Uiso   1.00
Cl207  Cl    0.22382   0.38656   0.31811   0.00000  Uiso   1.00
Cl208  Cl    0.10932   0.61365   0.18209   0.00000  Uiso   1.00
Cl209  Cl    0.10959   0.38644   0.18181   0.00000  Uiso   1.00
Cl210  Cl    0.22390   0.61377   0.31803   0.00000  Uiso   1.00
Cl211  Cl    0.08332   0.51286   0.12358   0.00000  Uiso   1.00
Cl212  Cl    0.08560   0.48232   0.37314   0.00000  Uiso   1.00
Cl213  Cl    0.24770   0.48224   0.12683   0.00000  Uiso   1.00
Cl214  Cl    0.04407   0.48131   0.03755   0.00000  Uiso   1.00
Cl215  Cl    0.28925   0.48144   0.46239   0.00000  Uiso   1.00
Cl216  Cl    0.04369   0.40580   0.26980   0.00000  Uiso   1.00
Cl217  Cl    0.28972   0.59412   0.23009   0.00000  Uiso   1.00
Cl218  Cl    0.28949   0.40601   0.22938   0.00000  Uiso   1.00
I219   I     0.04273   0.55005   0.44446   0.00000  Uiso   1.00
I220   I     0.29070   0.54998   0.05561   0.00000  Uiso   1.00
N221   N     0.16667   0.61907   0.25000   0.00000  Uiso   1.00
N222   N     0.16667   0.38093   0.25000   0.00000  Uiso   1.00
O223   O     0.10559   0.53821   0.24999   0.00000  Uiso   1.00
O224   O     0.22774   0.46179   0.25001   0.00000  Uiso   1.00
O225   O     0.22774   0.53821   0.25000   0.00000  Uiso   1.00
O226   O     0.10559   0.46179   0.25000   0.00000  Uiso   1.00
O227   O     0.16666   0.53823   0.18392   0.00000  Uiso   1.00
O228   O     0.16667   0.46177   0.31608   0.00000  Uiso   1.00
O229   O     0.16667   0.53823   0.31607   0.00000  Uiso   1.00
O230   O     0.16666   0.46177   0.18392   0.00000  Uiso   1.00
Zn231  Zn    0.16667   0.55104   0.25000   0.00000  Uiso   1.00
Zn232  Zn    0.16667   0.44896   0.25000   0.00000  Uiso   1.00
C233   C     0.42008   0.49998   0.25338   0.00000  Uiso   1.00
C234   C     0.37572   0.49994   0.25650   0.00000  Uiso   1.00
C235   C     0.52484   0.35735   0.27957   0.00000  Uiso   1.00
C236   C     0.47513   0.64271   0.22047   0.00000  Uiso   1.00
C237   C     0.47516   0.35730   0.22043   0.00000  Uiso   1.00
C238   C     0.52486   0.64276   0.27954   0.00000  Uiso   1.00
C239   C     0.49944   0.49998   0.16365   0.00000  Uiso   1.00
C240   C     0.50056   0.50000   0.33635   0.00000  Uiso   1.00
C241   C     0.53852   0.50360   0.40770   0.00000  Uiso   1.00
C242   C     0.46148   0.50351   0.09231   0.00000  Uiso   1.00
C243   C     0.50096   0.50022   0.38401   0.00000  Uiso   1.00
C244   C     0.57993   0.50001   0.24665   0.00000  Uiso   1.00
C245   C     0.49904   0.50017   0.11599   0.00000  Uiso   1.00
C246   C     0.46346   0.49920   0.40495   0.00000  Uiso   1.00
C247   C     0.53654   0.49917   0.09504   0.00000  Uiso   1.00
C248   C     0.46286   0.50579   0.45119   0.00000  Uiso   1.00
C249   C     0.53714   0.50579   0.04881   0.00000  Uiso   1.00
C250   C     0.50043   0.50465   0.47647   0.00000  Uiso   1.00
C251   C     0.49956   0.50464   0.02353   0.00000  Uiso   1.00
C252   C     0.53877   0.50278   0.45483   0.00000  Uiso   1.00
C253   C     0.46122   0.50273   0.04517   0.00000  Uiso   1.00
C254   C     0.42575   0.51123   0.47314   0.00000  Uiso   1.00
C255   C     0.42444   0.50250   0.01872   0.00000  Uiso   1.00
C256   C     0.57425   0.51126   0.02686   0.00000  Uiso   1.00
C257   C     0.57555   0.50257   0.48127   0.00000  Uiso   1.00
C258   C     0.35416   0.45852   0.25489   0.00000  Uiso   1.00
C259   C     0.64586   0.54143   0.24518   0.00000  Uiso   1.00
C260   C     0.64579   0.45858   0.24480   0.00000  Uiso   1.00
C261   C     0.35422   0.54136   0.25537   0.00000  Uiso   1.00
C262   C     0.62429   0.50002   0.24359   0.00000  Uiso   1.00
Cl263  Cl    0.58331   0.51314   0.37645   0.00000  Uiso   1.00
Cl264  Cl    0.37715   0.59387   0.27101   0.00000  Uiso   1.00
Cl265  Cl    0.55716   0.38656   0.31811   0.00000  Uiso   1.00
Cl266  Cl    0.44266   0.61365   0.18209   0.00000  Uiso   1.00
Cl267  Cl    0.44293   0.38644   0.18181   0.00000  Uiso   1.00
Cl268  Cl    0.55723   0.61377   0.31803   0.00000  Uiso   1.00
Cl269  Cl    0.41666   0.51286   0.12358   0.00000  Uiso   1.00
Cl270  Cl    0.41893   0.48232   0.37314   0.00000  Uiso   1.00
Cl271  Cl    0.58104   0.48224   0.12683   0.00000  Uiso   1.00
Cl272  Cl    0.37740   0.48131   0.03755   0.00000  Uiso   1.00
Cl273  Cl    0.62258   0.48144   0.46239   0.00000  Uiso   1.00
Cl274  Cl    0.37703   0.40580   0.26980   0.00000  Uiso   1.00
Cl275  Cl    0.62305   0.59412   0.23009   0.00000  Uiso   1.00
Cl276  Cl    0.62283   0.40601   0.22938   0.00000  Uiso   1.00
I277   I     0.37606   0.55005   0.44446   0.00000  Uiso   1.00
I278   I     0.62403   0.54998   0.05561   0.00000  Uiso   1.00
N279   N     0.50000   0.61907   0.25000   0.00000  Uiso   1.00
N280   N     0.50000   0.38093   0.25000   0.00000  Uiso   1.00
O281   O     0.43892   0.53821   0.24999   0.00000  Uiso   1.00
O282   O     0.56108   0.46179   0.25001   0.00000  Uiso   1.00
O283   O     0.56108   0.53821   0.25000   0.00000  Uiso   1.00
O284   O     0.43892   0.46179   0.25000   0.00000  Uiso   1.00
O285   O     0.49999   0.53823   0.18392   0.00000  Uiso   1.00
O286   O     0.50001   0.46177   0.31608   0.00000  Uiso   1.00
O287   O     0.50001   0.53823   0.31607   0.00000  Uiso   1.00
O288   O     0.49999   0.46177   0.18392   0.00000  Uiso   1.00
Zn289  Zn    0.50000   0.55104   0.25000   0.00000  Uiso   1.00
Zn290  Zn    0.50000   0.44896   0.25000   0.00000  Uiso   1.00
C291   C     0.75341   0.49998   0.25338   0.00000  Uiso   1.00
C292   C     0.70906   0.49994   0.25650   0.00000  Uiso   1.00
C293   C     0.85818   0.35735   0.27957   0.00000  Uiso   1.00
C294   C     0.80846   0.64271   0.22047   0.00000  Uiso   1.00
C295   C     0.80850   0.35730   0.22043   0.00000  Uiso   1.00
C296   C     0.85819   0.64276   0.27954   0.00000  Uiso   1.00
C297   C     0.83278   0.49998   0.16365   0.00000  Uiso   1.00
C298   C     0.83389   0.50000   0.33635   0.00000  Uiso   1.00
C299   C     0.87185   0.50360   0.40770   0.00000  Uiso   1.00
C300   C     0.79481   0.50351   0.09231   0.00000  Uiso   1.00
C301   C     0.83429   0.50022   0.38401   0.00000  Uiso   1.00
C302   C     0.91326   0.50001   0.24665   0.00000  Uiso   1.00
C303   C     0.83237   0.50017   0.11599   0.00000  Uiso   1.00
C304   C     0.79679   0.49920   0.40495   0.00000  Uiso   1.00
C305   C     0.86987   0.49917   0.09504   0.00000  Uiso   1.00
C306   C     0.79619   0.50579   0.45119   0.00000  Uiso   1.00
C307   C     0.87047   0.50579   0.04881   0.00000  Uiso   1.00
C308   C     0.83376   0.50465   0.47647   0.00000  Uiso   1.00
C309   C     0.83290   0.50464   0.02353   0.00000  Uiso   1.00
C310   C     0.87210   0.50278   0.45483   0.00000  Uiso   1.00
C311   C     0.79456   0.50273   0.04517   0.00000  Uiso   1.00
C312   C     0.75908   0.51123   0.47314   0.00000  Uiso   1.00
C313   C     0.75777   0.50250   0.01872   0.00000  Uiso   1.00
C314   C     0.90759   0.51126   0.02686   0.00000  Uiso   1.00
C315   C     0.90889   0.50257   0.48127   0.00000  Uiso   1.00
C316   C     0.68749   0.45852   0.25489   0.00000  Uiso   1.00
C317   C     0.97919   0.54143   0.24518   0.00000  Uiso   1.00
C318   C     0.97912   0.45858   0.24480   0.00000  Uiso   1.00
C319   C     0.68755   0.54136   0.25537   0.00000  Uiso   1.00
C320   C     0.95762   0.50002   0.24359   0.00000  Uiso   1.00
Cl321  Cl    0.91664   0.51314   0.37645   0.00000  Uiso   1.00
Cl322  Cl    0.71048   0.59387   0.27101   0.00000  Uiso   1.00
Cl323  Cl    0.89049   0.38656   0.31811   0.00000  Uiso   1.00
Cl324  Cl    0.77599   0.61365   0.18209   0.00000  Uiso   1.00
Cl325  Cl    0.77626   0.38644   0.18181   0.00000  Uiso   1.00
Cl326  Cl    0.89056   0.61377   0.31803   0.00000  Uiso   1.00
Cl327  Cl    0.74999   0.51286   0.12358   0.00000  Uiso   1.00
Cl328  Cl    0.75226   0.48232   0.37314   0.00000  Uiso   1.00
Cl329  Cl    0.91437   0.48224   0.12683   0.00000  Uiso   1.00
Cl330  Cl    0.71073   0.48131   0.03755   0.00000  Uiso   1.00
Cl331  Cl    0.95591   0.48144   0.46239   0.00000  Uiso   1.00
Cl332  Cl    0.71036   0.40580   0.26980   0.00000  Uiso   1.00
Cl333  Cl    0.95639   0.59412   0.23009   0.00000  Uiso   1.00
Cl334  Cl    0.95616   0.40601   0.22938   0.00000  Uiso   1.00
I335   I     0.70940   0.55005   0.44446   0.00000  Uiso   1.00
I336   I     0.95736   0.54998   0.05561   0.00000  Uiso   1.00
N337   N     0.83333   0.61907   0.25000   0.00000  Uiso   1.00
N338   N     0.83333   0.38093   0.25000   0.00000  Uiso   1.00
O339   O     0.77226   0.53821   0.24999   0.00000  Uiso   1.00
O340   O     0.89441   0.46179   0.25001   0.00000  Uiso   1.00
O341   O     0.89441   0.53821   0.25000   0.00000  Uiso   1.00
O342   O     0.77226   0.46179   0.25000   0.00000  Uiso   1.00
O343   O     0.83333   0.53823   0.18392   0.00000  Uiso   1.00
O344   O     0.83334   0.46177   0.31608   0.00000  Uiso   1.00
O345   O     0.83334   0.53823   0.31607   0.00000  Uiso   1.00
O346   O     0.83333   0.46177   0.18392   0.00000  Uiso   1.00
Zn347  Zn    0.83333   0.55104   0.25000   0.00000  Uiso   1.00
Zn348  Zn    0.83333   0.44896   0.25000   0.00000  Uiso   1.00
C349   C     0.08674   0.83332   0.25338   0.00000  Uiso   1.00
C350   C     0.04239   0.83327   0.25650   0.00000  Uiso   1.00
C351   C     0.19151   0.69068   0.27957   0.00000  Uiso   1.00
C352   C     0.14179   0.97604   0.22047   0.00000  Uiso   1.00
C353   C     0.14183   0.69063   0.22043   0.00000  Uiso   1.00
C354   C     0.19152   0.97609   0.27954   0.00000  Uiso   1.00
C355   C     0.16611   0.83332   0.16365   0.00000  Uiso   1.00
C356   C     0.16723   0.83333   0.33635   0.00000  Uiso   1.00
C357   C     0.20518   0.83693   0.40770   0.00000  Uiso   1.00
C358   C     0.12814   0.83684   0.09231   0.00000  Uiso   1.00
C359   C     0.16763   0.83356   0.38401   0.00000  Uiso   1.00
C360   C     0.24660   0.83334   0.24665   0.00000  Uiso   1.00
C361   C     0.16570   0.83351   0.11599   0.00000  Uiso   1.00
C362   C     0.13012   0.83253   0.40495   0.00000  Uiso   1.00
C363   C     0.20320   0.83250   0.09504   0.00000  Uiso   1.00
C364   C     0.12952   0.83912   0.45119   0.00000  Uiso   1.00
C365   C     0.20381   0.83912   0.04881   0.00000  Uiso   1.00
C366   C     0.16710   0.83798   0.47647   0.00000  Uiso   1.00
C367   C     0.16623   0.83797   0.02353   0.00000  Uiso   1.00
C368   C     0.20543   0.83612   0.45483   0.00000  Uiso   1.00
C369   C     0.12789   0.83606   0.04517   0.00000  Uiso   1.00
C370   C     0.09242   0.84457   0.47314   0.00000  Uiso   1.00
C371   C     0.09110   0.83584   0.01872   0.00000  Uiso   1.00
C372   C     0.24092   0.84459   0.02686   0.00000  Uiso   1.00
C373   C     0.24222   0.83590   0.48127   0.00000  Uiso   1.00
C374   C     0.02083   0.79185   0.25489   0.00000  Uiso   1.00
C375   C     0.31253   0.87476   0.24518   0.00000  Uiso   1.00
C376   C     0.31245   0.79191   0.24480   0.00000  Uiso   1.00
C377   C     0.02088   0.87470   0.25537   0.00000  Uiso   1.00
C378   C     0.29096   0.83335   0.24359   0.00000  Uiso   1.00
Cl379  Cl    0.24997   0.84647   0.37645   0.00000  Uiso   1.00
Cl380  Cl    0.04381   0.92721   0.27101   0.00000  Uiso   1.00
Cl381  Cl    0.22382   0.71989   0.31811   0.00000  Uiso   1.00
Cl382  Cl    0.10932   0.94698   0.18209   0.00000  Uiso   1.00
Cl383  Cl    0.10959   0.71978   0.18181   0.00000  Uiso   1.00
Cl384  Cl    0.22390   0.94710   0.31803   0.00000  Uiso   1.00
Cl385  Cl    0.08332   0.84619   0.12358   0.00000  Uiso   1.00
Cl386  Cl    0.08560   0.81566   0.37314   0.00000  Uiso   1.00
Cl387  Cl    0.24770   0.81557   0.12683   0.00000  Uiso   1.00
Cl388  Cl    0.04407   0.81465   0.03755   0.00000  Uiso   1.00
Cl389  Cl    0.28925   0.81477   0.46239   0.00000  Uiso   1.00
Cl390  Cl    0.04369   0.73913   0.26980   0.00000  Uiso   1.00
Cl391  Cl    0.28972   0.92745   0.23009   0.00000  Uiso   1.00
Cl392  Cl    0.28949   0.73934   0.22938   0.00000  Uiso   1.00
I393   I     0.04273   0.88339   0.44446   0.00000  Uiso   1.00
I394   I     0.29070   0.88331   0.05561   0.00000  Uiso   1.00
N395   N     0.16667   0.95240   0.25000   0.00000  Uiso   1.00
N396   N     0.16667   0.71427   0.25000   0.00000  Uiso   1.00
O397   O     0.10559   0.87154   0.24999   0.00000  Uiso   1.00
O398   O     0.22774   0.79513   0.25001   0.00000  Uiso   1.00
O399   O     0.22774   0.87154   0.25000   0.00000  Uiso   1.00
O400   O     0.10559   0.79513   0.25000   0.00000  Uiso   1.00
O401   O     0.16666   0.87156   0.18392   0.00000  Uiso   1.00
O402   O     0.16667   0.79511   0.31608   0.00000  Uiso   1.00
O403   O     0.16667   0.87156   0.31607   0.00000  Uiso   1.00
O404   O     0.16666   0.79511   0.18392   0.00000  Uiso   1.00
Zn405  Zn    0.16667   0.88437   0.25000   0.00000  Uiso   1.00
Zn406  Zn    0.16667   0.78229   0.25000   0.00000  Uiso   1.00
C407   C     0.42008   0.83332   0.25338   0.00000  Uiso   1.00
C408   C     0.37572   0.83327   0.25650   0.00000  Uiso   1.00
C409   C     0.52484   0.69068   0.27957   0.00000  Uiso   1.00
C410   C     0.47513   0.97604   0.22047   0.00000  Uiso   1.00
C411   C     0.47516   0.69063   0.22043   0.00000  Uiso   1.00
C412   C     0.52486   0.97609   0.27954   0.00000  Uiso   1.00
C413   C     0.49944   0.83332   0.16365   0.00000  Uiso   1.00
C414   C     0.50056   0.83333   0.33635   0.00000  Uiso   1.00
C415   C     0.53852   0.83693   0.40770   0.00000  Uiso   1.00
C416   C     0.46148   0.83684   0.09231   0.00000  Uiso   1.00
C417   C     0.50096   0.83356   0.38401   0.00000  Uiso   1.00
C418   C     0.57993   0.83334   0.24665   0.00000  Uiso   1.00
C419   C     0.49904   0.83351   0.11599   0.00000  Uiso   1.00
C420   C     0.46346   0.83253   0.40495   0.00000  Uiso   1.00
C421   C     0.53654   0.83250   0.09504   0.00000  Uiso   1.00
C422   C     0.46286   0.83912   0.45119   0.00000  Uiso   1.00
C423   C     0.53714   0.83912   0.04881   0.00000  Uiso   1.00
C424   C     0.50043   0.83798   0.47647   0.00000  Uiso   1.00
C425   C     0.49956   0.83797   0.02353   0.00000  Uiso   1.00
C426   C     0.53877   0.83612   0.45483   0.00000  Uiso   1.00
C427   C     0.46122   0.83606   0.04517   0.00000  Uiso   1.00
C428   C     0.42575   0.84457   0.47314   0.00000  Uiso   1.00
C429   C     0.42444   0.83584   0.01872   0.00000  Uiso   1.00
C430   C     0.57425   0.84459   0.02686   0.00000  Uiso   1.00
C431   C     0.57555   0.83590   0.48127   0.00000  Uiso   1.00
C432   C     0.35416   0.79185   0.25489   0.00000  Uiso   1.00
C433   C     0.64586   0.87476   0.24518   0.00000  Uiso   1.00
C434   C     0.64579   0.79191   0.24480   0.00000  Uiso   1.00
C435   C     0.35422   0.87470   0.25537   0.00000  Uiso   1.00
C436   C     0.62429   0.83335   0.24359   0.00000  Uiso   1.00
Cl437  Cl    0.58331   0.84647   0.37645   0.00000  Uiso   1.00
Cl438  Cl    0.37715   0.92721   0.27101   0.00000  Uiso   1.00
Cl439  Cl    0.55716   0.71989   0.31811   0.00000  Uiso   1.00
Cl440  Cl    0.44266   0.94698   0.18209   0.00000  Uiso   1.00
Cl441  Cl    0.44293   0.71978   0.18181   0.00000  Uiso   1.00
Cl442  Cl    0.55723   0.94710   0.31803   0.00000  Uiso   1.00
Cl443  Cl    0.41666   0.84619   0.12358   0.00000  Uiso   1.00
Cl444  Cl    0.41893   0.81566   0.37314   0.00000  Uiso   1.00
Cl445  Cl    0.58104   0.81557   0.12683   0.00000  Uiso   1.00
Cl446  Cl    0.37740   0.81465   0.03755   0.00000  Uiso   1.00
Cl447  Cl    0.62258   0.81477   0.46239   0.00000  Uiso   1.00
Cl448  Cl    0.37703   0.73913   0.26980   0.00000  Uiso   1.00
Cl449  Cl    0.62305   0.92745   0.23009   0.00000  Uiso   1.00
Cl450  Cl    0.62283   0.73934   0.22938   0.00000  Uiso   1.00
I451   I     0.37606   0.88339   0.44446   0.00000  Uiso   1.00
I452   I     0.62403   0.88331   0.05561   0.00000  Uiso   1.00
N453   N     0.50000   0.95240   0.25000   0.00000  Uiso   1.00
N454   N     0.50000   0.71427   0.25000   0.00000  Uiso   1.00
O455   O     0.43892   0.87154   0.24999   0.00000  Uiso   1.00
O456   O     0.56108   0.79513   0.25001   0.00000  Uiso   1.00
O457   O     0.56108   0.87154   0.25000   0.00000  Uiso   1.00
O458   O     0.43892   0.79513   0.25000   0.00000  Uiso   1.00
O459   O     0.49999   0.87156   0.18392   0.00000  Uiso   1.00
O460   O     0.50001   0.79511   0.31608   0.00000  Uiso   1.00
O461   O     0.50001   0.87156   0.31607   0.00000  Uiso   1.00
O462   O     0.49999   0.79511   0.18392   0.00000  Uiso   1.00
Zn463  Zn    0.50000   0.88437   0.25000   0.00000  Uiso   1.00
Zn464  Zn    0.50000   0.78229   0.25000   0.00000  Uiso   1.00
C465   C     0.75341   0.83332   0.25338   0.00000  Uiso   1.00
C466   C     0.70906   0.83327   0.25650   0.00000  Uiso   1.00
C467   C     0.85818   0.69068   0.27957   0.00000  Uiso   1.00
C468   C     0.80846   0.97604   0.22047   0.00000  Uiso   1.00
C469   C     0.80850   0.69063   0.22043   0.00000  Uiso   1.00
C470   C     0.85819   0.97609   0.27954   0.00000  Uiso   1.00
C471   C     0.83278   0.83332   0.16365   0.00000  Uiso   1.00
C472   C     0.83389   0.83333   0.33635   0.00000  Uiso   1.00
C473   C     0.87185   0.83693   0.40770   0.00000  Uiso   1.00
C474   C     0.79481   0.83684   0.09231   0.00000  Uiso   1.00
C475   C     0.83429   0.83356   0.38401   0.00000  Uiso   1.00
C476   C     0.91326   0.83334   0.24665   0.00000  Uiso   1.00
C477   C     0.83237   0.83351   0.11599   0.00000  Uiso   1.00
C478   C     0.79679   0.83253   0.40495   0.00000  Uiso   1.00
C479   C     0.86987   0.83250   0.09504   0.00000  Uiso   1.00
C480   C     0.79619   0.83912   0.45119   0.00000  Uiso   1.00
C481   C     0.87047   0.83912   0.04881   0.00000  Uiso   1.00
C482   C     0.83376   0.83798   0.47647   0.00000  Uiso   1.00
C483   C     0.83290   0.83797   0.02353   0.00000  Uiso   1.00
C484   C     0.87210   0.83612   0.45483   0.00000  Uiso   1.00
C485   C     0.79456   0.83606   0.04517   0.00000  Uiso   1.00
C486   C     0.75908   0.84457   0.47314   0.00000  Uiso   1.00
C487   C     0.75777   0.83584   0.01872   0.00000  Uiso   1.00
C488   C     0.90759   0.84459   0.02686   0.00000  Uiso   1.00
C489   C     0.90889   0.83590   0.48127   0.00000  Uiso   1.00
C490   C     0.68749   0.79185   0.25489   0.00000  Uiso   1.00
C491   C     0.97919   0.87476   0.24518   0.00000  Uiso   1.00
C492   C     0.97912   0.79191   0.24480   0.00000  Uiso   1.00
C493   C     0.68755   0.87470   0.25537   0.00000  Uiso   1.00
C494   C     0.95762   0.83335   0.24359   0.00000  Uiso   1.00
Cl495  Cl    0.91664   0.84647   0.37645   0.00000  Uiso   1.00
Cl496  Cl    0.71048   0.92721   0.27101   0.00000  Uiso   1.00
Cl497  Cl    0.89049   0.71989   0.31811   0.00000  Uiso   1.00
Cl498  Cl    0.77599   0.94698   0.18209   0.00000  Uiso   1.00
Cl499  Cl    0.77626   0.71978   0.18181   0.00000  Uiso   1.00
Cl500  Cl    0.89056   0.94710   0.31803   0.00000  Uiso   1.00
Cl501  Cl    0.74999   0.84619   0.12358   0.00000  Uiso   1.00
Cl502  Cl    0.75226   0.81566   0.37314   0.00000  Uiso   1.00
Cl503  Cl    0.91437   0.81557   0.12683   0.00000  Uiso   1.00
Cl504  Cl    0.71073   0.81465   0.03755   0.00000  Uiso   1.00
Cl505  Cl    0.95591   0.81477   0.46239   0.00000  Uiso   1.00
Cl506  Cl    0.71036   0.73913   0.26980   0.00000  Uiso   1.00
Cl507  Cl    0.95639   0.92745   0.23009   0.00000  Uiso   1.00
Cl508  Cl    0.95616   0.73934   0.22938   0.00000  Uiso   1.00
I509   I     0.70940   0.88339   0.44446   0.00000  Uiso   1.00
I510   I     0.95736   0.88331   0.05561   0.00000  Uiso   1.00
N511   N     0.83333   0.95240   0.25000   0.00000  Uiso   1.00
N512   N     0.83333   0.71427   0.25000   0.00000  Uiso   1.00
O513   O     0.77226   0.87154   0.24999   0.00000  Uiso   1.00
O514   O     0.89441   0.79513   0.25001   0.00000  Uiso   1.00
O515   O     0.89441   0.87154   0.25000   0.00000  Uiso   1.00
O516   O     0.77226   0.79513   0.25000   0.00000  Uiso   1.00
O517   O     0.83333   0.87156   0.18392   0.00000  Uiso   1.00
O518   O     0.83334   0.79511   0.31608   0.00000  Uiso   1.00
O519   O     0.83334   0.87156   0.31607   0.00000  Uiso   1.00
O520   O     0.83333   0.79511   0.18392   0.00000  Uiso   1.00
Zn521  Zn    0.83333   0.88437   0.25000   0.00000  Uiso   1.00
Zn522  Zn    0.83333   0.78229   0.25000   0.00000  Uiso   1.00
C523   C     0.08674   0.16665   0.75338   0.00000  Uiso   1.00
C524   C     0.04239   0.16661   0.75650   0.00000  Uiso   1.00
C525   C     0.19151   0.02402   0.77957   0.00000  Uiso   1.00
C526   C     0.14179   0.30937   0.72047   0.00000  Uiso   1.00
C527   C     0.14183   0.02396   0.72043   0.00000  Uiso   1.00
C528   C     0.19152   0.30943   0.77954   0.00000  Uiso   1.00
C529   C     0.16611   0.16665   0.66365   0.00000  Uiso   1.00
C530   C     0.16723   0.16667   0.83635   0.00000  Uiso   1.00
C531   C     0.20518   0.17027   0.90770   0.00000  Uiso   1.00
C532   C     0.12814   0.17018   0.59231   0.00000  Uiso   1.00
C533   C     0.16763   0.16689   0.88401   0.00000  Uiso   1.00
C534   C     0.24660   0.16668   0.74665   0.00000  Uiso   1.00
C535   C     0.16570   0.16684   0.61599   0.00000  Uiso   1.00
C536   C     0.13012   0.16586   0.90495   0.00000  Uiso   1.00
C537   C     0.20320   0.16584   0.59504   0.00000  Uiso   1.00
C538   C     0.12952   0.17245   0.95119   0.00000  Uiso   1.00
C539   C     0.20381   0.17245   0.54881   0.00000  Uiso   1.00
C540   C     0.16710   0.17132   0.97647   0.00000  Uiso   1.00
C541   C     0.16623   0.17131   0.52353   0.00000  Uiso   1.00
C542   C     0.20543   0.16945   0.95483   0.00000  Uiso   1.00
C543   C     0.12789   0.16939   0.54517   0.00000  Uiso   1.00
C544   C     0.09242   0.17790   0.97314   0.00000  Uiso   1.00
C545   C     0.09110   0.16917   0.51872   0.00000  Uiso   1.00
C546   C     0.24092   0.17793   0.52686   0.00000  Uiso   1.00
C547   C     0.24222   0.16923   0.98127   0.00000  Uiso   1.00
C548   C     0.02083   0.12519   0.75489   0.00000  Uiso   1.00
C549   C     0.31253   0.20809   0.74518   0.00000  Uiso   1.00
C550   C     0.31245   0.12525   0.74480   0.00000  Uiso   1.00
C551   C     0.02088   0.20803   0.75537   0.00000  Uiso   1.00
C552   C     0.29096   0.16669   0.74359   0.00000  Uiso   1.00
Cl553  Cl    0.24997   0.17981   0.87645   0.00000  Uiso   1.00
Cl554  Cl    0.04381   0.26054   0.77101   0.00000  Uiso   1.00
Cl555  Cl    0.22382   0.05323   0.81811   0.00000  Uiso   1.00
Cl556  Cl    0.10932   0.28031   0.68209   0.00000  Uiso   1.00
Cl557  Cl    0.10959   0.05311   0.68181   0.00000  Uiso   1.00
Cl558  Cl    0.22390   0.28044   0.81803   0.00000  Uiso   1.00
Cl559  Cl    0.08332   0.17952   0.62358   0.00000  Uiso   1.00
Cl560  Cl    0.08560   0.14899   0.87314   0.00000  Uiso   1.00
Cl561  Cl    0.24770   0.14890   0.62683   0.00000  Uiso   1.00
Cl562  Cl    0.04407   0.14798   0.53755   0.00000  Uiso   1.00
Cl563  Cl    0.28925   0.14810   0.96239   0.00000  Uiso   1.00
Cl564  Cl    0.04369   0.07247   0.76980   0.00000  Uiso   1.00
Cl565  Cl    0.28972   0.26078   0.73009   0.00000  Uiso   1.00
Cl566  Cl    0.28949   0.07268   0.72938   0.00000  Uiso   1.00
I567   I     0.04273   0.21672   0.94446   0.00000  Uiso   1.00
I568   I     0.29070   0.21664   0.55561   0.00000  Uiso   1.00
N569   N     0.16667   0.28573   0.75000   0.00000  Uiso   1.00
N570   N     0.16667   0.04760   0.75000   0.00000  Uiso   1.00
O571   O     0.10559   0.20487   0.74999   0.00000  Uiso   1.00
O572   O     0.22774   0.12846   0.75001   0.00000  Uiso   1.00
O573   O     0.22774   0.20487   0.75000   0.00000  Uiso   1.00
O574   O     0.10559   0.12846   0.75000   0.00000  Uiso   1.00
O575   O     0.16666   0.20489   0.68392   0.00000  Uiso   1.00
O576   O     0.16667   0.12844   0.81608   0.00000  Uiso   1.00
O577   O     0.16667   0.20489   0.81607   0.00000  Uiso   1.00
O578   O     0.16666   0.12844   0.68392   0.00000  Uiso   1.00
Zn579  Zn    0.16667   0.21771   0.75000   0.00000  Uiso   1.00
Zn580  Zn    0.16667   0.11563   0.75000   0.00000  Uiso   1.00
C581   C     0.42008   0.16665   0.75338   0.00000  Uiso   1.00
C582   C     0.37572   0.16661   0.75650   0.00000  Uiso   1.00
C583   C     0.52484   0.02402   0.77957   0.00000  Uiso   1.00
C584   C     0.47513   0.30937   0.72047   0.00000  Uiso   1.00
C585   C     0.47516   0.02396   0.72043   0.00000  Uiso   1.00
C586   C     0.52486   0.30943   0.77954   0.00000  Uiso   1.00
C587   C     0.49944   0.16665   0.66365   0.00000  Uiso   1.00
C588   C     0.50056   0.16667   0.83635   0.00000  Uiso   1.00
C589   C     0.53852   0.17027   0.90770   0.00000  Uiso   1.00
C590   C     0.46148   0.17018   0.59231   0.00000  Uiso   1.00
C591   C     0.50096   0.16689   0.88401   0.00000  Uiso   1.00
C592   C     0.57993   0.16668   0.74665   0.00000  Uiso   1.00
C593   C     0.49904   0.16684   0.61599   0.00000  Uiso   1.00
C594   C     0.46346   0.16586   0.90495   0.00000  Uiso   1.00
C595   C     0.53654   0.16584   0.59504   0.00000  Uiso   1.00
C596   C     0.46286   0.17245   0.95119   0.00000  Uiso   1.00
C597   C     0.53714   0.17245   0.54881   0.00000  Uiso   1.00
C598   C     0.50043   0.17132   0.97647   0.00000  Uiso   1.00
C599   C     0.49956   0.17131   0.52353   0.00000  Uiso   1.00
C600   C     0.53877   0.16945   0.95483   0.00000  Uiso   1.00
C601   C     0.46122   0.16939   0.54517   0.00000  Uiso   1.00
C602   C     0.42575   0.17790   0.97314   0.00000  Uiso   1.00
C603   C     0.42444   0.16917   0.51872   0.00000  Uiso   1.00
C604   C     0.57425   0.17793   0.52686   0.00000  Uiso   1.00
C605   C     0.57555   0.16923   0.98127   0.00000  Uiso   1.00
C606   C     0.35416   0.12519   0.75489   0.00000  Uiso   1.00
C607   C     0.64586   0.20809   0.74518   0.00000  Uiso   1.00
C608   C     0.64579   0.12525   0.74480   0.00000  Uiso   1.00
C609   C     0.35422   0.20803   0.75537   0.00000  Uiso   1.00
C610   C     0.62429   0.16669   0.74359   0.00000  Uiso   1.00
Cl611  Cl    0.58331   0.17981   0.87645   0.00000  Uiso   1.00
Cl612  Cl    0.37715   0.26054   0.77101   0.00000  Uiso   1.00
Cl613  Cl    0.55716   0.05323   0.81811   0.00000  Uiso   1.00
Cl614  Cl    0.44266   0.28031   0.68209   0.00000  Uiso   1.00
Cl615  Cl    0.44293   0.05311   0.68181   0.00000  Uiso   1.00
Cl616  Cl    0.55723   0.28044   0.81803   0.00000  Uiso   1.00
Cl617  Cl    0.41666   0.17952   0.62358   0.00000  Uiso   1.00
Cl618  Cl    0.41893   0.14899   0.87314   0.00000  Uiso   1.00
Cl619  Cl    0.58104   0.14890   0.62683   0.00000  Uiso   1.00
Cl620  Cl    0.37740   0.14798   0.53755   0.00000  Uiso   1.00
Cl621  Cl    0.62258   0.14810   0.96239   0.00000  Uiso   1.00
Cl622  Cl    0.37703   0.07247   0.76980   0.00000  Uiso   1.00
Cl623  Cl    0.62305   0.26078   0.73009   0.00000  Uiso   1.00
Cl624  Cl    0.62283   0.07268   0.72938   0.00000  Uiso   1.00
I625   I     0.37606   0.21672   0.94446   0.00000  Uiso   1.00
I626   I     0.62403   0.21664   0.55561   0.00000  Uiso   1.00
N627   N     0.50000   0.28573   0.75000   0.00000  Uiso   1.00
N628   N     0.50000   0.04760   0.75000   0.00000  Uiso   1.00
O629   O     0.43892   0.20487   0.74999   0.00000  Uiso   1.00
O630   O     0.56108   0.12846   0.75001   0.00000  Uiso   1.00
O631   O     0.56108   0.20487   0.75000   0.00000  Uiso   1.00
O632   O     0.43892   0.12846   0.75000   0.00000  Uiso   1.00
O633   O     0.49999   0.20489   0.68392   0.00000  Uiso   1.00
O634   O     0.50001   0.12844   0.81608   0.00000  Uiso   1.00
O635   O     0.50001   0.20489   0.81607   0.00000  Uiso   1.00
O636   O     0.49999   0.12844   0.68392   0.00000  Uiso   1.00
Zn637  Zn    0.50000   0.21771   0.75000   0.00000  Uiso   1.00
Zn638  Zn    0.50000   0.11563   0.75000   0.00000  Uiso   1.00
C639   C     0.75341   0.16665   0.75338   0.00000  Uiso   1.00
C640   C     0.70906   0.16661   0.75650   0.00000  Uiso   1.00
C641   C     0.85818   0.02402   0.77957   0.00000  Uiso   1.00
C642   C     0.80846   0.30937   0.72047   0.00000  Uiso   1.00
C643   C     0.80850   0.02396   0.72043   0.00000  Uiso   1.00
C644   C     0.85819   0.30943   0.77954   0.00000  Uiso   1.00
C645   C     0.83278   0.16665   0.66365   0.00000  Uiso   1.00
C646   C     0.83389   0.16667   0.83635   0.00000  Uiso   1.00
C647   C     0.87185   0.17027   0.90770   0.00000  Uiso   1.00
C648   C     0.79481   0.17018   0.59231   0.00000  Uiso   1.00
C649   C     0.83429   0.16689   0.88401   0.00000  Uiso   1.00
C650   C     0.91326   0.16668   0.74665   0.00000  Uiso   1.00
C651   C     0.83237   0.16684   0.61599   0.00000  Uiso   1.00
C652   C     0.79679   0.16586   0.90495   0.00000  Uiso   1.00
C653   C     0.86987   0.16584   0.59504   0.00000  Uiso   1.00
C654   C     0.79619   0.17245   0.95119   0.00000  Uiso   1.00
C655   C     0.87047   0.17245   0.54881   0.00000  Uiso   1.00
C656   C     0.83376   0.17132   0.97647   0.00000  Uiso   1.00
C657   C     0.83290   0.17131   0.52353   0.00000  Uiso   1.00
C658   C     0.87210   0.16945   0.95483   0.00000  Uiso   1.00
C659   C     0.79456   0.16939   0.54517   0.00000  Uiso   1.00
C660   C     0.75908   0.17790   0.97314   0.00000  Uiso   1.00
C661   C     0.75777   0.16917   0.51872   0.00000  Uiso   1.00
C662   C     0.90759   0.17793   0.52686   0.00000  Uiso   1.00
C663   C     0.90889   0.16923   0.98127   0.00000  Uiso   1.00
C664   C     0.68749   0.12519   0.75489   0.00000  Uiso   1.00
C665   C     0.97919   0.20809   0.74518   0.00000  Uiso   1.00
C666   C     0.97912   0.12525   0.74480   0.00000  Uiso   1.00
C667   C     0.68755   0.20803   0.75537   0.00000  Uiso   1.00
C668   C     0.95762   0.16669   0.74359   0.00000  Uiso   1.00
Cl669  Cl    0.91664   0.17981   0.87645   0.00000  Uiso   1.00
Cl670  Cl    0.71048   0.26054   0.77101   0.00000  Uiso   1.00
Cl671  Cl    0.89049   0.05323   0.81811   0.00000  Uiso   1.00
Cl672  Cl    0.77599   0.28031   0.68209   0.00000  Uiso   1.00
Cl673  Cl    0.77626   0.05311   0.68181   0.00000  Uiso   1.00
Cl674  Cl    0.89056   0.28044   0.81803   0.00000  Uiso   1.00
Cl675  Cl    0.74999   0.17952   0.62358   0.00000  Uiso   1.00
Cl676  Cl    0.75226   0.14899   0.87314   0.00000  Uiso   1.00
Cl677  Cl    0.91437   0.14890   0.62683   0.00000  Uiso   1.00
Cl678  Cl    0.71073   0.14798   0.53755   0.00000  Uiso   1.00
Cl679  Cl    0.95591   0.14810   0.96239   0.00000  Uiso   1.00
Cl680  Cl    0.71036   0.07247   0.76980   0.00000  Uiso   1.00
Cl681  Cl    0.95639   0.26078   0.73009   0.00000  Uiso   1.00
Cl682  Cl    0.95616   0.07268   0.72938   0.00000  Uiso   1.00
I683   I     0.70940   0.21672   0.94446   0.00000  Uiso   1.00
I684   I     0.95736   0.21664   0.55561   0.00000  Uiso   1.00
N685   N     0.83333   0.28573   0.75000   0.00000  Uiso   1.00
N686   N     0.83333   0.04760   0.75000   0.00000  Uiso   1.00
O687   O     0.77226   0.20487   0.74999   0.00000  Uiso   1.00
O688   O     0.89441   0.12846   0.75001   0.00000  Uiso   1.00
O689   O     0.89441   0.20487   0.75000   0.00000  Uiso   1.00
O690   O     0.77226   0.12846   0.75000   0.00000  Uiso   1.00
O691   O     0.83333   0.20489   0.68392   0.00000  Uiso   1.00
O692   O     0.83334   0.12844   0.81608   0.00000  Uiso   1.00
O693   O     0.83334   0.20489   0.81607   0.00000  Uiso   1.00
O694   O     0.83333   0.12844   0.68392   0.00000  Uiso   1.00
Zn695  Zn    0.83333   0.21771   0.75000   0.00000  Uiso   1.00
Zn696  Zn    0.83333   0.11563   0.75000   0.00000  Uiso   1.00
C697   C     0.08674   0.49998   0.75338   0.00000  Uiso   1.00
C698   C     0.04239   0.49994   0.75650   0.00000  Uiso   1.00
C699   C     0.19151   0.35735   0.77957   0.00000  Uiso   1.00
C700   C     0.14179   0.64271   0.72047   0.00000  Uiso   1.00
C701   C     0.14183   0.35730   0.72043   0.00000  Uiso   1.00
C702   C     0.19152   0.64276   0.77954   0.00000  Uiso   1.00
C703   C     0.16611   0.49998   0.66365   0.00000  Uiso   1.00
C704   C     0.16723   0.50000   0.83635   0.00000  Uiso   1.00
C705   C     0.20518   0.50360   0.90770   0.00000  Uiso   1.00
C706   C     0.12814   0.50351   0.59231   0.00000  Uiso   1.00
C707   C     0.16763   0.50022   0.88401   0.00000  Uiso   1.00
C708   C     0.24660   0.50001   0.74665   0.00000  Uiso   1.00
C709   C     0.16570   0.50017   0.61599   0.00000  Uiso   1.00
C710   C     0.13012   0.49920   0.90495   0.00000  Uiso   1.00
C711   C     0.20320   0.49917   0.59504   0.00000  Uiso   1.00
C712   C     0.12952   0.50579   0.95119   0.00000  Uiso   1.00
C713   C     0.20381   0.50579   0.54881   0.00000  Uiso   1.00
C714   C     0.16710   0.50465   0.97647   0.00000  Uiso   1.00
C715   C     0.16623   0.50464   0.52353   0.00000  Uiso   1.00
C716   C     0.20543   0.50278   0.95483   0.00000  Uiso   1.00
C717   C     0.12789   0.50273   0.54517   0.00000  Uiso   1.00
C718   C     0.09242   0.51123   0.97314   0.00000  Uiso   1.00
C719   C     0.09110   0.50250   0.51872   0.00000  Uiso   1.00
C720   C     0.24092   0.51126   0.52686   0.00000  Uiso   1.00
C721   C     0.24222   0.50257   0.98127   0.00000  Uiso   1.00
C722   C     0.02083   0.45852   0.75489   0.00000  Uiso   1.00
C723   C     0.31253   0.54143   0.74518   0.00000  Uiso   1.00
C724   C     0.31245   0.45858   0.74480   0.00000  Uiso   1.00
C725   C     0.02088   0.54136   0.75537   0.00000  Uiso   1.00
C726   C     0.29096   0.50002   0.74359   0.00000  Uiso   1.00
Cl727  Cl    0.24997   0.51314   0.87645   0.00000  Uiso   1.00
Cl728  Cl    0.04381   0.59387   0.77101   0.00000  Uiso   1.00
Cl729  Cl    0.22382   0.38656   0.81811   0.00000  Uiso   1.00
Cl730  Cl    0.10932   0.61365   0.68209   0.00000  Uiso   1.00
Cl731  Cl    0.10959   0.38644   0.68181   0.00000  Uiso   1.00
Cl732  Cl    0.22390   0.61377   0.81803   0.00000  Uiso   1.00
Cl733  Cl    0.08332   0.51286   0.62358   0.00000  Uiso   1.00
Cl734  Cl    0.08560   0.48232   0.87314   0.00000  Uiso   1.00
Cl735  Cl    0.24770   0.48224   0.62683   0.00000  Uiso   1.00
Cl736  Cl    0.04407   0.48131   0.53755   0.00000  Uiso   1.00
Cl737  Cl    0.28925   0.48144   0.96239   0.00000  Uiso   1.00
Cl738  Cl    0.04369   0.40580   0.76980   0.00000  Uiso   1.00
Cl739  Cl    0.28972   0.59412   0.73009   0.00000  Uiso   1.00
Cl740  Cl    0.28949   0.40601   0.72938   0.00000  Uiso   1.00
I741   I     0.04273   0.55005   0.94446   0.00000  Uiso   1.00
I742   I     0.29070   0.54998   0.55561   0.00000  Uiso   1.00
N743   N     0.16667   0.61907   0.75000   0.00000  Uiso   1.00
N744   N     0.16667   0.38093   0.75000   0.00000  Uiso   1.00
O745   O     0.10559   0.53821   0.74999   0.00000  Uiso   1.00
O746   O     0.22774   0.46179   0.75001   0.00000  Uiso   1.00
O747   O     0.22774   0.53821   0.75000   0.00000  Uiso   1.00
O748   O     0.10559   0.46179   0.75000   0.00000  Uiso   1.00
O749   O     0.16666   0.53823   0.68392   0.00000  Uiso   1.00
O750   O     0.16667   0.46177   0.81608   0.00000  Uiso   1.00
O751   O     0.16667   0.53823   0.81607   0.00000  Uiso   1.00
O752   O     0.16666   0.46177   0.68392   0.00000  Uiso   1.00
Zn753  Zn    0.16667   0.55104   0.75000   0.00000  Uiso   1.00
Zn754  Zn    0.16667   0.44896   0.75000   0.00000  Uiso   1.00
C755   C     0.42008   0.49998   0.75338   0.00000  Uiso   1.00
C756   C     0.37572   0.49994   0.75650   0.00000  Uiso   1.00
C757   C     0.52484   0.35735   0.77957   0.00000  Uiso   1.00
C758   C     0.47513   0.64271   0.72047   0.00000  Uiso   1.00
C759   C     0.47516   0.35730   0.72043   0.00000  Uiso   1.00
C760   C     0.52486   0.64276   0.77954   0.00000  Uiso   1.00
C761   C     0.49944   0.49998   0.66365   0.00000  Uiso   1.00
C762   C     0.50056   0.50000   0.83635   0.00000  Uiso   1.00
C763   C     0.53852   0.50360   0.90770   0.00000  Uiso   1.00
C764   C     0.46148   0.50351   0.59231   0.00000  Uiso   1.00
C765   C     0.50096   0.50022   0.88401   0.00000  Uiso   1.00
C766   C     0.57993   0.50001   0.74665   0.00000  Uiso   1.00
C767   C     0.49904   0.50017   0.61599   0.00000  Uiso   1.00
C768   C     0.46346   0.49920   0.90495   0.00000  Uiso   1.00
C769   C     0.53654   0.49917   0.59504   0.00000  Uiso   1.00
C770   C     0.46286   0.50579   0.95119   0.00000  Uiso   1.00
C771   C     0.53714   0.50579   0.54881   0.00000  Uiso   1.00
C772   C     0.50043   0.50465   0.97647   0.00000  Uiso   1.00
C773   C     0.49956   0.50464   0.52353   0.00000  Uiso   1.00
C774   C     0.53877   0.50278   0.95483   0.00000  Uiso   1.00
C775   C     0.46122   0.50273   0.54517   0.00000  Uiso   1.00
C776   C     0.42575   0.51123   0.97314   0.00000  Uiso   1.00
C777   C     0.42444   0.50250   0.51872   0.00000  Uiso   1.00
C778   C     0.57425   0.51126   0.52686   0.00000  Uiso   1.00
C779   C     0.57555   0.50257   0.98127   0.00000  Uiso   1.00
C780   C     0.35416   0.45852   0.75489   0.00000  Uiso   1.00
C781   C     0.64586   0.54143   0.74518   0.00000  Uiso   1.00
C782   C     0.64579   0.45858   0.74480   0.00000  Uiso   1.00
C783   C     0.35422   0.54136   0.75537   0.00000  Uiso   1.00
C784   C     0.62429   0.50002   0.74359   0.00000  Uiso   1.00
Cl785  Cl    0.58331   0.51314   0.87645   0.00000  Uiso   1.00
Cl786  Cl    0.37715   0.59387   0.77101   0.00000  Uiso   1.00
Cl787  Cl    0.55716   0.38656   0.81811   0.00000  Uiso   1.00
Cl788  Cl    0.44266   0.61365   0.68209   0.00000  Uiso   1.00
Cl789  Cl    0.44293   0.38644   0.68181   0.00000  Uiso   1.00
Cl790  Cl    0.55723   0.61377   0.81803   0.00000  Uiso   1.00
Cl791  Cl    0.41666   0.51286   0.62358   0.00000  Uiso   1.00
Cl792  Cl    0.41893   0.48232   0.87314   0.00000  Uiso   1.00
Cl793  Cl    0.58104   0.48224   0.62683   0.00000  Uiso   1.00
Cl794  Cl    0.37740   0.48131   0.53755   0.00000  Uiso   1.00
Cl795  Cl    0.62258   0.48144   0.96239   0.00000  Uiso   1.00
Cl796  Cl    0.37703   0.40580   0.76980   0.00000  Uiso   1.00
Cl797  Cl    0.62305   0.59412   0.73009   0.00000  Uiso   1.00
Cl798  Cl    0.62283   0.40601   0.72938   0.00000  Uiso   1.00
I799   I     0.37606   0.55005   0.94446   0.00000  Uiso   1.00
I800   I     0.62403   0.54998   0.55561   0.00000  Uiso   1.00
N801   N     0.50000   0.61907   0.75000   0.00000  Uiso   1.00
N802   N     0.50000   0.38093   0.75000   0.00000  Uiso   1.00
O803   O     0.43892   0.53821   0.74999   0.00000  Uiso   1.00
O804   O     0.56108   0.46179   0.75001   0.00000  Uiso   1.00
O805   O     0.56108   0.53821   0.75000   0.00000  Uiso   1.00
O806   O     0.43892   0.46179   0.75000   0.00000  Uiso   1.00
O807   O     0.49999   0.53823   0.68392   0.00000  Uiso   1.00
O808   O     0.50001   0.46177   0.81608   0.00000  Uiso   1.00
O809   O     0.50001   0.53823   0.81607   0.00000  Uiso   1.00
O810   O     0.49999   0.46177   0.68392   0.00000  Uiso   1.00
Zn811  Zn    0.50000   0.55104   0.75000   0.00000  Uiso   1.00
Zn812  Zn    0.50000   0.44896   0.75000   0.00000  Uiso   1.00
C813   C     0.75341   0.49998   0.75338   0.00000  Uiso   1.00
C814   C     0.70906   0.49994   0.75650   0.00000  Uiso   1.00
C815   C     0.85818   0.35735   0.77957   0.00000  Uiso   1.00
C816   C     0.80846   0.64271   0.72047   0.00000  Uiso   1.00
C817   C     0.80850   0.35730   0.72043   0.00000  Uiso   1.00
C818   C     0.85819   0.64276   0.77954   0.00000  Uiso   1.00
C819   C     0.83278   0.49998   0.66365   0.00000  Uiso   1.00
C820   C     0.83389   0.50000   0.83635   0.00000  Uiso   1.00
C821   C     0.87185   0.50360   0.90770   0.00000  Uiso   1.00
C822   C     0.79481   0.50351   0.59231   0.00000  Uiso   1.00
C823   C     0.83429   0.50022   0.88401   0.00000  Uiso   1.00
C824   C     0.91326   0.50001   0.74665   0.00000  Uiso   1.00
C825   C     0.83237   0.50017   0.61599   0.00000  Uiso   1.00
C826   C     0.79679   0.49920   0.90495   0.00000  Uiso   1.00
C827   C     0.86987   0.49917   0.59504   0.00000  Uiso   1.00
C828   C     0.79619   0.50579   0.95119   0.00000  Uiso   1.00
C829   C     0.87047   0.50579   0.54881   0.00000  Uiso   1.00
C830   C     0.83376   0.50465   0.97647   0.00000  Uiso   1.00
C831   C     0.83290   0.50464   0.52353   0.00000  Uiso   1.00
C832   C     0.87210   0.50278   0.95483   0.00000  Uiso   1.00
C833   C     0.79456   0.50273   0.54517   0.00000  Uiso   1.00
C834   C     0.75908   0.51123   0.97314   0.00000  Uiso   1.00
C835   C     0.75777   0.50250   0.51872   0.00000  Uiso   1.00
C836   C     0.90759   0.51126   0.52686   0.00000  Uiso   1.00
C837   C     0.90889   0.50257   0.98127   0.00000  Uiso   1.00
C838   C     0.68749   0.45852   0.75489   0.00000  Uiso   1.00
C839   C     0.97919   0.54143   0.74518   0.00000  Uiso   1.00
C840   C     0.97912   0.45858   0.74480   0.00000  Uiso   1.00
C841   C     0.68755   0.54136   0.75537   0.00000  Uiso   1.00
C842   C     0.95762   0.50002   0.74359   0.00000  Uiso   1.00
Cl843  Cl    0.91664   0.51314   0.87645   0.00000  Uiso   1.00
Cl844  Cl    0.71048   0.59387   0.77101   0.00000  Uiso   1.00
Cl845  Cl    0.89049   0.38656   0.81811   0.00000  Uiso   1.00
Cl846  Cl    0.77599   0.61365   0.68209   0.00000  Uiso   1.00
Cl847  Cl    0.77626   0.38644   0.68181   0.00000  Uiso   1.00
Cl848  Cl    0.89056   0.61377   0.81803   0.00000  Uiso   1.00
Cl849  Cl    0.74999   0.51286   0.62358   0.00000  Uiso   1.00
Cl850  Cl    0.75226   0.48232   0.87314   0.00000  Uiso   1.00
Cl851  Cl    0.91437   0.48224   0.62683   0.00000  Uiso   1.00
Cl852  Cl    0.71073   0.48131   0.53755   0.00000  Uiso   1.00
Cl853  Cl    0.95591   0.48144   0.96239   0.00000  Uiso   1.00
Cl854  Cl    0.71036   0.40580   0.76980   0.00000  Uiso   1.00
Cl855  Cl    0.95639   0.59412   0.73009   0.00000  Uiso   1.00
Cl856  Cl    0.95616   0.40601   0.72938   0.00000  Uiso   1.00
I857   I     0.70940   0.55005   0.94446   0.00000  Uiso   1.00
I858   I     0.95736   0.54998   0.55561   0.00000  Uiso   1.00
N859   N     0.83333   0.61907   0.75000   0.00000  Uiso   1.00
N860   N     0.83333   0.38093   0.75000   0.00000  Uiso   1.00
O861   O     0.77226   0.53821   0.74999   0.00000  Uiso   1.00
O862   O     0.89441   0.46179   0.75001   0.00000  Uiso   1.00
O863   O     0.89441   0.53821   0.75000   0.00000  Uiso   1.00
O864   O     0.77226   0.46179   0.75000   0.00000  Uiso   1.00
O865   O     0.83333   0.53823   0.68392   0.00000  Uiso   1.00
O866   O     0.83334   0.46177   0.81608   0.00000  Uiso   1.00
O867   O     0.83334   0.53823   0.81607   0.00000  Uiso   1.00
O868   O     0.83333   0.46177   0.68392   0.00000  Uiso   1.00
Zn869  Zn    0.83333   0.55104   0.75000   0.00000  Uiso   1.00
Zn870  Zn    0.83333   0.44896   0.75000   0.00000  Uiso   1.00
C871   C     0.08674   0.83332   0.75338   0.00000  Uiso   1.00
C872   C     0.04239   0.83327   0.75650   0.00000  Uiso   1.00
C873   C     0.19151   0.69068   0.77957   0.00000  Uiso   1.00
C874   C     0.14179   0.97604   0.72047   0.00000  Uiso   1.00
C875   C     0.14183   0.69063   0.72043   0.00000  Uiso   1.00
C876   C     0.19152   0.97609   0.77954   0.00000  Uiso   1.00
C877   C     0.16611   0.83332   0.66365   0.00000  Uiso   1.00
C878   C     0.16723   0.83333   0.83635   0.00000  Uiso   1.00
C879   C     0.20518   0.83693   0.90770   0.00000  Uiso   1.00
C880   C     0.12814   0.83684   0.59231   0.00000  Uiso   1.00
C881   C     0.16763   0.83356   0.88401   0.00000  Uiso   1.00
C882   C     0.24660   0.83334   0.74665   0.00000  Uiso   1.00
C883   C     0.16570   0.83351   0.61599   0.00000  Uiso   1.00
C884   C     0.13012   0.83253   0.90495   0.00000  Uiso   1.00
C885   C     0.20320   0.83250   0.59504   0.00000  Uiso   1.00
C886   C     0.12952   0.83912   0.95119   0.00000  Uiso   1.00
C887   C     0.20381   0.83912   0.54881   0.00000  Uiso   1.00
C888   C     0.16710   0.83798   0.97647   0.00000  Uiso   1.00
C889   C     0.16623   0.83797   0.52353   0.00000  Uiso   1.00
C890   C     0.20543   0.83612   0.95483   0.00000  Uiso   1.00
C891   C     0.12789   0.83606   0.54517   0.00000  Uiso   1.00
C892   C     0.09242   0.84457   0.97314   0.00000  Uiso   1.00
C893   C     0.09110   0.83584   0.51872   0.00000  Uiso   1.00
C894   C     0.24092   0.84459   0.52686   0.00000  Uiso   1.00
C895   C     0.24222   0.83590   0.98127   0.00000  Uiso   1.00
C896   C     0.02083   0.79185   0.75489   0.00000  Uiso   1.00
C897   C     0.31253   0.87476   0.74518   0.00000  Uiso   1.00
C898   C     0.31245   0.79191   0.74480   0.00000  Uiso   1.00
C899   C     0.02088   0.87470   0.75537   0.00000  Uiso   1.00
C900   C     0.29096   0.83335   0.74359   0.00000  Uiso   1.00
Cl901  Cl    0.24997   0.84647   0.87645   0.00000  Uiso   1.00
Cl902  Cl    0.04381   0.92721   0.77101   0.00000  Uiso   1.00
Cl903  Cl    0.22382   0.71989   0.81811   0.00000  Uiso   1.00
Cl904  Cl    0.10932   0.94698   0.68209   0.00000  Uiso   1.00
Cl905  Cl    0.10959   0.71978   0.68181   0.00000  Uiso   1.00
Cl906  Cl    0.22390   0.94710   0.81803   0.00000  Uiso   1.00
Cl907  Cl    0.08332   0.84619   0.62358   0.00000  Uiso   1.00
Cl908  Cl    0.08560   0.81566   0.87314   0.00000  Uiso   1.00
Cl909  Cl    0.24770   0.81557   0.62683   0.00000  Uiso   1.00
Cl910  Cl    0.04407   0.81465   0.53755   0.00000  Uiso   1.00
Cl911  Cl    0.28925   0.81477   0.96239   0.00000  Uiso   1.00
Cl912  Cl    0.04369   0.73913   0.76980   0.00000  Uiso   1.00
Cl913  Cl    0.28972   0.92745   0.73009   0.00000  Uiso   1.00
Cl914  Cl    0.28949   0.73934   0.72938   0.00000  Uiso   1.00
I915   I     0.04273   0.88339   0.94446   0.00000  Uiso   1.00
I916   I     0.29070   0.88331   0.55561   0.00000  Uiso   1.00
N917   N     0.16667   0.95240   0.75000   0.00000  Uiso   1.00
N918   N     0.16667   0.71427   0.75000   0.00000  Uiso   1.00
O919   O     0.10559   0.87154   0.74999   0.00000  Uiso   1.00
O920   O     0.22774   0.79513   0.75001   0.00000  Uiso   1.00
O921   O     0.22774   0.87154   0.75000   0.00000  Uiso   1.00
O922   O     0.10559   0.79513   0.75000   0.00000  Uiso   1.00
O923   O     0.16666   0.87156   0.68392   0.00000  Uiso   1.00
O924   O     0.16667   0.79511   0.81608   0.00000  Uiso   1.00
O925   O     0.16667   0.87156   0.81607   0.00000  Uiso   1.00
O926   O     0.16666   0.79511   0.68392   0.00000  Uiso   1.00
Zn927  Zn    0.16667   0.88437   0.75000   0.00000  Uiso   1.00
Zn928  Zn    0.16667   0.78229   0.75000   0.00000  Uiso   1.00
C929   C     0.42008   0.83332   0.75338   0.00000  Uiso   1.00
C930   C     0.37572   0.83327   0.75650   0.00000  Uiso   1.00
C931   C     0.52484   0.69068   0.77957   0.00000  Uiso   1.00
C932   C     0.47513   0.97604   0.72047   0.00000  Uiso   1.00
C933   C     0.47516   0.69063   0.72043   0.00000  Uiso   1.00
C934   C     0.52486   0.97609   0.77954   0.00000  Uiso   1.00
C935   C     0.49944   0.83332   0.66365   0.00000  Uiso   1.00
C936   C     0.50056   0.83333   0.83635   0.00000  Uiso   1.00
C937   C     0.53852   0.83693   0.90770   0.00000  Uiso   1.00
C938   C     0.46148   0.83684   0.59231   0.00000  Uiso   1.00
C939   C     0.50096   0.83356   0.88401   0.00000  Uiso   1.00
C940   C     0.57993   0.83334   0.74665   0.00000  Uiso   1.00
C941   C     0.49904   0.83351   0.61599   0.00000  Uiso   1.00
C942   C     0.46346   0.83253   0.90495   0.00000  Uiso   1.00
C943   C     0.53654   0.83250   0.59504   0.00000  Uiso   1.00
C944   C     0.46286   0.83912   0.95119   0.00000  Uiso   1.00
C945   C     0.53714   0.83912   0.54881   0.00000  Uiso   1.00
C946   C     0.50043   0.83798   0.97647   0.00000  Uiso   1.00
C947   C     0.49956   0.83797   0.52353   0.00000  Uiso   1.00
C948   C     0.53877   0.83612   0.95483   0.00000  Uiso   1.00
C949   C     0.46122   0.83606   0.54517   0.00000  Uiso   1.00
C950   C     0.42575   0.84457   0.97314   0.00000  Uiso   1.00
C951   C     0.42444   0.83584   0.51872   0.00000  Uiso   1.00
C952   C     0.57425   0.84459   0.52686   0.00000  Uiso   1.00
C953   C     0.57555   0.83590   0.98127   0.00000  Uiso   1.00
C954   C     0.35416   0.79185   0.75489   0.00000  Uiso   1.00
C955   C     0.64586   0.87476   0.74518   0.00000  Uiso   1.00
C956   C     0.64579   0.79191   0.74480   0.00000  Uiso   1.00
C957   C     0.35422   0.87470   0.75537   0.00000  Uiso   1.00
C958   C     0.62429   0.83335   0.74359   0.00000  Uiso   1.00
Cl959  Cl    0.58331   0.84647   0.87645   0.00000  Uiso   1.00
Cl960  Cl    0.37715   0.92721   0.77101   0.00000  Uiso   1.00
Cl961  Cl    0.55716   0.71989   0.81811   0.00000  Uiso   1.00
Cl962  Cl    0.44266   0.94698   0.68209   0.00000  Uiso   1.00
Cl963  Cl    0.44293   0.71978   0.68181   0.00000  Uiso   1.00
Cl964  Cl    0.55723   0.94710   0.81803   0.00000  Uiso   1.00
Cl965  Cl    0.41666   0.84619   0.62358   0.00000  Uiso   1.00
Cl966  Cl    0.41893   0.81566   0.87314   0.00000  Uiso   1.00
Cl967  Cl    0.58104   0.81557   0.62683   0.00000  Uiso   1.00
Cl968  Cl    0.37740   0.81465   0.53755   0.00000  Uiso   1.00
Cl969  Cl    0.62258   0.81477   0.96239   0.00000  Uiso   1.00
Cl970  Cl    0.37703   0.73913   0.76980   0.00000  Uiso   1.00
Cl971  Cl    0.62305   0.92745   0.73009   0.00000  Uiso   1.00
Cl972  Cl    0.62283   0.73934   0.72938   0.00000  Uiso   1.00
I973   I     0.37606   0.88339   0.94446   0.00000  Uiso   1.00
I974   I     0.62403   0.88331   0.55561   0.00000  Uiso   1.00
N975   N     0.50000   0.95240   0.75000   0.00000  Uiso   1.00
N976   N     0.50000   0.71427   0.75000   0.00000  Uiso   1.00
O977   O     0.43892   0.87154   0.74999   0.00000  Uiso   1.00
O978   O     0.56108   0.79513   0.75001   0.00000  Uiso   1.00
O979   O     0.56108   0.87154   0.75000   0.00000  Uiso   1.00
O980   O     0.43892   0.79513   0.75000   0.00000  Uiso   1.00
O981   O     0.49999   0.87156   0.68392   0.00000  Uiso   1.00
O982   O     0.50001   0.79511   0.81608   0.00000  Uiso   1.00
O983   O     0.50001   0.87156   0.81607   0.00000  Uiso   1.00
O984   O     0.49999   0.79511   0.68392   0.00000  Uiso   1.00
Zn985  Zn    0.50000   0.88437   0.75000   0.00000  Uiso   1.00
Zn986  Zn    0.50000   0.78229   0.75000   0.00000  Uiso   1.00
C987   C     0.75341   0.83332   0.75338   0.00000  Uiso   1.00
C988   C     0.70906   0.83327   0.75650   0.00000  Uiso   1.00
C989   C     0.85818   0.69068   0.77957   0.00000  Uiso   1.00
C990   C     0.80846   0.97604   0.72047   0.00000  Uiso   1.00
C991   C     0.80850   0.69063   0.72043   0.00000  Uiso   1.00
C992   C     0.85819   0.97609   0.77954   0.00000  Uiso   1.00
C993   C     0.83278   0.83332   0.66365   0.00000  Uiso   1.00
C994   C     0.83389   0.83333   0.83635   0.00000  Uiso   1.00
C995   C     0.87185   0.83693   0.90770   0.00000  Uiso   1.00
C996   C     0.79481   0.83684   0.59231   0.00000  Uiso   1.00
C997   C     0.83429   0.83356   0.88401   0.00000  Uiso   1.00
C998   C     0.91326   0.83334   0.74665   0.00000  Uiso   1.00
C999   C     0.83237   0.83351   0.61599   0.00000  Uiso   1.00
C1000  C     0.79679   0.83253   0.90495   0.00000  Uiso   1.00
C1001  C     0.86987   0.83250   0.59504   0.00000  Uiso   1.00
C1002  C     0.79619   0.83912   0.95119   0.00000  Uiso   1.00
C1003  C     0.87047   0.83912   0.54881   0.00000  Uiso   1.00
C1004  C     0.83376   0.83798   0.97647   0.00000  Uiso   1.00
C1005  C     0.83290   0.83797   0.52353   0.00000  Uiso   1.00
C1006  C     0.87210   0.83612   0.95483   0.00000  Uiso   1.00
C1007  C     0.79456   0.83606   0.54517   0.00000  Uiso   1.00
C1008  C     0.75908   0.84457   0.97314   0.00000  Uiso   1.00
C1009  C     0.75777   0.83584   0.51872   0.00000  Uiso   1.00
C1010  C     0.90759   0.84459   0.52686   0.00000  Uiso   1.00
C1011  C     0.90889   0.83590   0.98127   0.00000  Uiso   1.00
C1012  C     0.68749   0.79185   0.75489   0.00000  Uiso   1.00
C1013  C     0.97919   0.87476   0.74518   0.00000  Uiso   1.00
C1014  C     0.97912   0.79191   0.74480   0.00000  Uiso   1.00
C1015  C     0.68755   0.87470   0.75537   0.00000  Uiso   1.00
C1016  C     0.95762   0.83335   0.74359   0.00000  Uiso   1.00
Cl1017 Cl    0.91664   0.84647   0.87645   0.00000  Uiso   1.00
Cl1018 Cl    0.71048   0.92721   0.77101   0.00000  Uiso   1.00
Cl1019 Cl    0.89049   0.71989   0.81811   0.00000  Uiso   1.00
Cl1020 Cl    0.77599   0.94698   0.68209   0.00000  Uiso   1.00
Cl1021 Cl    0.77626   0.71978   0.68181   0.00000  Uiso   1.00
Cl1022 Cl    0.89056   0.94710   0.81803   0.00000  Uiso   1.00
Cl1023 Cl    0.74999   0.84619   0.62358   0.00000  Uiso   1.00
Cl1024 Cl    0.75226   0.81566   0.87314   0.00000  Uiso   1.00
Cl1025 Cl    0.91437   0.81557   0.62683   0.00000  Uiso   1.00
Cl1026 Cl    0.71073   0.81465   0.53755   0.00000  Uiso   1.00
Cl1027 Cl    0.95591   0.81477   0.96239   0.00000  Uiso   1.00
Cl1028 Cl    0.71036   0.73913   0.76980   0.00000  Uiso   1.00
Cl1029 Cl    0.95639   0.92745   0.73009   0.00000  Uiso   1.00
Cl1030 Cl    0.95616   0.73934   0.72938   0.00000  Uiso   1.00
I1031  I     0.70940   0.88339   0.94446   0.00000  Uiso   1.00
I1032  I     0.95736   0.88331   0.55561   0.00000  Uiso   1.00
N1033  N     0.83333   0.95240   0.75000   0.00000  Uiso   1.00
N1034  N     0.83333   0.71427   0.75000   0.00000  Uiso   1.00
O1035  O     0.77226   0.87154   0.74999   0.00000  Uiso   1.00
O1036  O     0.89441   0.79513   0.75001   0.00000  Uiso   1.00
O1037  O     0.89441   0.87154   0.75000   0.00000  Uiso   1.00
O1038  O     0.77226   0.79513   0.75000   0.00000  Uiso   1.00
O1039  O     0.83333   0.87156   0.68392   0.00000  Uiso   1.00
O1040  O     0.83334   0.79511   0.81608   0.00000  Uiso   1.00
O1041  O     0.83334   0.87156   0.81607   0.00000  Uiso   1.00
O1042  O     0.83333   0.79511   0.68392   0.00000  Uiso   1.00
Zn1043 Zn    0.83333   0.88437   0.75000   0.00000  Uiso   1.00
Zn1044 Zn    0.83333   0.78229   0.75000   0.00000  Uiso   1.00
loop_
_geom_bond_atom_site_label_1
_geom_bond_atom_site_label_2
_geom_bond_distance
_geom_bond_site_symmetry_2
_ccdc_geom_bond_type
C1     C2      1.450   .     S
C1     O52     1.292   .     A
C1     O49     1.292   .     A
C2     C26     1.412   .     A
C2     C29     1.412   .     A
C3     N48     1.369   .     A
C3     Cl33    1.760   .     S
C3     C354    1.418   1_545 S
C4     Cl34    1.758   .     S
C4     N47     1.370   .     A
C4     C179    1.419   .     S
C5     Cl35    1.760   .     S
C5     N48     1.369   .     A
C5     C352    1.419   1_545 S
C6     N47     1.370   .     A
C6     Cl36    1.758   .     S
C6     C177    1.418   .     S
C7     O56     1.283   .     A
C7     O53     1.283   .     A
C7     C13     1.422   .     S
C8     C11     1.422   .     S
C8     O55     1.283   .     A
C8     O54     1.283   .     A
C9     C20     1.407   .     A
C9     Cl31    1.779   .     S
C9     C11     1.396   .     A
C10    C13     1.396   .     A
C10    Cl37    1.779   .     S
C10    C21     1.407   .     A
C11    C14     1.390   .     A
C12    O50     1.292   .     A
C12    O51     1.292   .     A
C12    C30     1.450   .     S
C13    C15     1.390   .     A
C14    C16     1.395   .     A
C14    Cl38    1.778   .     S
C15    Cl39    1.778   .     S
C15    C17     1.395   .     A
C16    C18     1.417   .     A
C16    C22     1.402   .     A
C17    C24     1.402   .     A
C17    C19     1.417   .     A
C18    C20     1.425   .     A
C18    C541    1.406   .     S
C19    C21     1.425   .     A
C19    C540    1.406   1_554 S
C20    C25     1.413   .     A
C21    C23     1.413   .     A
C22    I45     2.141   .     S
C22    C545    1.387   .     S
C23    Cl40    1.763   .     S
C23    C544    1.387   1_554 S
C24    I46     2.141   .     S
C24    C547    1.387   1_554 S
C25    Cl41    1.763   .     S
C25    C546    1.387   .     S
C26    Cl42    1.780   .     S
C26    C144    1.381   1_455 S
C27    C30     1.412   .     A
C27    Cl43    1.780   .     S
C27    C87     1.381   .     S
C28    C30     1.412   .     A
C28    Cl44    1.780   .     S
C28    C84     1.381   .     S
C29    Cl32    1.779   .     S
C29    C143    1.381   1_455 S
N47    Zn57    2.013   .     S
N48    Zn58    2.013   .     S
O49    Zn57    2.024   .     S
O50    Zn58    2.024   .     S
O51    Zn57    2.024   .     S
O52    Zn58    2.024   .     S
O53    Zn57    2.008   .     S
O54    Zn58    2.008   .     S
O55    Zn57    2.008   .     S
O56    Zn58    2.008   .     S
C59    C60     1.450   .     S
C59    O110    1.292   .     A
C59    O107    1.292   .     A
C60    C84     1.412   .     A
C60    C87     1.412   .     A
C61    N106    1.369   .     A
C61    Cl91    1.760   .     S
C61    C412    1.418   1_545 S
C62    Cl92    1.758   .     S
C62    N105    1.370   .     A
C62    C237    1.419   .     S
C63    Cl93    1.760   .     S
C63    N106    1.369   .     A
C63    C410    1.419   1_545 S
C64    N105    1.370   .     A
C64    Cl94    1.758   .     S
C64    C235    1.418   .     S
C65    O114    1.283   .     A
C65    O111    1.283   .     A
C65    C71     1.422   .     S
C66    C69     1.422   .     S
C66    O113    1.283   .     A
C66    O112    1.283   .     A
C67    C78     1.407   .     A
C67    Cl89    1.779   .     S
C67    C69     1.396   .     A
C68    C71     1.396   .     A
C68    Cl95    1.779   .     S
C68    C79     1.407   .     A
C69    C72     1.390   .     A
C70    O108    1.292   .     A
C70    O109    1.292   .     A
C70    C88     1.450   .     S
C71    C73     1.390   .     A
C72    C74     1.395   .     A
C72    Cl96    1.778   .     S
C73    Cl97    1.778   .     S
C73    C75     1.395   .     A
C74    C76     1.417   .     A
C74    C80     1.402   .     A
C75    C82     1.402   .     A
C75    C77     1.417   .     A
C76    C78     1.425   .     A
C76    C599    1.406   .     S
C77    C79     1.425   .     A
C77    C598    1.406   1_554 S
C78    C83     1.413   .     A
C79    C81     1.413   .     A
C80    I103    2.141   .     S
C80    C603    1.387   .     S
C81    Cl98    1.763   .     S
C81    C602    1.387   1_554 S
C82    I104    2.141   .     S
C82    C605    1.387   1_554 S
C83    Cl99    1.763   .     S
C83    C604    1.387   .     S
C84    Cl100   1.780   .     S
C85    C88     1.412   .     A
C85    Cl101   1.780   .     S
C85    C145    1.381   .     S
C86    C88     1.412   .     A
C86    Cl102   1.780   .     S
C86    C142    1.381   .     S
C87    Cl90    1.779   .     S
N105   Zn115   2.013   .     S
N106   Zn116   2.013   .     S
O107   Zn115   2.024   .     S
O108   Zn116   2.024   .     S
O109   Zn115   2.024   .     S
O110   Zn116   2.024   .     S
O111   Zn115   2.008   .     S
O112   Zn116   2.008   .     S
O113   Zn115   2.008   .     S
O114   Zn116   2.008   .     S
C117   C118    1.450   .     S
C117   O168    1.292   .     A
C117   O165    1.292   .     A
C118   C142    1.412   .     A
C118   C145    1.412   .     A
C119   N164    1.369   .     A
C119   Cl149   1.760   .     S
C119   C470    1.418   1_545 S
C120   Cl150   1.758   .     S
C120   N163    1.370   .     A
C120   C295    1.419   .     S
C121   Cl151   1.760   .     S
C121   N164    1.369   .     A
C121   C468    1.419   1_545 S
C122   N163    1.370   .     A
C122   Cl152   1.758   .     S
C122   C293    1.418   .     S
C123   O172    1.283   .     A
C123   O169    1.283   .     A
C123   C129    1.422   .     S
C124   C127    1.422   .     S
C124   O171    1.283   .     A
C124   O170    1.283   .     A
C125   C136    1.407   .     A
C125   Cl147   1.779   .     S
C125   C127    1.396   .     A
C126   C129    1.396   .     A
C126   Cl153   1.779   .     S
C126   C137    1.407   .     A
C127   C130    1.390   .     A
C128   O166    1.292   .     A
C128   O167    1.292   .     A
C128   C146    1.450   .     S
C129   C131    1.390   .     A
C130   C132    1.395   .     A
C130   Cl154   1.778   .     S
C131   Cl155   1.778   .     S
C131   C133    1.395   .     A
C132   C134    1.417   .     A
C132   C138    1.402   .     A
C133   C140    1.402   .     A
C133   C135    1.417   .     A
C134   C136    1.425   .     A
C134   C657    1.406   .     S
C135   C137    1.425   .     A
C135   C656    1.406   1_554 S
C136   C141    1.413   .     A
C137   C139    1.413   .     A
C138   I161    2.141   .     S
C138   C661    1.387   .     S
C139   Cl156   1.763   .     S
C139   C660    1.387   1_554 S
C140   I162    2.141   .     S
C140   C663    1.387   1_554 S
C141   Cl157   1.763   .     S
C141   C662    1.387   .     S
C142   Cl158   1.780   .     S
C143   C146    1.412   .     A
C143   Cl159   1.780   .     S
C143   C29     1.381   1_655 S
C144   C146    1.412   .     A
C144   Cl160   1.780   .     S
C144   C26     1.381   1_655 S
C145   Cl148   1.779   .     S
N163   Zn173   2.013   .     S
N164   Zn174   2.013   .     S
O165   Zn173   2.024   .     S
O166   Zn174   2.024   .     S
O167   Zn173   2.024   .     S
O168   Zn174   2.024   .     S
O169   Zn173   2.008   .     S
O170   Zn174   2.008   .     S
O171   Zn173   2.008   .     S
O172   Zn174   2.008   .     S
C175   C176    1.450   .     S
C175   O226    1.292   .     A
C175   O223    1.292   .     A
C176   C200    1.412   .     A
C176   C203    1.412   .     A
C177   N222    1.369   .     A
C177   Cl207   1.760   .     S
C178   Cl208   1.758   .     S
C178   N221    1.370   .     A
C178   C353    1.419   .     S
C179   Cl209   1.760   .     S
C179   N222    1.369   .     A
C180   N221    1.370   .     A
C180   Cl210   1.758   .     S
C180   C351    1.418   .     S
C181   O230    1.283   .     A
C181   O227    1.283   .     A
C181   C187    1.422   .     S
C182   C185    1.422   .     S
C182   O229    1.283   .     A
C182   O228    1.283   .     A
C183   C194    1.407   .     A
C183   Cl205   1.779   .     S
C183   C185    1.396   .     A
C184   C187    1.396   .     A
C184   Cl211   1.779   .     S
C184   C195    1.407   .     A
C185   C188    1.390   .     A
C186   O224    1.292   .     A
C186   O225    1.292   .     A
C186   C204    1.450   .     S
C187   C189    1.390   .     A
C188   C190    1.395   .     A
C188   Cl212   1.778   .     S
C189   Cl213   1.778   .     S
C189   C191    1.395   .     A
C190   C192    1.417   .     A
C190   C196    1.402   .     A
C191   C198    1.402   .     A
C191   C193    1.417   .     A
C192   C194    1.425   .     A
C192   C715    1.406   .     S
C193   C195    1.425   .     A
C193   C714    1.406   1_554 S
C194   C199    1.413   .     A
C195   C197    1.413   .     A
C196   I219    2.141   .     S
C196   C719    1.387   .     S
C197   Cl214   1.763   .     S
C197   C718    1.387   1_554 S
C198   I220    2.141   .     S
C198   C721    1.387   1_554 S
C199   Cl215   1.763   .     S
C199   C720    1.387   .     S
C200   Cl216   1.780   .     S
C200   C318    1.381   1_455 S
C201   C204    1.412   .     A
C201   Cl217   1.780   .     S
C201   C261    1.381   .     S
C202   C204    1.412   .     A
C202   Cl218   1.780   .     S
C202   C258    1.381   .     S
C203   Cl206   1.779   .     S
C203   C317    1.381   1_455 S
N221   Zn231   2.013   .     S
N222   Zn232   2.013   .     S
O223   Zn231   2.024   .     S
O224   Zn232   2.024   .     S
O225   Zn231   2.024   .     S
O226   Zn232   2.024   .     S
O227   Zn231   2.008   .     S
O228   Zn232   2.008   .     S
O229   Zn231   2.008   .     S
O230   Zn232   2.008   .     S
C233   C234    1.450   .     S
C233   O284    1.292   .     A
C233   O281    1.292   .     A
C234   C258    1.412   .     A
C234   C261    1.412   .     A
C235   N280    1.369   .     A
C235   Cl265   1.760   .     S
C236   Cl266   1.758   .     S
C236   N279    1.370   .     A
C236   C411    1.419   .     S
C237   Cl267   1.760   .     S
C237   N280    1.369   .     A
C238   N279    1.370   .     A
C238   Cl268   1.758   .     S
C238   C409    1.418   .     S
C239   O288    1.283   .     A
C239   O285    1.283   .     A
C239   C245    1.422   .     S
C240   C243    1.422   .     S
C240   O287    1.283   .     A
C240   O286    1.283   .     A
C241   C252    1.407   .     A
C241   Cl263   1.779   .     S
C241   C243    1.396   .     A
C242   C245    1.396   .     A
C242   Cl269   1.779   .     S
C242   C253    1.407   .     A
C243   C246    1.390   .     A
C244   O282    1.292   .     A
C244   O283    1.292   .     A
C244   C262    1.450   .     S
C245   C247    1.390   .     A
C246   C248    1.395   .     A
C246   Cl270   1.778   .     S
C247   Cl271   1.778   .     S
C247   C249    1.395   .     A
C248   C250    1.417   .     A
C248   C254    1.402   .     A
C249   C256    1.402   .     A
C249   C251    1.417   .     A
C250   C252    1.425   .     A
C250   C773    1.406   .     S
C251   C253    1.425   .     A
C251   C772    1.406   1_554 S
C252   C257    1.413   .     A
C253   C255    1.413   .     A
C254   I277    2.141   .     S
C254   C777    1.387   .     S
C255   Cl272   1.763   .     S
C255   C776    1.387   1_554 S
C256   I278    2.141   .     S
C256   C779    1.387   1_554 S
C257   Cl273   1.763   .     S
C257   C778    1.387   .     S
C258   Cl274   1.780   .     S
C259   C262    1.412   .     A
C259   Cl275   1.780   .     S
C259   C319    1.381   .     S
C260   C262    1.412   .     A
C260   Cl276   1.780   .     S
C260   C316    1.381   .     S
C261   Cl264   1.779   .     S
N279   Zn289   2.013   .     S
N280   Zn290   2.013   .     S
O281   Zn289   2.024   .     S
O282   Zn290   2.024   .     S
O283   Zn289   2.024   .     S
O284   Zn290   2.024   .     S
O285   Zn289   2.008   .     S
O286   Zn290   2.008   .     S
O287   Zn289   2.008   .     S
O288   Zn290   2.008   .     S
C291   C292    1.450   .     S
C291   O342    1.292   .     A
C291   O339    1.292   .     A
C292   C316    1.412   .     A
C292   C319    1.412   .     A
C293   N338    1.369   .     A
C293   Cl323   1.760   .     S
C294   Cl324   1.758   .     S
C294   N337    1.370   .     A
C294   C469    1.419   .     S
C295   Cl325   1.760   .     S
C295   N338    1.369   .     A
C296   N337    1.370   .     A
C296   Cl326   1.758   .     S
C296   C467    1.418   .     S
C297   O346    1.283   .     A
C297   O343    1.283   .     A
C297   C303    1.422   .     S
C298   C301    1.422   .     S
C298   O345    1.283   .     A
C298   O344    1.283   .     A
C299   C310    1.407   .     A
C299   Cl321   1.779   .     S
C299   C301    1.396   .     A
C300   C303    1.396   .     A
C300   Cl327   1.779   .     S
C300   C311    1.407   .     A
C301   C304    1.390   .     A
C302   O340    1.292   .     A
C302   O341    1.292   .     A
C302   C320    1.450   .     S
C303   C305    1.390   .     A
C304   C306    1.395   .     A
C304   Cl328   1.778   .     S
C305   Cl329   1.778   .     S
C305   C307    1.395   .     A
C306   C308    1.417   .     A
C306   C312    1.402   .     A
C307   C314    1.402   .     A
C307   C309    1.417   .     A
C308   C310    1.425   .     A
C308   C831    1.406   .     S
C309   C311    1.425   .     A
C309   C830    1.406   1_554 S
C310   C315    1.413   .     A
C311   C313    1.413   .     A
C312   I335    2.141   .     S
C312   C835    1.387   .     S
C313   Cl330   1.763   .     S
C313   C834    1.387   1_554 S
C314   I336    2.141   .     S
C314   C837    1.387   1_554 S
C315   Cl331   1.763   .     S
C315   C836    1.387   .     S
C316   Cl332   1.780   .     S
C317   C320    1.412   .     A
C317   Cl333   1.780   .     S
C317   C203    1.381   1_655 S
C318   C320    1.412   .     A
C318   Cl334   1.780   .     S
C318   C200    1.381   1_655 S
C319   Cl322   1.779   .     S
N337   Zn347   2.013   .     S
N338   Zn348   2.013   .     S
O339   Zn347   2.024   .     S
O340   Zn348   2.024   .     S
O341   Zn347   2.024   .     S
O342   Zn348   2.024   .     S
O343   Zn347   2.008   .     S
O344   Zn348   2.008   .     S
O345   Zn347   2.008   .     S
O346   Zn348   2.008   .     S
C349   C350    1.450   .     S
C349   O400    1.292   .     A
C349   O397    1.292   .     A
C350   C374    1.412   .     A
C350   C377    1.412   .     A
C351   N396    1.369   .     A
C351   Cl381   1.760   .     S
C352   Cl382   1.758   .     S
C352   N395    1.370   .     A
C352   C5      1.419   1_565 S
C353   Cl383   1.760   .     S
C353   N396    1.369   .     A
C354   N395    1.370   .     A
C354   Cl384   1.758   .     S
C354   C3      1.418   1_565 S
C355   O404    1.283   .     A
C355   O401    1.283   .     A
C355   C361    1.422   .     S
C356   C359    1.422   .     S
C356   O403    1.283   .     A
C356   O402    1.283   .     A
C357   C368    1.407   .     A
C357   Cl379   1.779   .     S
C357   C359    1.396   .     A
C358   C361    1.396   .     A
C358   Cl385   1.779   .     S
C358   C369    1.407   .     A
C359   C362    1.390   .     A
C360   O398    1.292   .     A
C360   O399    1.292   .     A
C360   C378    1.450   .     S
C361   C363    1.390   .     A
C362   C364    1.395   .     A
C362   Cl386   1.778   .     S
C363   Cl387   1.778   .     S
C363   C365    1.395   .     A
C364   C366    1.417   .     A
C364   C370    1.402   .     A
C365   C372    1.402   .     A
C365   C367    1.417   .     A
C366   C368    1.425   .     A
C366   C889    1.406   .     S
C367   C369    1.425   .     A
C367   C888    1.406   1_554 S
C368   C373    1.413   .     A
C369   C371    1.413   .     A
C370   I393    2.141   .     S
C370   C893    1.387   .     S
C371   Cl388   1.763   .     S
C371   C892    1.387   1_554 S
C372   I394    2.141   .     S
C372   C895    1.387   1_554 S
C373   Cl389   1.763   .     S
C373   C894    1.387   .     S
C374   Cl390   1.780   .     S
C374   C492    1.381   1_455 S
C375   C378    1.412   .     A
C375   Cl391   1.780   .     S
C375   C435    1.381   .     S
C376   C378    1.412   .     A
C376   Cl392   1.780   .     S
C376   C432    1.381   .     S
C377   Cl380   1.779   .     S
C377   C491    1.381   1_455 S
N395   Zn405   2.013   .     S
N396   Zn406   2.013   .     S
O397   Zn405   2.024   .     S
O398   Zn406   2.024   .     S
O399   Zn405   2.024   .     S
O400   Zn406   2.024   .     S
O401   Zn405   2.008   .     S
O402   Zn406   2.008   .     S
O403   Zn405   2.008   .     S
O404   Zn406   2.008   .     S
C407   C408    1.450   .     S
C407   O458    1.292   .     A
C407   O455    1.292   .     A
C408   C432    1.412   .     A
C408   C435    1.412   .     A
C409   N454    1.369   .     A
C409   Cl439   1.760   .     S
C410   Cl440   1.758   .     S
C410   N453    1.370   .     A
C410   C63     1.419   1_565 S
C411   Cl441   1.760   .     S
C411   N454    1.369   .     A
C412   N453    1.370   .     A
C412   Cl442   1.758   .     S
C412   C61     1.418   1_565 S
C413   O462    1.283   .     A
C413   O459    1.283   .     A
C413   C419    1.422   .     S
C414   C417    1.422   .     S
C414   O461    1.283   .     A
C414   O460    1.283   .     A
C415   C426    1.407   .     A
C415   Cl437   1.779   .     S
C415   C417    1.396   .     A
C416   C419    1.396   .     A
C416   Cl443   1.779   .     S
C416   C427    1.407   .     A
C417   C420    1.390   .     A
C418   O456    1.292   .     A
C418   O457    1.292   .     A
C418   C436    1.450   .     S
C419   C421    1.390   .     A
C420   C422    1.395   .     A
C420   Cl444   1.778   .     S
C421   Cl445   1.778   .     S
C421   C423    1.395   .     A
C422   C424    1.417   .     A
C422   C428    1.402   .     A
C423   C430    1.402   .     A
C423   C425    1.417   .     A
C424   C426    1.425   .     A
C424   C947    1.406   .     S
C425   C427    1.425   .     A
C425   C946    1.406   1_554 S
C426   C431    1.413   .     A
C427   C429    1.413   .     A
C428   I451    2.141   .     S
C428   C951    1.387   .     S
C429   Cl446   1.763   .     S
C429   C950    1.387   1_554 S
C430   I452    2.141   .     S
C430   C953    1.387   1_554 S
C431   Cl447   1.763   .     S
C431   C952    1.387   .     S
C432   Cl448   1.780   .     S
C433   C436    1.412   .     A
C433   Cl449   1.780   .     S
C433   C493    1.381   .     S
C434   C436    1.412   .     A
C434   Cl450   1.780   .     S
C434   C490    1.381   .     S
C435   Cl438   1.779   .     S
N453   Zn463   2.013   .     S
N454   Zn464   2.013   .     S
O455   Zn463   2.024   .     S
O456   Zn464   2.024   .     S
O457   Zn463   2.024   .     S
O458   Zn464   2.024   .     S
O459   Zn463   2.008   .     S
O460   Zn464   2.008   .     S
O461   Zn463   2.008   .     S
O462   Zn464   2.008   .     S
C465   C466    1.450   .     S
C465   O516    1.292   .     A
C465   O513    1.292   .     A
C466   C490    1.412   .     A
C466   C493    1.412   .     A
C467   N512    1.369   .     A
C467   Cl497   1.760   .     S
C468   Cl498   1.758   .     S
C468   N511    1.370   .     A
C468   C121    1.419   1_565 S
C469   Cl499   1.760   .     S
C469   N512    1.369   .     A
C470   N511    1.370   .     A
C470   Cl500   1.758   .     S
C470   C119    1.418   1_565 S
C471   O520    1.283   .     A
C471   O517    1.283   .     A
C471   C477    1.422   .     S
C472   C475    1.422   .     S
C472   O519    1.283   .     A
C472   O518    1.283   .     A
C473   C484    1.407   .     A
C473   Cl495   1.779   .     S
C473   C475    1.396   .     A
C474   C477    1.396   .     A
C474   Cl501   1.779   .     S
C474   C485    1.407   .     A
C475   C478    1.390   .     A
C476   O514    1.292   .     A
C476   O515    1.292   .     A
C476   C494    1.450   .     S
C477   C479    1.390   .     A
C478   C480    1.395   .     A
C478   Cl502   1.778   .     S
C479   Cl503   1.778   .     S
C479   C481    1.395   .     A
C480   C482    1.417   .     A
C480   C486    1.402   .     A
C481   C488    1.402   .     A
C481   C483    1.417   .     A
C482   C484    1.425   .     A
C482   C1005   1.406   .     S
C483   C485    1.425   .     A
C483   C1004   1.406   1_554 S
C484   C489    1.413   .     A
C485   C487    1.413   .     A
C486   I509    2.141   .     S
C486   C1009   1.387   .     S
C487   Cl504   1.763   .     S
C487   C1008   1.387   1_554 S
C488   I510    2.141   .     S
C488   C1011   1.387   1_554 S
C489   Cl505   1.763   .     S
C489   C1010   1.387   .     S
C490   Cl506   1.780   .     S
C491   C494    1.412   .     A
C491   Cl507   1.780   .     S
C491   C377    1.381   1_655 S
C492   C494    1.412   .     A
C492   Cl508   1.780   .     S
C492   C374    1.381   1_655 S
C493   Cl496   1.779   .     S
N511   Zn521   2.013   .     S
N512   Zn522   2.013   .     S
O513   Zn521   2.024   .     S
O514   Zn522   2.024   .     S
O515   Zn521   2.024   .     S
O516   Zn522   2.024   .     S
O517   Zn521   2.008   .     S
O518   Zn522   2.008   .     S
O519   Zn521   2.008   .     S
O520   Zn522   2.008   .     S
C523   C524    1.450   .     S
C523   O574    1.292   .     A
C523   O571    1.292   .     A
C524   C548    1.412   .     A
C524   C551    1.412   .     A
C525   N570    1.369   .     A
C525   Cl555   1.760   .     S
C525   C876    1.418   1_545 S
C526   Cl556   1.758   .     S
C526   N569    1.370   .     A
C526   C701    1.419   .     S
C527   Cl557   1.760   .     S
C527   N570    1.369   .     A
C527   C874    1.419   1_545 S
C528   N569    1.370   .     A
C528   Cl558   1.758   .     S
C528   C699    1.418   .     S
C529   O578    1.283   .     A
C529   O575    1.283   .     A
C529   C535    1.422   .     S
C530   C533    1.422   .     S
C530   O577    1.283   .     A
C530   O576    1.283   .     A
C531   C542    1.407   .     A
C531   Cl553   1.779   .     S
C531   C533    1.396   .     A
C532   C535    1.396   .     A
C532   Cl559   1.779   .     S
C532   C543    1.407   .     A
C533   C536    1.390   .     A
C534   O572    1.292   .     A
C534   O573    1.292   .     A
C534   C552    1.450   .     S
C535   C537    1.390   .     A
C536   C538    1.395   .     A
C536   Cl560   1.778   .     S
C537   Cl561   1.778   .     S
C537   C539    1.395   .     A
C538   C540    1.417   .     A
C538   C544    1.402   .     A
C539   C546    1.402   .     A
C539   C541    1.417   .     A
C540   C542    1.425   .     A
C540   C19     1.406   1_556 S
C541   C543    1.425   .     A
C542   C547    1.413   .     A
C543   C545    1.413   .     A
C544   I567    2.141   .     S
C544   C23     1.387   1_556 S
C545   Cl562   1.763   .     S
C546   I568    2.141   .     S
C547   Cl563   1.763   .     S
C547   C24     1.387   1_556 S
C548   Cl564   1.780   .     S
C548   C666    1.381   1_455 S
C549   C552    1.412   .     A
C549   Cl565   1.780   .     S
C549   C609    1.381   .     S
C550   C552    1.412   .     A
C550   Cl566   1.780   .     S
C550   C606    1.381   .     S
C551   Cl554   1.779   .     S
C551   C665    1.381   1_455 S
N569   Zn579   2.013   .     S
N570   Zn580   2.013   .     S
O571   Zn579   2.024   .     S
O572   Zn580   2.024   .     S
O573   Zn579   2.024   .     S
O574   Zn580   2.024   .     S
O575   Zn579   2.008   .     S
O576   Zn580   2.008   .     S
O577   Zn579   2.008   .     S
O578   Zn580   2.008   .     S
C581   C582    1.450   .     S
C581   O632    1.292   .     A
C581   O629    1.292   .     A
C582   C606    1.412   .     A
C582   C609    1.412   .     A
C583   N628    1.369   .     A
C583   Cl613   1.760   .     S
C583   C934    1.418   1_545 S
C584   Cl614   1.758   .     S
C584   N627    1.370   .     A
C584   C759    1.419   .     S
C585   Cl615   1.760   .     S
C585   N628    1.369   .     A
C585   C932    1.419   1_545 S
C586   N627    1.370   .     A
C586   Cl616   1.758   .     S
C586   C757    1.418   .     S
C587   O636    1.283   .     A
C587   O633    1.283   .     A
C587   C593    1.422   .     S
C588   C591    1.422   .     S
C588   O635    1.283   .     A
C588   O634    1.283   .     A
C589   C600    1.407   .     A
C589   Cl611   1.779   .     S
C589   C591    1.396   .     A
C590   C593    1.396   .     A
C590   Cl617   1.779   .     S
C590   C601    1.407   .     A
C591   C594    1.390   .     A
C592   O630    1.292   .     A
C592   O631    1.292   .     A
C592   C610    1.450   .     S
C593   C595    1.390   .     A
C594   C596    1.395   .     A
C594   Cl618   1.778   .     S
C595   Cl619   1.778   .     S
C595   C597    1.395   .     A
C596   C598    1.417   .     A
C596   C602    1.402   .     A
C597   C604    1.402   .     A
C597   C599    1.417   .     A
C598   C600    1.425   .     A
C598   C77     1.406   1_556 S
C599   C601    1.425   .     A
C600   C605    1.413   .     A
C601   C603    1.413   .     A
C602   I625    2.141   .     S
C602   C81     1.387   1_556 S
C603   Cl620   1.763   .     S
C604   I626    2.141   .     S
C605   Cl621   1.763   .     S
C605   C82     1.387   1_556 S
C606   Cl622   1.780   .     S
C607   C610    1.412   .     A
C607   Cl623   1.780   .     S
C607   C667    1.381   .     S
C608   C610    1.412   .     A
C608   Cl624   1.780   .     S
C608   C664    1.381   .     S
C609   Cl612   1.779   .     S
N627   Zn637   2.013   .     S
N628   Zn638   2.013   .     S
O629   Zn637   2.024   .     S
O630   Zn638   2.024   .     S
O631   Zn637   2.024   .     S
O632   Zn638   2.024   .     S
O633   Zn637   2.008   .     S
O634   Zn638   2.008   .     S
O635   Zn637   2.008   .     S
O636   Zn638   2.008   .     S
C639   C640    1.450   .     S
C639   O690    1.292   .     A
C639   O687    1.292   .     A
C640   C664    1.412   .     A
C640   C667    1.412   .     A
C641   N686    1.369   .     A
C641   Cl671   1.760   .     S
C641   C992    1.418   1_545 S
C642   Cl672   1.758   .     S
C642   N685    1.370   .     A
C642   C817    1.419   .     S
C643   Cl673   1.760   .     S
C643   N686    1.369   .     A
C643   C990    1.419   1_545 S
C644   N685    1.370   .     A
C644   Cl674   1.758   .     S
C644   C815    1.418   .     S
C645   O694    1.283   .     A
C645   O691    1.283   .     A
C645   C651    1.422   .     S
C646   C649    1.422   .     S
C646   O693    1.283   .     A
C646   O692    1.283   .     A
C647   C658    1.407   .     A
C647   Cl669   1.779   .     S
C647   C649    1.396   .     A
C648   C651    1.396   .     A
C648   Cl675   1.779   .     S
C648   C659    1.407   .     A
C649   C652    1.390   .     A
C650   O688    1.292   .     A
C650   O689    1.292   .     A
C650   C668    1.450   .     S
C651   C653    1.390   .     A
C652   C654    1.395   .     A
C652   Cl676   1.778   .     S
C653   Cl677   1.778   .     S
C653   C655    1.395   .     A
C654   C656    1.417   .     A
C654   C660    1.402   .     A
C655   C662    1.402   .     A
C655   C657    1.417   .     A
C656   C658    1.425   .     A
C656   C135    1.406   1_556 S
C657   C659    1.425   .     A
C658   C663    1.413   .     A
C659   C661    1.413   .     A
C660   I683    2.141   .     S
C660   C139    1.387   1_556 S
C661   Cl678   1.763   .     S
C662   I684    2.141   .     S
C663   Cl679   1.763   .     S
C663   C140    1.387   1_556 S
C664   Cl680   1.780   .     S
C665   C668    1.412   .     A
C665   Cl681   1.780   .     S
C665   C551    1.381   1_655 S
C666   C668    1.412   .     A
C666   Cl682   1.780   .     S
C666   C548    1.381   1_655 S
C667   Cl670   1.779   .     S
N685   Zn695   2.013   .     S
N686   Zn696   2.013   .     S
O687   Zn695   2.024   .     S
O688   Zn696   2.024   .     S
O689   Zn695   2.024   .     S
O690   Zn696   2.024   .     S
O691   Zn695   2.008   .     S
O692   Zn696   2.008   .     S
O693   Zn695   2.008   .     S
O694   Zn696   2.008   .     S
C697   C698    1.450   .     S
C697   O748    1.292   .     A
C697   O745    1.292   .     A
C698   C722    1.412   .     A
C698   C725    1.412   .     A
C699   N744    1.369   .     A
C699   Cl729   1.760   .     S
C700   Cl730   1.758   .     S
C700   N743    1.370   .     A
C700   C875    1.419   .     S
C701   Cl731   1.760   .     S
C701   N744    1.369   .     A
C702   N743    1.370   .     A
C702   Cl732   1.758   .     S
C702   C873    1.418   .     S
C703   O752    1.283   .     A
C703   O749    1.283   .     A
C703   C709    1.422   .     S
C704   C707    1.422   .     S
C704   O751    1.283   .     A
C704   O750    1.283   .     A
C705   C716    1.407   .     A
C705   Cl727   1.779   .     S
C705   C707    1.396   .     A
C706   C709    1.396   .     A
C706   Cl733   1.779   .     S
C706   C717    1.407   .     A
C707   C710    1.390   .     A
C708   O746    1.292   .     A
C708   O747    1.292   .     A
C708   C726    1.450   .     S
C709   C711    1.390   .     A
C710   C712    1.395   .     A
C710   Cl734   1.778   .     S
C711   Cl735   1.778   .     S
C711   C713    1.395   .     A
C712   C714    1.417   .     A
C712   C718    1.402   .     A
C713   C720    1.402   .     A
C713   C715    1.417   .     A
C714   C716    1.425   .     A
C714   C193    1.406   1_556 S
C715   C717    1.425   .     A
C716   C721    1.413   .     A
C717   C719    1.413   .     A
C718   I741    2.141   .     S
C718   C197    1.387   1_556 S
C719   Cl736   1.763   .     S
C720   I742    2.141   .     S
C721   Cl737   1.763   .     S
C721   C198    1.387   1_556 S
C722   Cl738   1.780   .     S
C722   C840    1.381   1_455 S
C723   C726    1.412   .     A
C723   Cl739   1.780   .     S
C723   C783    1.381   .     S
C724   C726    1.412   .     A
C724   Cl740   1.780   .     S
C724   C780    1.381   .     S
C725   Cl728   1.779   .     S
C725   C839    1.381   1_455 S
N743   Zn753   2.013   .     S
N744   Zn754   2.013   .     S
O745   Zn753   2.024   .     S
O746   Zn754   2.024   .     S
O747   Zn753   2.024   .     S
O748   Zn754   2.024   .     S
O749   Zn753   2.008   .     S
O750   Zn754   2.008   .     S
O751   Zn753   2.008   .     S
O752   Zn754   2.008   .     S
C755   C756    1.450   .     S
C755   O806    1.292   .     A
C755   O803    1.292   .     A
C756   C780    1.412   .     A
C756   C783    1.412   .     A
C757   N802    1.369   .     A
C757   Cl787   1.760   .     S
C758   Cl788   1.758   .     S
C758   N801    1.370   .     A
C758   C933    1.419   .     S
C759   Cl789   1.760   .     S
C759   N802    1.369   .     A
C760   N801    1.370   .     A
C760   Cl790   1.758   .     S
C760   C931    1.418   .     S
C761   O810    1.283   .     A
C761   O807    1.283   .     A
C761   C767    1.422   .     S
C762   C765    1.422   .     S
C762   O809    1.283   .     A
C762   O808    1.283   .     A
C763   C774    1.407   .     A
C763   Cl785   1.779   .     S
C763   C765    1.396   .     A
C764   C767    1.396   .     A
C764   Cl791   1.779   .     S
C764   C775    1.407   .     A
C765   C768    1.390   .     A
C766   O804    1.292   .     A
C766   O805    1.292   .     A
C766   C784    1.450   .     S
C767   C769    1.390   .     A
C768   C770    1.395   .     A
C768   Cl792   1.778   .     S
C769   Cl793   1.778   .     S
C769   C771    1.395   .     A
C770   C772    1.417   .     A
C770   C776    1.402   .     A
C771   C778    1.402   .     A
C771   C773    1.417   .     A
C772   C774    1.425   .     A
C772   C251    1.406   1_556 S
C773   C775    1.425   .     A
C774   C779    1.413   .     A
C775   C777    1.413   .     A
C776   I799    2.141   .     S
C776   C255    1.387   1_556 S
C777   Cl794   1.763   .     S
C778   I800    2.141   .     S
C779   Cl795   1.763   .     S
C779   C256    1.387   1_556 S
C780   Cl796   1.780   .     S
C781   C784    1.412   .     A
C781   Cl797   1.780   .     S
C781   C841    1.381   .     S
C782   C784    1.412   .     A
C782   Cl798   1.780   .     S
C782   C838    1.381   .     S
C783   Cl786   1.779   .     S
N801   Zn811   2.013   .     S
N802   Zn812   2.013   .     S
O803   Zn811   2.024   .     S
O804   Zn812   2.024   .     S
O805   Zn811   2.024   .     S
O806   Zn812   2.024   .     S
O807   Zn811   2.008   .     S
O808   Zn812   2.008   .     S
O809   Zn811   2.008   .     S
O810   Zn812   2.008   .     S
C813   C814    1.450   .     S
C813   O864    1.292   .     A
C813   O861    1.292   .     A
C814   C838    1.412   .     A
C814   C841    1.412   .     A
C815   N860    1.369   .     A
C815   Cl845   1.760   .     S
C816   Cl846   1.758   .     S
C816   N859    1.370   .     A
C816   C991    1.419   .     S
C817   Cl847   1.760   .     S
C817   N860    1.369   .     A
C818   N859    1.370   .     A
C818   Cl848   1.758   .     S
C818   C989    1.418   .     S
C819   O868    1.283   .     A
C819   O865    1.283   .     A
C819   C825    1.422   .     S
C820   C823    1.422   .     S
C820   O867    1.283   .     A
C820   O866    1.283   .     A
C821   C832    1.407   .     A
C821   Cl843   1.779   .     S
C821   C823    1.396   .     A
C822   C825    1.396   .     A
C822   Cl849   1.779   .     S
C822   C833    1.407   .     A
C823   C826    1.390   .     A
C824   O862    1.292   .     A
C824   O863    1.292   .     A
C824   C842    1.450   .     S
C825   C827    1.390   .     A
C826   C828    1.395   .     A
C826   Cl850   1.778   .     S
C827   Cl851   1.778   .     S
C827   C829    1.395   .     A
C828   C830    1.417   .     A
C828   C834    1.402   .     A
C829   C836    1.402   .     A
C829   C831    1.417   .     A
C830   C832    1.425   .     A
C830   C309    1.406   1_556 S
C831   C833    1.425   .     A
C832   C837    1.413   .     A
C833   C835    1.413   .     A
C834   I857    2.141   .     S
C834   C313    1.387   1_556 S
C835   Cl852   1.763   .     S
C836   I858    2.141   .     S
C837   Cl853   1.763   .     S
C837   C314    1.387   1_556 S
C838   Cl854   1.780   .     S
C839   C842    1.412   .     A
C839   Cl855   1.780   .     S
C839   C725    1.381   1_655 S
C840   C842    1.412   .     A
C840   Cl856   1.780   .     S
C840   C722    1.381   1_655 S
C841   Cl844   1.779   .     S
N859   Zn869   2.013   .     S
N860   Zn870   2.013   .     S
O861   Zn869   2.024   .     S
O862   Zn870   2.024   .     S
O863   Zn869   2.024   .     S
O864   Zn870   2.024   .     S
O865   Zn869   2.008   .     S
O866   Zn870   2.008   .     S
O867   Zn869   2.008   .     S
O868   Zn870   2.008   .     S
C871   C872    1.450   .     S
C871   O922    1.292   .     A
C871   O919    1.292   .     A
C872   C896    1.412   .     A
C872   C899    1.412   .     A
C873   N918    1.369   .     A
C873   Cl903   1.760   .     S
C874   Cl904   1.758   .     S
C874   N917    1.370   .     A
C874   C527    1.419   1_565 S
C875   Cl905   1.760   .     S
C875   N918    1.369   .     A
C876   N917    1.370   .     A
C876   Cl906   1.758   .     S
C876   C525    1.418   1_565 S
C877   O926    1.283   .     A
C877   O923    1.283   .     A
C877   C883    1.422   .     S
C878   C881    1.422   .     S
C878   O925    1.283   .     A
C878   O924    1.283   .     A
C879   C890    1.407   .     A
C879   Cl901   1.779   .     S
C879   C881    1.396   .     A
C880   C883    1.396   .     A
C880   Cl907   1.779   .     S
C880   C891    1.407   .     A
C881   C884    1.390   .     A
C882   O920    1.292   .     A
C882   O921    1.292   .     A
C882   C900    1.450   .     S
C883   C885    1.390   .     A
C884   C886    1.395   .     A
C884   Cl908   1.778   .     S
C885   Cl909   1.778   .     S
C885   C887    1.395   .     A
C886   C888    1.417   .     A
C886   C892    1.402   .     A
C887   C894    1.402   .     A
C887   C889    1.417   .     A
C888   C890    1.425   .     A
C888   C367    1.406   1_556 S
C889   C891    1.425   .     A
C890   C895    1.413   .     A
C891   C893    1.413   .     A
C892   I915    2.141   .     S
C892   C371    1.387   1_556 S
C893   Cl910   1.763   .     S
C894   I916    2.141   .     S
C895   Cl911   1.763   .     S
C895   C372    1.387   1_556 S
C896   Cl912   1.780   .     S
C896   C1014   1.381   1_455 S
C897   C900    1.412   .     A
C897   Cl913   1.780   .     S
C897   C957    1.381   .     S
C898   C900    1.412   .     A
C898   Cl914   1.780   .     S
C898   C954    1.381   .     S
C899   Cl902   1.779   .     S
C899   C1013   1.381   1_455 S
N917   Zn927   2.013   .     S
N918   Zn928   2.013   .     S
O919   Zn927   2.024   .     S
O920   Zn928   2.024   .     S
O921   Zn927   2.024   .     S
O922   Zn928   2.024   .     S
O923   Zn927   2.008   .     S
O924   Zn928   2.008   .     S
O925   Zn927   2.008   .     S
O926   Zn928   2.008   .     S
C929   C930    1.450   .     S
C929   O980    1.292   .     A
C929   O977    1.292   .     A
C930   C954    1.412   .     A
C930   C957    1.412   .     A
C931   N976    1.369   .     A
C931   Cl961   1.760   .     S
C932   Cl962   1.758   .     S
C932   N975    1.370   .     A
C932   C585    1.419   1_565 S
C933   Cl963   1.760   .     S
C933   N976    1.369   .     A
C934   N975    1.370   .     A
C934   Cl964   1.758   .     S
C934   C583    1.418   1_565 S
C935   O984    1.283   .     A
C935   O981    1.283   .     A
C935   C941    1.422   .     S
C936   C939    1.422   .     S
C936   O983    1.283   .     A
C936   O982    1.283   .     A
C937   C948    1.407   .     A
C937   Cl959   1.779   .     S
C937   C939    1.396   .     A
C938   C941    1.396   .     A
C938   Cl965   1.779   .     S
C938   C949    1.407   .     A
C939   C942    1.390   .     A
C940   O978    1.292   .     A
C940   O979    1.292   .     A
C940   C958    1.450   .     S
C941   C943    1.390   .     A
C942   C944    1.395   .     A
C942   Cl966   1.778   .     S
C943   Cl967   1.778   .     S
C943   C945    1.395   .     A
C944   C946    1.417   .     A
C944   C950    1.402   .     A
C945   C952    1.402   .     A
C945   C947    1.417   .     A
C946   C948    1.425   .     A
C946   C425    1.406   1_556 S
C947   C949    1.425   .     A
C948   C953    1.413   .     A
C949   C951    1.413   .     A
C950   I973    2.141   .     S
C950   C429    1.387   1_556 S
C951   Cl968   1.763   .     S
C952   I974    2.141   .     S
C953   Cl969   1.763   .     S
C953   C430    1.387   1_556 S
C954   Cl970   1.780   .     S
C955   C958    1.412   .     A
C955   Cl971   1.780   .     S
C955   C1015   1.381   .     S
C956   C958    1.412   .     A
C956   Cl972   1.780   .     S
C956   C1012   1.381   .     S
C957   Cl960   1.779   .     S
N975   Zn985   2.013   .     S
N976   Zn986   2.013   .     S
O977   Zn985   2.024   .     S
O978   Zn986   2.024   .     S
O979   Zn985   2.024   .     S
O980   Zn986   2.024   .     S
O981   Zn985   2.008   .     S
O982   Zn986   2.008   .     S
O983   Zn985   2.008   .     S
O984   Zn986   2.008   .     S
C987   C988    1.450   .     S
C987   O1038   1.292   .     A
C987   O1035   1.292   .     A
C988   C1012   1.412   .     A
C988   C1015   1.412   .     A
C989   N1034   1.369   .     A
C989   Cl1019  1.760   .     S
C990   Cl1020  1.758   .     S
C990   N1033   1.370   .     A
C990   C643    1.419   1_565 S
C991   Cl1021  1.760   .     S
C991   N1034   1.369   .     A
C992   N1033   1.370   .     A
C992   Cl1022  1.758   .     S
C992   C641    1.418   1_565 S
C993   O1042   1.283   .     A
C993   O1039   1.283   .     A
C993   C999    1.422   .     S
C994   C997    1.422   .     S
C994   O1041   1.283   .     A
C994   O1040   1.283   .     A
C995   C1006   1.407   .     A
C995   Cl1017  1.779   .     S
C995   C997    1.396   .     A
C996   C999    1.396   .     A
C996   Cl1023  1.779   .     S
C996   C1007   1.407   .     A
C997   C1000   1.390   .     A
C998   O1036   1.292   .     A
C998   O1037   1.292   .     A
C998   C1016   1.450   .     S
C999   C1001   1.390   .     A
C1000  C1002   1.395   .     A
C1000  Cl1024  1.778   .     S
C1001  Cl1025  1.778   .     S
C1001  C1003   1.395   .     A
C1002  C1004   1.417   .     A
C1002  C1008   1.402   .     A
C1003  C1010   1.402   .     A
C1003  C1005   1.417   .     A
C1004  C1006   1.425   .     A
C1004  C483    1.406   1_556 S
C1005  C1007   1.425   .     A
C1006  C1011   1.413   .     A
C1007  C1009   1.413   .     A
C1008  I1031   2.141   .     S
C1008  C487    1.387   1_556 S
C1009  Cl1026  1.763   .     S
C1010  I1032   2.141   .     S
C1011  Cl1027  1.763   .     S
C1011  C488    1.387   1_556 S
C1012  Cl1028  1.780   .     S
C1013  C1016   1.412   .     A
C1013  Cl1029  1.780   .     S
C1013  C899    1.381   1_655 S
C1014  C1016   1.412   .     A
C1014  Cl1030  1.780   .     S
C1014  C896    1.381   1_655 S
C1015  Cl1018  1.779   .     S
N1033  Zn1043  2.013   .     S
N1034  Zn1044  2.013   .     S
O1035  Zn1043  2.024   .     S
O1036  Zn1044  2.024   .     S
O1037  Zn1043  2.024   .     S
O1038  Zn1044  2.024   .     S
O1039  Zn1043  2.008   .     S
O1040  Zn1044  2.008   .     S
O1041  Zn1043  2.008   .     S
O1042  Zn1044  2.008   .     S
