data_str_m3_o2_o10_pcu_sym.2
_audit_creation_date              2020-01-03
_audit_creation_method            'Materials Studio'
_symmetry_space_group_name_H-M    'P1'
_symmetry_Int_Tables_number       1
_symmetry_cell_setting            triclinic
loop_
_symmetry_equiv_pos_as_xyz
  x,y,z
_cell_length_a                    25.7789
_cell_length_b                    29.9835
_cell_length_c                    28.3313
_cell_angle_alpha                 89.3126
_cell_angle_beta                  98.6555
_cell_angle_gamma                 90.1212
loop_
_atom_site_label
_atom_site_type_symbol
_atom_site_fract_x
_atom_site_fract_y
_atom_site_fract_z
_atom_site_U_iso_or_equiv
_atom_site_adp_type
_atom_site_occupancy
C1     C     0.16688   0.16375   0.25039   0.00000  Uiso   1.00
C2     C     0.14172   0.21581   0.44436   0.00000  Uiso   1.00
C3     C     0.16664   0.24989   0.02665   0.00000  Uiso   1.00
C4     C     0.16663   0.24991   0.47330   0.00000  Uiso   1.00
C5     C     0.06699   0.25001   0.23753   0.00000  Uiso   1.00
C6     C     0.26634   0.25002   0.26247   0.00000  Uiso   1.00
C7     C     0.01198   0.25005   0.23078   0.00000  Uiso   1.00
C8     C     0.32135   0.25003   0.26920   0.00000  Uiso   1.00
C9     C     0.17608   0.04423   0.29107   0.00000  Uiso   1.00
C10    C     0.18021   0.45561   0.21348   0.00000  Uiso   1.00
C11    C     0.18187   0.09014   0.29236   0.00000  Uiso   1.00
C12    C     0.16702   0.33619   0.24971   0.00000  Uiso   1.00
C13    C     0.18608   0.40971   0.21420   0.00000  Uiso   1.00
C14    C     0.16370   0.11558   0.25084   0.00000  Uiso   1.00
C15    C     0.16405   0.38426   0.24846   0.00000  Uiso   1.00
C16    C     0.14026   0.09462   0.20900   0.00000  Uiso   1.00
C17    C     0.13692   0.40507   0.28144   0.00000  Uiso   1.00
C18    C     0.13516   0.04881   0.20805   0.00000  Uiso   1.00
C19    C     0.13172   0.45087   0.28066   0.00000  Uiso   1.00
C20    C     0.15322   0.02382   0.24900   0.00000  Uiso   1.00
C21    C     0.15345   0.47595   0.24677   0.00000  Uiso   1.00
C22    C     0.20856   0.10959   0.33584   0.00000  Uiso   1.00
C23    C     0.12418   0.23233   0.04701   0.00000  Uiso   1.00
C24    C     0.21696   0.39020   0.18118   0.00000  Uiso   1.00
C25    C     0.19156   0.28405   0.45040   0.00000  Uiso   1.00
C26    C     0.12505   0.23261   0.09677   0.00000  Uiso   1.00
C27    C     0.19123   0.28340   0.40073   0.00000  Uiso   1.00
C28    C     0.20830   0.26724   0.10766   0.00000  Uiso   1.00
C29    C     0.14211   0.21656   0.39477   0.00000  Uiso   1.00
C30    C     0.20914   0.26744   0.05814   0.00000  Uiso   1.00
H31    H     0.32468   0.25008   0.19433   0.00000  Uiso   1.00
H32    H     0.21064   0.31154   0.47049   0.00000  Uiso   1.00
H33    H     0.09220   0.21895   0.11182   0.00000  Uiso   1.00
H34    H     0.21057   0.30980   0.38370   0.00000  Uiso   1.00
H35    H     0.24125   0.28082   0.13126   0.00000  Uiso   1.00
H36    H     0.12284   0.19017   0.37302   0.00000  Uiso   1.00
H37    H     0.24330   0.28071   0.04484   0.00000  Uiso   1.00
H38    H     0.12264   0.18829   0.45986   0.00000  Uiso   1.00
H39    H     0.00866   0.24999   0.30565   0.00000  Uiso   1.00
H40    H     0.19113   0.02413   0.32223   0.00000  Uiso   1.00
H41    H     0.19813   0.47576   0.18823   0.00000  Uiso   1.00
H42    H     0.12563   0.11366   0.17702   0.00000  Uiso   1.00
H43    H     0.11944   0.38586   0.30764   0.00000  Uiso   1.00
H44    H     0.11773   0.03275   0.17539   0.00000  Uiso   1.00
H45    H     0.11130   0.46686   0.30663   0.00000  Uiso   1.00
H46    H     0.09003   0.21899   0.02472   0.00000  Uiso   1.00
N47    N     0.16667   0.24999   0.12623   0.00000  Uiso   1.00
N48    N     0.16667   0.25001   0.37376   0.00000  Uiso   1.00
N49    N     0.22994   0.12511   0.37065   0.00000  Uiso   1.00
N50    N     0.24177   0.37470   0.15475   0.00000  Uiso   1.00
O51    O     0.16667   0.18454   0.28974   0.00000  Uiso   1.00
O52    O     0.16666   0.31547   0.21026   0.00000  Uiso   1.00
O53    O     0.16667   0.18453   0.21026   0.00000  Uiso   1.00
O54    O     0.16666   0.31547   0.28974   0.00000  Uiso   1.00
O55    O     0.09058   0.25000   0.28044   0.00000  Uiso   1.00
O56    O     0.24275   0.25000   0.21955   0.00000  Uiso   1.00
O57    O     0.09058   0.25000   0.20096   0.00000  Uiso   1.00
O58    O     0.24275   0.25001   0.29903   0.00000  Uiso   1.00
Zn59   Zn    0.16667   0.25001   0.30307   0.00000  Uiso   1.00
Zn60   Zn    0.16667   0.25000   0.19693   0.00000  Uiso   1.00
C61    C     0.50021   0.16375   0.25039   0.00000  Uiso   1.00
C62    C     0.47505   0.21581   0.44436   0.00000  Uiso   1.00
C63    C     0.49997   0.24989   0.02665   0.00000  Uiso   1.00
C64    C     0.49996   0.24991   0.47330   0.00000  Uiso   1.00
C65    C     0.40033   0.25001   0.23753   0.00000  Uiso   1.00
C66    C     0.59967   0.25002   0.26247   0.00000  Uiso   1.00
C67    C     0.34531   0.25005   0.23078   0.00000  Uiso   1.00
C68    C     0.65469   0.25003   0.26920   0.00000  Uiso   1.00
C69    C     0.50941   0.04423   0.29107   0.00000  Uiso   1.00
C70    C     0.51354   0.45561   0.21348   0.00000  Uiso   1.00
C71    C     0.51520   0.09014   0.29236   0.00000  Uiso   1.00
C72    C     0.50036   0.33619   0.24971   0.00000  Uiso   1.00
C73    C     0.51941   0.40971   0.21420   0.00000  Uiso   1.00
C74    C     0.49703   0.11558   0.25084   0.00000  Uiso   1.00
C75    C     0.49738   0.38426   0.24846   0.00000  Uiso   1.00
C76    C     0.47359   0.09462   0.20900   0.00000  Uiso   1.00
C77    C     0.47025   0.40507   0.28144   0.00000  Uiso   1.00
C78    C     0.46850   0.04881   0.20805   0.00000  Uiso   1.00
C79    C     0.46505   0.45087   0.28066   0.00000  Uiso   1.00
C80    C     0.48655   0.02382   0.24900   0.00000  Uiso   1.00
C81    C     0.48678   0.47595   0.24677   0.00000  Uiso   1.00
C82    C     0.54189   0.10959   0.33584   0.00000  Uiso   1.00
C83    C     0.45751   0.23233   0.04701   0.00000  Uiso   1.00
C84    C     0.55029   0.39020   0.18118   0.00000  Uiso   1.00
C85    C     0.52490   0.28405   0.45040   0.00000  Uiso   1.00
C86    C     0.45838   0.23261   0.09677   0.00000  Uiso   1.00
C87    C     0.52456   0.28340   0.40073   0.00000  Uiso   1.00
C88    C     0.54164   0.26724   0.10766   0.00000  Uiso   1.00
C89    C     0.47544   0.21656   0.39477   0.00000  Uiso   1.00
C90    C     0.54247   0.26744   0.05814   0.00000  Uiso   1.00
H91    H     0.65802   0.25008   0.19433   0.00000  Uiso   1.00
H92    H     0.54397   0.31154   0.47049   0.00000  Uiso   1.00
H93    H     0.42554   0.21895   0.11182   0.00000  Uiso   1.00
H94    H     0.54390   0.30980   0.38370   0.00000  Uiso   1.00
H95    H     0.57459   0.28082   0.13126   0.00000  Uiso   1.00
H96    H     0.45617   0.19017   0.37302   0.00000  Uiso   1.00
H97    H     0.57664   0.28071   0.04484   0.00000  Uiso   1.00
H98    H     0.45597   0.18829   0.45986   0.00000  Uiso   1.00
H99    H     0.34199   0.24999   0.30565   0.00000  Uiso   1.00
H100   H     0.52446   0.02413   0.32223   0.00000  Uiso   1.00
H101   H     0.53146   0.47576   0.18823   0.00000  Uiso   1.00
H102   H     0.45896   0.11366   0.17702   0.00000  Uiso   1.00
H103   H     0.45277   0.38586   0.30764   0.00000  Uiso   1.00
H104   H     0.45106   0.03275   0.17539   0.00000  Uiso   1.00
H105   H     0.44464   0.46686   0.30663   0.00000  Uiso   1.00
H106   H     0.42337   0.21899   0.02472   0.00000  Uiso   1.00
N107   N     0.50000   0.24999   0.12623   0.00000  Uiso   1.00
N108   N     0.50000   0.25001   0.37376   0.00000  Uiso   1.00
N109   N     0.56328   0.12511   0.37065   0.00000  Uiso   1.00
N110   N     0.57510   0.37470   0.15475   0.00000  Uiso   1.00
O111   O     0.50000   0.18454   0.28974   0.00000  Uiso   1.00
O112   O     0.50000   0.31547   0.21026   0.00000  Uiso   1.00
O113   O     0.50000   0.18453   0.21026   0.00000  Uiso   1.00
O114   O     0.50000   0.31547   0.28974   0.00000  Uiso   1.00
O115   O     0.42392   0.25000   0.28044   0.00000  Uiso   1.00
O116   O     0.57608   0.25000   0.21955   0.00000  Uiso   1.00
O117   O     0.42392   0.25000   0.20096   0.00000  Uiso   1.00
O118   O     0.57608   0.25001   0.29903   0.00000  Uiso   1.00
Zn119  Zn    0.50000   0.25001   0.30307   0.00000  Uiso   1.00
Zn120  Zn    0.50000   0.25000   0.19693   0.00000  Uiso   1.00
C121   C     0.83354   0.16375   0.25039   0.00000  Uiso   1.00
C122   C     0.80839   0.21581   0.44436   0.00000  Uiso   1.00
C123   C     0.83331   0.24989   0.02665   0.00000  Uiso   1.00
C124   C     0.83330   0.24991   0.47330   0.00000  Uiso   1.00
C125   C     0.73366   0.25001   0.23753   0.00000  Uiso   1.00
C126   C     0.93300   0.25002   0.26247   0.00000  Uiso   1.00
C127   C     0.67865   0.25005   0.23078   0.00000  Uiso   1.00
C128   C     0.98802   0.25003   0.26920   0.00000  Uiso   1.00
C129   C     0.84275   0.04423   0.29107   0.00000  Uiso   1.00
C130   C     0.84688   0.45561   0.21348   0.00000  Uiso   1.00
C131   C     0.84853   0.09014   0.29236   0.00000  Uiso   1.00
C132   C     0.83369   0.33619   0.24971   0.00000  Uiso   1.00
C133   C     0.85274   0.40971   0.21420   0.00000  Uiso   1.00
C134   C     0.83036   0.11558   0.25084   0.00000  Uiso   1.00
C135   C     0.83071   0.38426   0.24846   0.00000  Uiso   1.00
C136   C     0.80693   0.09462   0.20900   0.00000  Uiso   1.00
C137   C     0.80359   0.40507   0.28144   0.00000  Uiso   1.00
C138   C     0.80183   0.04881   0.20805   0.00000  Uiso   1.00
C139   C     0.79839   0.45087   0.28066   0.00000  Uiso   1.00
C140   C     0.81988   0.02382   0.24900   0.00000  Uiso   1.00
C141   C     0.82011   0.47595   0.24677   0.00000  Uiso   1.00
C142   C     0.87523   0.10959   0.33584   0.00000  Uiso   1.00
C143   C     0.79084   0.23233   0.04701   0.00000  Uiso   1.00
C144   C     0.88363   0.39020   0.18118   0.00000  Uiso   1.00
C145   C     0.85823   0.28405   0.45040   0.00000  Uiso   1.00
C146   C     0.79172   0.23261   0.09677   0.00000  Uiso   1.00
C147   C     0.85789   0.28340   0.40073   0.00000  Uiso   1.00
C148   C     0.87497   0.26724   0.10766   0.00000  Uiso   1.00
C149   C     0.80878   0.21656   0.39477   0.00000  Uiso   1.00
C150   C     0.87580   0.26744   0.05814   0.00000  Uiso   1.00
H151   H     0.99135   0.25008   0.19433   0.00000  Uiso   1.00
H152   H     0.87731   0.31154   0.47049   0.00000  Uiso   1.00
H153   H     0.75887   0.21895   0.11182   0.00000  Uiso   1.00
H154   H     0.87724   0.30980   0.38370   0.00000  Uiso   1.00
H155   H     0.90792   0.28082   0.13126   0.00000  Uiso   1.00
H156   H     0.78951   0.19017   0.37302   0.00000  Uiso   1.00
H157   H     0.90997   0.28071   0.04484   0.00000  Uiso   1.00
H158   H     0.78931   0.18829   0.45986   0.00000  Uiso   1.00
H159   H     0.67533   0.24999   0.30565   0.00000  Uiso   1.00
H160   H     0.85779   0.02413   0.32223   0.00000  Uiso   1.00
H161   H     0.86480   0.47576   0.18823   0.00000  Uiso   1.00
H162   H     0.79230   0.11366   0.17702   0.00000  Uiso   1.00
H163   H     0.78611   0.38586   0.30764   0.00000  Uiso   1.00
H164   H     0.78440   0.03275   0.17539   0.00000  Uiso   1.00
H165   H     0.77797   0.46686   0.30663   0.00000  Uiso   1.00
H166   H     0.75670   0.21899   0.02472   0.00000  Uiso   1.00
N167   N     0.83333   0.24999   0.12623   0.00000  Uiso   1.00
N168   N     0.83333   0.25001   0.37376   0.00000  Uiso   1.00
N169   N     0.89661   0.12511   0.37065   0.00000  Uiso   1.00
N170   N     0.90843   0.37470   0.15475   0.00000  Uiso   1.00
O171   O     0.83334   0.18454   0.28974   0.00000  Uiso   1.00
O172   O     0.83333   0.31547   0.21026   0.00000  Uiso   1.00
O173   O     0.83334   0.18453   0.21026   0.00000  Uiso   1.00
O174   O     0.83333   0.31547   0.28974   0.00000  Uiso   1.00
O175   O     0.75725   0.25000   0.28044   0.00000  Uiso   1.00
O176   O     0.90942   0.25000   0.21955   0.00000  Uiso   1.00
O177   O     0.75725   0.25000   0.20096   0.00000  Uiso   1.00
O178   O     0.90942   0.25001   0.29903   0.00000  Uiso   1.00
Zn179  Zn    0.83333   0.25001   0.30307   0.00000  Uiso   1.00
Zn180  Zn    0.83333   0.25000   0.19693   0.00000  Uiso   1.00
C181   C     0.16688   0.66375   0.25039   0.00000  Uiso   1.00
C182   C     0.14172   0.71581   0.44436   0.00000  Uiso   1.00
C183   C     0.16664   0.74989   0.02665   0.00000  Uiso   1.00
C184   C     0.16663   0.74991   0.47330   0.00000  Uiso   1.00
C185   C     0.06699   0.75001   0.23753   0.00000  Uiso   1.00
C186   C     0.26634   0.75002   0.26247   0.00000  Uiso   1.00
C187   C     0.01198   0.75005   0.23078   0.00000  Uiso   1.00
C188   C     0.32135   0.75003   0.26920   0.00000  Uiso   1.00
C189   C     0.17608   0.54423   0.29107   0.00000  Uiso   1.00
C190   C     0.18021   0.95561   0.21348   0.00000  Uiso   1.00
C191   C     0.18187   0.59014   0.29236   0.00000  Uiso   1.00
C192   C     0.16702   0.83619   0.24971   0.00000  Uiso   1.00
C193   C     0.18608   0.90971   0.21420   0.00000  Uiso   1.00
C194   C     0.16370   0.61558   0.25084   0.00000  Uiso   1.00
C195   C     0.16405   0.88426   0.24846   0.00000  Uiso   1.00
C196   C     0.14026   0.59462   0.20900   0.00000  Uiso   1.00
C197   C     0.13692   0.90507   0.28144   0.00000  Uiso   1.00
C198   C     0.13516   0.54881   0.20805   0.00000  Uiso   1.00
C199   C     0.13172   0.95087   0.28066   0.00000  Uiso   1.00
C200   C     0.15322   0.52382   0.24900   0.00000  Uiso   1.00
C201   C     0.15345   0.97595   0.24677   0.00000  Uiso   1.00
C202   C     0.20856   0.60959   0.33584   0.00000  Uiso   1.00
C203   C     0.12418   0.73233   0.04701   0.00000  Uiso   1.00
C204   C     0.21696   0.89020   0.18118   0.00000  Uiso   1.00
C205   C     0.19156   0.78405   0.45040   0.00000  Uiso   1.00
C206   C     0.12505   0.73261   0.09677   0.00000  Uiso   1.00
C207   C     0.19123   0.78340   0.40073   0.00000  Uiso   1.00
C208   C     0.20830   0.76724   0.10766   0.00000  Uiso   1.00
C209   C     0.14211   0.71656   0.39477   0.00000  Uiso   1.00
C210   C     0.20914   0.76744   0.05814   0.00000  Uiso   1.00
H211   H     0.32468   0.75008   0.19433   0.00000  Uiso   1.00
H212   H     0.21064   0.81154   0.47049   0.00000  Uiso   1.00
H213   H     0.09220   0.71895   0.11182   0.00000  Uiso   1.00
H214   H     0.21057   0.80980   0.38370   0.00000  Uiso   1.00
H215   H     0.24125   0.78082   0.13126   0.00000  Uiso   1.00
H216   H     0.12284   0.69017   0.37302   0.00000  Uiso   1.00
H217   H     0.24330   0.78071   0.04484   0.00000  Uiso   1.00
H218   H     0.12264   0.68829   0.45986   0.00000  Uiso   1.00
H219   H     0.00866   0.74999   0.30565   0.00000  Uiso   1.00
H220   H     0.19113   0.52413   0.32223   0.00000  Uiso   1.00
H221   H     0.19813   0.97576   0.18823   0.00000  Uiso   1.00
H222   H     0.12563   0.61366   0.17702   0.00000  Uiso   1.00
H223   H     0.11944   0.88586   0.30764   0.00000  Uiso   1.00
H224   H     0.11773   0.53275   0.17539   0.00000  Uiso   1.00
H225   H     0.11130   0.96686   0.30663   0.00000  Uiso   1.00
H226   H     0.09003   0.71899   0.02472   0.00000  Uiso   1.00
N227   N     0.16667   0.74999   0.12623   0.00000  Uiso   1.00
N228   N     0.16667   0.75001   0.37376   0.00000  Uiso   1.00
N229   N     0.22994   0.62511   0.37065   0.00000  Uiso   1.00
N230   N     0.24177   0.87470   0.15475   0.00000  Uiso   1.00
O231   O     0.16667   0.68454   0.28974   0.00000  Uiso   1.00
O232   O     0.16666   0.81547   0.21026   0.00000  Uiso   1.00
O233   O     0.16667   0.68453   0.21026   0.00000  Uiso   1.00
O234   O     0.16666   0.81547   0.28974   0.00000  Uiso   1.00
O235   O     0.09058   0.75000   0.28044   0.00000  Uiso   1.00
O236   O     0.24275   0.75000   0.21955   0.00000  Uiso   1.00
O237   O     0.09058   0.75000   0.20096   0.00000  Uiso   1.00
O238   O     0.24275   0.75001   0.29903   0.00000  Uiso   1.00
Zn239  Zn    0.16667   0.75001   0.30307   0.00000  Uiso   1.00
Zn240  Zn    0.16667   0.75000   0.19693   0.00000  Uiso   1.00
C241   C     0.50021   0.66375   0.25039   0.00000  Uiso   1.00
C242   C     0.47505   0.71581   0.44436   0.00000  Uiso   1.00
C243   C     0.49997   0.74989   0.02665   0.00000  Uiso   1.00
C244   C     0.49996   0.74991   0.47330   0.00000  Uiso   1.00
C245   C     0.40033   0.75001   0.23753   0.00000  Uiso   1.00
C246   C     0.59967   0.75002   0.26247   0.00000  Uiso   1.00
C247   C     0.34531   0.75005   0.23078   0.00000  Uiso   1.00
C248   C     0.65469   0.75003   0.26920   0.00000  Uiso   1.00
C249   C     0.50941   0.54423   0.29107   0.00000  Uiso   1.00
C250   C     0.51354   0.95561   0.21348   0.00000  Uiso   1.00
C251   C     0.51520   0.59014   0.29236   0.00000  Uiso   1.00
C252   C     0.50036   0.83619   0.24971   0.00000  Uiso   1.00
C253   C     0.51941   0.90971   0.21420   0.00000  Uiso   1.00
C254   C     0.49703   0.61558   0.25084   0.00000  Uiso   1.00
C255   C     0.49738   0.88426   0.24846   0.00000  Uiso   1.00
C256   C     0.47359   0.59462   0.20900   0.00000  Uiso   1.00
C257   C     0.47025   0.90507   0.28144   0.00000  Uiso   1.00
C258   C     0.46850   0.54881   0.20805   0.00000  Uiso   1.00
C259   C     0.46505   0.95087   0.28066   0.00000  Uiso   1.00
C260   C     0.48655   0.52382   0.24900   0.00000  Uiso   1.00
C261   C     0.48678   0.97595   0.24677   0.00000  Uiso   1.00
C262   C     0.54189   0.60959   0.33584   0.00000  Uiso   1.00
C263   C     0.45751   0.73233   0.04701   0.00000  Uiso   1.00
C264   C     0.55029   0.89020   0.18118   0.00000  Uiso   1.00
C265   C     0.52490   0.78405   0.45040   0.00000  Uiso   1.00
C266   C     0.45838   0.73261   0.09677   0.00000  Uiso   1.00
C267   C     0.52456   0.78340   0.40073   0.00000  Uiso   1.00
C268   C     0.54164   0.76724   0.10766   0.00000  Uiso   1.00
C269   C     0.47544   0.71656   0.39477   0.00000  Uiso   1.00
C270   C     0.54247   0.76744   0.05814   0.00000  Uiso   1.00
H271   H     0.65802   0.75008   0.19433   0.00000  Uiso   1.00
H272   H     0.54397   0.81154   0.47049   0.00000  Uiso   1.00
H273   H     0.42554   0.71895   0.11182   0.00000  Uiso   1.00
H274   H     0.54390   0.80980   0.38370   0.00000  Uiso   1.00
H275   H     0.57459   0.78082   0.13126   0.00000  Uiso   1.00
H276   H     0.45617   0.69017   0.37302   0.00000  Uiso   1.00
H277   H     0.57664   0.78071   0.04484   0.00000  Uiso   1.00
H278   H     0.45597   0.68829   0.45986   0.00000  Uiso   1.00
H279   H     0.34199   0.74999   0.30565   0.00000  Uiso   1.00
H280   H     0.52446   0.52413   0.32223   0.00000  Uiso   1.00
H281   H     0.53146   0.97576   0.18823   0.00000  Uiso   1.00
H282   H     0.45896   0.61366   0.17702   0.00000  Uiso   1.00
H283   H     0.45277   0.88586   0.30764   0.00000  Uiso   1.00
H284   H     0.45106   0.53275   0.17539   0.00000  Uiso   1.00
H285   H     0.44464   0.96686   0.30663   0.00000  Uiso   1.00
H286   H     0.42337   0.71899   0.02472   0.00000  Uiso   1.00
N287   N     0.50000   0.74999   0.12623   0.00000  Uiso   1.00
N288   N     0.50000   0.75001   0.37376   0.00000  Uiso   1.00
N289   N     0.56328   0.62511   0.37065   0.00000  Uiso   1.00
N290   N     0.57510   0.87470   0.15475   0.00000  Uiso   1.00
O291   O     0.50000   0.68454   0.28974   0.00000  Uiso   1.00
O292   O     0.50000   0.81547   0.21026   0.00000  Uiso   1.00
O293   O     0.50000   0.68453   0.21026   0.00000  Uiso   1.00
O294   O     0.50000   0.81547   0.28974   0.00000  Uiso   1.00
O295   O     0.42392   0.75000   0.28044   0.00000  Uiso   1.00
O296   O     0.57608   0.75000   0.21955   0.00000  Uiso   1.00
O297   O     0.42392   0.75000   0.20096   0.00000  Uiso   1.00
O298   O     0.57608   0.75001   0.29903   0.00000  Uiso   1.00
Zn299  Zn    0.50000   0.75001   0.30307   0.00000  Uiso   1.00
Zn300  Zn    0.50000   0.75000   0.19693   0.00000  Uiso   1.00
C301   C     0.83354   0.66375   0.25039   0.00000  Uiso   1.00
C302   C     0.80839   0.71581   0.44436   0.00000  Uiso   1.00
C303   C     0.83331   0.74989   0.02665   0.00000  Uiso   1.00
C304   C     0.83330   0.74991   0.47330   0.00000  Uiso   1.00
C305   C     0.73366   0.75001   0.23753   0.00000  Uiso   1.00
C306   C     0.93300   0.75002   0.26247   0.00000  Uiso   1.00
C307   C     0.67865   0.75005   0.23078   0.00000  Uiso   1.00
C308   C     0.98802   0.75003   0.26920   0.00000  Uiso   1.00
C309   C     0.84275   0.54423   0.29107   0.00000  Uiso   1.00
C310   C     0.84688   0.95561   0.21348   0.00000  Uiso   1.00
C311   C     0.84853   0.59014   0.29236   0.00000  Uiso   1.00
C312   C     0.83369   0.83619   0.24971   0.00000  Uiso   1.00
C313   C     0.85274   0.90971   0.21420   0.00000  Uiso   1.00
C314   C     0.83036   0.61558   0.25084   0.00000  Uiso   1.00
C315   C     0.83071   0.88426   0.24846   0.00000  Uiso   1.00
C316   C     0.80693   0.59462   0.20900   0.00000  Uiso   1.00
C317   C     0.80359   0.90507   0.28144   0.00000  Uiso   1.00
C318   C     0.80183   0.54881   0.20805   0.00000  Uiso   1.00
C319   C     0.79839   0.95087   0.28066   0.00000  Uiso   1.00
C320   C     0.81988   0.52382   0.24900   0.00000  Uiso   1.00
C321   C     0.82011   0.97595   0.24677   0.00000  Uiso   1.00
C322   C     0.87523   0.60959   0.33584   0.00000  Uiso   1.00
C323   C     0.79084   0.73233   0.04701   0.00000  Uiso   1.00
C324   C     0.88363   0.89020   0.18118   0.00000  Uiso   1.00
C325   C     0.85823   0.78405   0.45040   0.00000  Uiso   1.00
C326   C     0.79172   0.73261   0.09677   0.00000  Uiso   1.00
C327   C     0.85789   0.78340   0.40073   0.00000  Uiso   1.00
C328   C     0.87497   0.76724   0.10766   0.00000  Uiso   1.00
C329   C     0.80878   0.71656   0.39477   0.00000  Uiso   1.00
C330   C     0.87580   0.76744   0.05814   0.00000  Uiso   1.00
H331   H     0.99135   0.75008   0.19433   0.00000  Uiso   1.00
H332   H     0.87731   0.81154   0.47049   0.00000  Uiso   1.00
H333   H     0.75887   0.71895   0.11182   0.00000  Uiso   1.00
H334   H     0.87724   0.80980   0.38370   0.00000  Uiso   1.00
H335   H     0.90792   0.78082   0.13126   0.00000  Uiso   1.00
H336   H     0.78951   0.69017   0.37302   0.00000  Uiso   1.00
H337   H     0.90997   0.78071   0.04484   0.00000  Uiso   1.00
H338   H     0.78931   0.68829   0.45986   0.00000  Uiso   1.00
H339   H     0.67533   0.74999   0.30565   0.00000  Uiso   1.00
H340   H     0.85779   0.52413   0.32223   0.00000  Uiso   1.00
H341   H     0.86480   0.97576   0.18823   0.00000  Uiso   1.00
H342   H     0.79230   0.61366   0.17702   0.00000  Uiso   1.00
H343   H     0.78611   0.88586   0.30764   0.00000  Uiso   1.00
H344   H     0.78440   0.53275   0.17539   0.00000  Uiso   1.00
H345   H     0.77797   0.96686   0.30663   0.00000  Uiso   1.00
H346   H     0.75670   0.71899   0.02472   0.00000  Uiso   1.00
N347   N     0.83333   0.74999   0.12623   0.00000  Uiso   1.00
N348   N     0.83333   0.75001   0.37376   0.00000  Uiso   1.00
N349   N     0.89661   0.62511   0.37065   0.00000  Uiso   1.00
N350   N     0.90843   0.87470   0.15475   0.00000  Uiso   1.00
O351   O     0.83334   0.68454   0.28974   0.00000  Uiso   1.00
O352   O     0.83333   0.81547   0.21026   0.00000  Uiso   1.00
O353   O     0.83334   0.68453   0.21026   0.00000  Uiso   1.00
O354   O     0.83333   0.81547   0.28974   0.00000  Uiso   1.00
O355   O     0.75725   0.75000   0.28044   0.00000  Uiso   1.00
O356   O     0.90942   0.75000   0.21955   0.00000  Uiso   1.00
O357   O     0.75725   0.75000   0.20096   0.00000  Uiso   1.00
O358   O     0.90942   0.75001   0.29903   0.00000  Uiso   1.00
Zn359  Zn    0.83333   0.75001   0.30307   0.00000  Uiso   1.00
Zn360  Zn    0.83333   0.75000   0.19693   0.00000  Uiso   1.00
C361   C     0.16688   0.16375   0.75039   0.00000  Uiso   1.00
C362   C     0.14172   0.21581   0.94436   0.00000  Uiso   1.00
C363   C     0.16664   0.24989   0.52665   0.00000  Uiso   1.00
C364   C     0.16663   0.24991   0.97330   0.00000  Uiso   1.00
C365   C     0.06699   0.25001   0.73753   0.00000  Uiso   1.00
C366   C     0.26634   0.25002   0.76247   0.00000  Uiso   1.00
C367   C     0.01198   0.25005   0.73078   0.00000  Uiso   1.00
C368   C     0.32135   0.25003   0.76920   0.00000  Uiso   1.00
C369   C     0.17608   0.04423   0.79107   0.00000  Uiso   1.00
C370   C     0.18021   0.45561   0.71348   0.00000  Uiso   1.00
C371   C     0.18187   0.09014   0.79236   0.00000  Uiso   1.00
C372   C     0.16702   0.33619   0.74971   0.00000  Uiso   1.00
C373   C     0.18608   0.40971   0.71420   0.00000  Uiso   1.00
C374   C     0.16370   0.11558   0.75084   0.00000  Uiso   1.00
C375   C     0.16405   0.38426   0.74846   0.00000  Uiso   1.00
C376   C     0.14026   0.09462   0.70900   0.00000  Uiso   1.00
C377   C     0.13692   0.40507   0.78144   0.00000  Uiso   1.00
C378   C     0.13516   0.04881   0.70805   0.00000  Uiso   1.00
C379   C     0.13172   0.45087   0.78066   0.00000  Uiso   1.00
C380   C     0.15322   0.02382   0.74900   0.00000  Uiso   1.00
C381   C     0.15345   0.47595   0.74677   0.00000  Uiso   1.00
C382   C     0.20856   0.10959   0.83584   0.00000  Uiso   1.00
C383   C     0.12418   0.23233   0.54701   0.00000  Uiso   1.00
C384   C     0.21696   0.39020   0.68118   0.00000  Uiso   1.00
C385   C     0.19156   0.28405   0.95040   0.00000  Uiso   1.00
C386   C     0.12505   0.23261   0.59677   0.00000  Uiso   1.00
C387   C     0.19123   0.28340   0.90073   0.00000  Uiso   1.00
C388   C     0.20830   0.26724   0.60766   0.00000  Uiso   1.00
C389   C     0.14211   0.21656   0.89477   0.00000  Uiso   1.00
C390   C     0.20914   0.26744   0.55814   0.00000  Uiso   1.00
H391   H     0.32468   0.25008   0.69433   0.00000  Uiso   1.00
H392   H     0.21064   0.31154   0.97049   0.00000  Uiso   1.00
H393   H     0.09220   0.21895   0.61182   0.00000  Uiso   1.00
H394   H     0.21057   0.30980   0.88370   0.00000  Uiso   1.00
H395   H     0.24125   0.28082   0.63126   0.00000  Uiso   1.00
H396   H     0.12284   0.19017   0.87302   0.00000  Uiso   1.00
H397   H     0.24330   0.28071   0.54484   0.00000  Uiso   1.00
H398   H     0.12264   0.18829   0.95986   0.00000  Uiso   1.00
H399   H     0.00866   0.24999   0.80565   0.00000  Uiso   1.00
H400   H     0.19113   0.02413   0.82223   0.00000  Uiso   1.00
H401   H     0.19813   0.47576   0.68823   0.00000  Uiso   1.00
H402   H     0.12563   0.11366   0.67702   0.00000  Uiso   1.00
H403   H     0.11944   0.38586   0.80764   0.00000  Uiso   1.00
H404   H     0.11773   0.03275   0.67539   0.00000  Uiso   1.00
H405   H     0.11130   0.46686   0.80663   0.00000  Uiso   1.00
H406   H     0.09003   0.21899   0.52472   0.00000  Uiso   1.00
N407   N     0.16667   0.24999   0.62623   0.00000  Uiso   1.00
N408   N     0.16667   0.25001   0.87376   0.00000  Uiso   1.00
N409   N     0.22994   0.12511   0.87065   0.00000  Uiso   1.00
N410   N     0.24177   0.37470   0.65475   0.00000  Uiso   1.00
O411   O     0.16667   0.18454   0.78974   0.00000  Uiso   1.00
O412   O     0.16666   0.31547   0.71026   0.00000  Uiso   1.00
O413   O     0.16667   0.18453   0.71026   0.00000  Uiso   1.00
O414   O     0.16666   0.31547   0.78974   0.00000  Uiso   1.00
O415   O     0.09058   0.25000   0.78044   0.00000  Uiso   1.00
O416   O     0.24275   0.25000   0.71955   0.00000  Uiso   1.00
O417   O     0.09058   0.25000   0.70096   0.00000  Uiso   1.00
O418   O     0.24275   0.25001   0.79903   0.00000  Uiso   1.00
Zn419  Zn    0.16667   0.25001   0.80307   0.00000  Uiso   1.00
Zn420  Zn    0.16667   0.25000   0.69693   0.00000  Uiso   1.00
C421   C     0.50021   0.16375   0.75039   0.00000  Uiso   1.00
C422   C     0.47505   0.21581   0.94436   0.00000  Uiso   1.00
C423   C     0.49997   0.24989   0.52665   0.00000  Uiso   1.00
C424   C     0.49996   0.24991   0.97330   0.00000  Uiso   1.00
C425   C     0.40033   0.25001   0.73753   0.00000  Uiso   1.00
C426   C     0.59967   0.25002   0.76247   0.00000  Uiso   1.00
C427   C     0.34531   0.25005   0.73078   0.00000  Uiso   1.00
C428   C     0.65469   0.25003   0.76920   0.00000  Uiso   1.00
C429   C     0.50941   0.04423   0.79107   0.00000  Uiso   1.00
C430   C     0.51354   0.45561   0.71348   0.00000  Uiso   1.00
C431   C     0.51520   0.09014   0.79236   0.00000  Uiso   1.00
C432   C     0.50036   0.33619   0.74971   0.00000  Uiso   1.00
C433   C     0.51941   0.40971   0.71420   0.00000  Uiso   1.00
C434   C     0.49703   0.11558   0.75084   0.00000  Uiso   1.00
C435   C     0.49738   0.38426   0.74846   0.00000  Uiso   1.00
C436   C     0.47359   0.09462   0.70900   0.00000  Uiso   1.00
C437   C     0.47025   0.40507   0.78144   0.00000  Uiso   1.00
C438   C     0.46850   0.04881   0.70805   0.00000  Uiso   1.00
C439   C     0.46505   0.45087   0.78066   0.00000  Uiso   1.00
C440   C     0.48655   0.02382   0.74900   0.00000  Uiso   1.00
C441   C     0.48678   0.47595   0.74677   0.00000  Uiso   1.00
C442   C     0.54189   0.10959   0.83584   0.00000  Uiso   1.00
C443   C     0.45751   0.23233   0.54701   0.00000  Uiso   1.00
C444   C     0.55029   0.39020   0.68118   0.00000  Uiso   1.00
C445   C     0.52490   0.28405   0.95040   0.00000  Uiso   1.00
C446   C     0.45838   0.23261   0.59677   0.00000  Uiso   1.00
C447   C     0.52456   0.28340   0.90073   0.00000  Uiso   1.00
C448   C     0.54164   0.26724   0.60766   0.00000  Uiso   1.00
C449   C     0.47544   0.21656   0.89477   0.00000  Uiso   1.00
C450   C     0.54247   0.26744   0.55814   0.00000  Uiso   1.00
H451   H     0.65802   0.25008   0.69433   0.00000  Uiso   1.00
H452   H     0.54397   0.31154   0.97049   0.00000  Uiso   1.00
H453   H     0.42554   0.21895   0.61182   0.00000  Uiso   1.00
H454   H     0.54390   0.30980   0.88370   0.00000  Uiso   1.00
H455   H     0.57459   0.28082   0.63126   0.00000  Uiso   1.00
H456   H     0.45617   0.19017   0.87302   0.00000  Uiso   1.00
H457   H     0.57664   0.28071   0.54484   0.00000  Uiso   1.00
H458   H     0.45597   0.18829   0.95986   0.00000  Uiso   1.00
H459   H     0.34199   0.24999   0.80565   0.00000  Uiso   1.00
H460   H     0.52446   0.02413   0.82223   0.00000  Uiso   1.00
H461   H     0.53146   0.47576   0.68823   0.00000  Uiso   1.00
H462   H     0.45896   0.11366   0.67702   0.00000  Uiso   1.00
H463   H     0.45277   0.38586   0.80764   0.00000  Uiso   1.00
H464   H     0.45106   0.03275   0.67539   0.00000  Uiso   1.00
H465   H     0.44464   0.46686   0.80663   0.00000  Uiso   1.00
H466   H     0.42337   0.21899   0.52472   0.00000  Uiso   1.00
N467   N     0.50000   0.24999   0.62623   0.00000  Uiso   1.00
N468   N     0.50000   0.25001   0.87376   0.00000  Uiso   1.00
N469   N     0.56328   0.12511   0.87065   0.00000  Uiso   1.00
N470   N     0.57510   0.37470   0.65475   0.00000  Uiso   1.00
O471   O     0.50000   0.18454   0.78974   0.00000  Uiso   1.00
O472   O     0.50000   0.31547   0.71026   0.00000  Uiso   1.00
O473   O     0.50000   0.18453   0.71026   0.00000  Uiso   1.00
O474   O     0.50000   0.31547   0.78974   0.00000  Uiso   1.00
O475   O     0.42392   0.25000   0.78044   0.00000  Uiso   1.00
O476   O     0.57608   0.25000   0.71955   0.00000  Uiso   1.00
O477   O     0.42392   0.25000   0.70096   0.00000  Uiso   1.00
O478   O     0.57608   0.25001   0.79903   0.00000  Uiso   1.00
Zn479  Zn    0.50000   0.25001   0.80307   0.00000  Uiso   1.00
Zn480  Zn    0.50000   0.25000   0.69693   0.00000  Uiso   1.00
C481   C     0.83354   0.16375   0.75039   0.00000  Uiso   1.00
C482   C     0.80839   0.21581   0.94436   0.00000  Uiso   1.00
C483   C     0.83331   0.24989   0.52665   0.00000  Uiso   1.00
C484   C     0.83330   0.24991   0.97330   0.00000  Uiso   1.00
C485   C     0.73366   0.25001   0.73753   0.00000  Uiso   1.00
C486   C     0.93300   0.25002   0.76247   0.00000  Uiso   1.00
C487   C     0.67865   0.25005   0.73078   0.00000  Uiso   1.00
C488   C     0.98802   0.25003   0.76920   0.00000  Uiso   1.00
C489   C     0.84275   0.04423   0.79107   0.00000  Uiso   1.00
C490   C     0.84688   0.45561   0.71348   0.00000  Uiso   1.00
C491   C     0.84853   0.09014   0.79236   0.00000  Uiso   1.00
C492   C     0.83369   0.33619   0.74971   0.00000  Uiso   1.00
C493   C     0.85274   0.40971   0.71420   0.00000  Uiso   1.00
C494   C     0.83036   0.11558   0.75084   0.00000  Uiso   1.00
C495   C     0.83071   0.38426   0.74846   0.00000  Uiso   1.00
C496   C     0.80693   0.09462   0.70900   0.00000  Uiso   1.00
C497   C     0.80359   0.40507   0.78144   0.00000  Uiso   1.00
C498   C     0.80183   0.04881   0.70805   0.00000  Uiso   1.00
C499   C     0.79839   0.45087   0.78066   0.00000  Uiso   1.00
C500   C     0.81988   0.02382   0.74900   0.00000  Uiso   1.00
C501   C     0.82011   0.47595   0.74677   0.00000  Uiso   1.00
C502   C     0.87523   0.10959   0.83584   0.00000  Uiso   1.00
C503   C     0.79084   0.23233   0.54701   0.00000  Uiso   1.00
C504   C     0.88363   0.39020   0.68118   0.00000  Uiso   1.00
C505   C     0.85823   0.28405   0.95040   0.00000  Uiso   1.00
C506   C     0.79172   0.23261   0.59677   0.00000  Uiso   1.00
C507   C     0.85789   0.28340   0.90073   0.00000  Uiso   1.00
C508   C     0.87497   0.26724   0.60766   0.00000  Uiso   1.00
C509   C     0.80878   0.21656   0.89477   0.00000  Uiso   1.00
C510   C     0.87580   0.26744   0.55814   0.00000  Uiso   1.00
H511   H     0.99135   0.25008   0.69433   0.00000  Uiso   1.00
H512   H     0.87731   0.31154   0.97049   0.00000  Uiso   1.00
H513   H     0.75887   0.21895   0.61182   0.00000  Uiso   1.00
H514   H     0.87724   0.30980   0.88370   0.00000  Uiso   1.00
H515   H     0.90792   0.28082   0.63126   0.00000  Uiso   1.00
H516   H     0.78951   0.19017   0.87302   0.00000  Uiso   1.00
H517   H     0.90997   0.28071   0.54484   0.00000  Uiso   1.00
H518   H     0.78931   0.18829   0.95986   0.00000  Uiso   1.00
H519   H     0.67533   0.24999   0.80565   0.00000  Uiso   1.00
H520   H     0.85779   0.02413   0.82223   0.00000  Uiso   1.00
H521   H     0.86480   0.47576   0.68823   0.00000  Uiso   1.00
H522   H     0.79230   0.11366   0.67702   0.00000  Uiso   1.00
H523   H     0.78611   0.38586   0.80764   0.00000  Uiso   1.00
H524   H     0.78440   0.03275   0.67539   0.00000  Uiso   1.00
H525   H     0.77797   0.46686   0.80663   0.00000  Uiso   1.00
H526   H     0.75670   0.21899   0.52472   0.00000  Uiso   1.00
N527   N     0.83333   0.24999   0.62623   0.00000  Uiso   1.00
N528   N     0.83333   0.25001   0.87376   0.00000  Uiso   1.00
N529   N     0.89661   0.12511   0.87065   0.00000  Uiso   1.00
N530   N     0.90843   0.37470   0.65475   0.00000  Uiso   1.00
O531   O     0.83334   0.18454   0.78974   0.00000  Uiso   1.00
O532   O     0.83333   0.31547   0.71026   0.00000  Uiso   1.00
O533   O     0.83334   0.18453   0.71026   0.00000  Uiso   1.00
O534   O     0.83333   0.31547   0.78974   0.00000  Uiso   1.00
O535   O     0.75725   0.25000   0.78044   0.00000  Uiso   1.00
O536   O     0.90942   0.25000   0.71955   0.00000  Uiso   1.00
O537   O     0.75725   0.25000   0.70096   0.00000  Uiso   1.00
O538   O     0.90942   0.25001   0.79903   0.00000  Uiso   1.00
Zn539  Zn    0.83333   0.25001   0.80307   0.00000  Uiso   1.00
Zn540  Zn    0.83333   0.25000   0.69693   0.00000  Uiso   1.00
C541   C     0.16688   0.66375   0.75039   0.00000  Uiso   1.00
C542   C     0.14172   0.71581   0.94436   0.00000  Uiso   1.00
C543   C     0.16664   0.74989   0.52665   0.00000  Uiso   1.00
C544   C     0.16663   0.74991   0.97330   0.00000  Uiso   1.00
C545   C     0.06699   0.75001   0.73753   0.00000  Uiso   1.00
C546   C     0.26634   0.75002   0.76247   0.00000  Uiso   1.00
C547   C     0.01198   0.75005   0.73078   0.00000  Uiso   1.00
C548   C     0.32135   0.75003   0.76920   0.00000  Uiso   1.00
C549   C     0.17608   0.54423   0.79107   0.00000  Uiso   1.00
C550   C     0.18021   0.95561   0.71348   0.00000  Uiso   1.00
C551   C     0.18187   0.59014   0.79236   0.00000  Uiso   1.00
C552   C     0.16702   0.83619   0.74971   0.00000  Uiso   1.00
C553   C     0.18608   0.90971   0.71420   0.00000  Uiso   1.00
C554   C     0.16370   0.61558   0.75084   0.00000  Uiso   1.00
C555   C     0.16405   0.88426   0.74846   0.00000  Uiso   1.00
C556   C     0.14026   0.59462   0.70900   0.00000  Uiso   1.00
C557   C     0.13692   0.90507   0.78144   0.00000  Uiso   1.00
C558   C     0.13516   0.54881   0.70805   0.00000  Uiso   1.00
C559   C     0.13172   0.95087   0.78066   0.00000  Uiso   1.00
C560   C     0.15322   0.52382   0.74900   0.00000  Uiso   1.00
C561   C     0.15345   0.97595   0.74677   0.00000  Uiso   1.00
C562   C     0.20856   0.60959   0.83584   0.00000  Uiso   1.00
C563   C     0.12418   0.73233   0.54701   0.00000  Uiso   1.00
C564   C     0.21696   0.89020   0.68118   0.00000  Uiso   1.00
C565   C     0.19156   0.78405   0.95040   0.00000  Uiso   1.00
C566   C     0.12505   0.73261   0.59677   0.00000  Uiso   1.00
C567   C     0.19123   0.78340   0.90073   0.00000  Uiso   1.00
C568   C     0.20830   0.76724   0.60766   0.00000  Uiso   1.00
C569   C     0.14211   0.71656   0.89477   0.00000  Uiso   1.00
C570   C     0.20914   0.76744   0.55814   0.00000  Uiso   1.00
H571   H     0.32468   0.75008   0.69433   0.00000  Uiso   1.00
H572   H     0.21064   0.81154   0.97049   0.00000  Uiso   1.00
H573   H     0.09220   0.71895   0.61182   0.00000  Uiso   1.00
H574   H     0.21057   0.80980   0.88370   0.00000  Uiso   1.00
H575   H     0.24125   0.78082   0.63126   0.00000  Uiso   1.00
H576   H     0.12284   0.69017   0.87302   0.00000  Uiso   1.00
H577   H     0.24330   0.78071   0.54484   0.00000  Uiso   1.00
H578   H     0.12264   0.68829   0.95986   0.00000  Uiso   1.00
H579   H     0.00866   0.74999   0.80565   0.00000  Uiso   1.00
H580   H     0.19113   0.52413   0.82223   0.00000  Uiso   1.00
H581   H     0.19813   0.97576   0.68823   0.00000  Uiso   1.00
H582   H     0.12563   0.61366   0.67702   0.00000  Uiso   1.00
H583   H     0.11944   0.88586   0.80764   0.00000  Uiso   1.00
H584   H     0.11773   0.53275   0.67539   0.00000  Uiso   1.00
H585   H     0.11130   0.96686   0.80663   0.00000  Uiso   1.00
H586   H     0.09003   0.71899   0.52472   0.00000  Uiso   1.00
N587   N     0.16667   0.74999   0.62623   0.00000  Uiso   1.00
N588   N     0.16667   0.75001   0.87376   0.00000  Uiso   1.00
N589   N     0.22994   0.62511   0.87065   0.00000  Uiso   1.00
N590   N     0.24177   0.87470   0.65475   0.00000  Uiso   1.00
O591   O     0.16667   0.68454   0.78974   0.00000  Uiso   1.00
O592   O     0.16666   0.81547   0.71026   0.00000  Uiso   1.00
O593   O     0.16667   0.68453   0.71026   0.00000  Uiso   1.00
O594   O     0.16666   0.81547   0.78974   0.00000  Uiso   1.00
O595   O     0.09058   0.75000   0.78044   0.00000  Uiso   1.00
O596   O     0.24275   0.75000   0.71955   0.00000  Uiso   1.00
O597   O     0.09058   0.75000   0.70096   0.00000  Uiso   1.00
O598   O     0.24275   0.75001   0.79903   0.00000  Uiso   1.00
Zn599  Zn    0.16667   0.75001   0.80307   0.00000  Uiso   1.00
Zn600  Zn    0.16667   0.75000   0.69693   0.00000  Uiso   1.00
C601   C     0.50021   0.66375   0.75039   0.00000  Uiso   1.00
C602   C     0.47505   0.71581   0.94436   0.00000  Uiso   1.00
C603   C     0.49997   0.74989   0.52665   0.00000  Uiso   1.00
C604   C     0.49996   0.74991   0.97330   0.00000  Uiso   1.00
C605   C     0.40033   0.75001   0.73753   0.00000  Uiso   1.00
C606   C     0.59967   0.75002   0.76247   0.00000  Uiso   1.00
C607   C     0.34531   0.75005   0.73078   0.00000  Uiso   1.00
C608   C     0.65469   0.75003   0.76920   0.00000  Uiso   1.00
C609   C     0.50941   0.54423   0.79107   0.00000  Uiso   1.00
C610   C     0.51354   0.95561   0.71348   0.00000  Uiso   1.00
C611   C     0.51520   0.59014   0.79236   0.00000  Uiso   1.00
C612   C     0.50036   0.83619   0.74971   0.00000  Uiso   1.00
C613   C     0.51941   0.90971   0.71420   0.00000  Uiso   1.00
C614   C     0.49703   0.61558   0.75084   0.00000  Uiso   1.00
C615   C     0.49738   0.88426   0.74846   0.00000  Uiso   1.00
C616   C     0.47359   0.59462   0.70900   0.00000  Uiso   1.00
C617   C     0.47025   0.90507   0.78144   0.00000  Uiso   1.00
C618   C     0.46850   0.54881   0.70805   0.00000  Uiso   1.00
C619   C     0.46505   0.95087   0.78066   0.00000  Uiso   1.00
C620   C     0.48655   0.52382   0.74900   0.00000  Uiso   1.00
C621   C     0.48678   0.97595   0.74677   0.00000  Uiso   1.00
C622   C     0.54189   0.60959   0.83584   0.00000  Uiso   1.00
C623   C     0.45751   0.73233   0.54701   0.00000  Uiso   1.00
C624   C     0.55029   0.89020   0.68118   0.00000  Uiso   1.00
C625   C     0.52490   0.78405   0.95040   0.00000  Uiso   1.00
C626   C     0.45838   0.73261   0.59677   0.00000  Uiso   1.00
C627   C     0.52456   0.78340   0.90073   0.00000  Uiso   1.00
C628   C     0.54164   0.76724   0.60766   0.00000  Uiso   1.00
C629   C     0.47544   0.71656   0.89477   0.00000  Uiso   1.00
C630   C     0.54247   0.76744   0.55814   0.00000  Uiso   1.00
H631   H     0.65802   0.75008   0.69433   0.00000  Uiso   1.00
H632   H     0.54397   0.81154   0.97049   0.00000  Uiso   1.00
H633   H     0.42554   0.71895   0.61182   0.00000  Uiso   1.00
H634   H     0.54390   0.80980   0.88370   0.00000  Uiso   1.00
H635   H     0.57459   0.78082   0.63126   0.00000  Uiso   1.00
H636   H     0.45617   0.69017   0.87302   0.00000  Uiso   1.00
H637   H     0.57664   0.78071   0.54484   0.00000  Uiso   1.00
H638   H     0.45597   0.68829   0.95986   0.00000  Uiso   1.00
H639   H     0.34199   0.74999   0.80565   0.00000  Uiso   1.00
H640   H     0.52446   0.52413   0.82223   0.00000  Uiso   1.00
H641   H     0.53146   0.97576   0.68823   0.00000  Uiso   1.00
H642   H     0.45896   0.61366   0.67702   0.00000  Uiso   1.00
H643   H     0.45277   0.88586   0.80764   0.00000  Uiso   1.00
H644   H     0.45106   0.53275   0.67539   0.00000  Uiso   1.00
H645   H     0.44464   0.96686   0.80663   0.00000  Uiso   1.00
H646   H     0.42337   0.71899   0.52472   0.00000  Uiso   1.00
N647   N     0.50000   0.74999   0.62623   0.00000  Uiso   1.00
N648   N     0.50000   0.75001   0.87376   0.00000  Uiso   1.00
N649   N     0.56328   0.62511   0.87065   0.00000  Uiso   1.00
N650   N     0.57510   0.87470   0.65475   0.00000  Uiso   1.00
O651   O     0.50000   0.68454   0.78974   0.00000  Uiso   1.00
O652   O     0.50000   0.81547   0.71026   0.00000  Uiso   1.00
O653   O     0.50000   0.68453   0.71026   0.00000  Uiso   1.00
O654   O     0.50000   0.81547   0.78974   0.00000  Uiso   1.00
O655   O     0.42392   0.75000   0.78044   0.00000  Uiso   1.00
O656   O     0.57608   0.75000   0.71955   0.00000  Uiso   1.00
O657   O     0.42392   0.75000   0.70096   0.00000  Uiso   1.00
O658   O     0.57608   0.75001   0.79903   0.00000  Uiso   1.00
Zn659  Zn    0.50000   0.75001   0.80307   0.00000  Uiso   1.00
Zn660  Zn    0.50000   0.75000   0.69693   0.00000  Uiso   1.00
C661   C     0.83354   0.66375   0.75039   0.00000  Uiso   1.00
C662   C     0.80839   0.71581   0.94436   0.00000  Uiso   1.00
C663   C     0.83331   0.74989   0.52665   0.00000  Uiso   1.00
C664   C     0.83330   0.74991   0.97330   0.00000  Uiso   1.00
C665   C     0.73366   0.75001   0.73753   0.00000  Uiso   1.00
C666   C     0.93300   0.75002   0.76247   0.00000  Uiso   1.00
C667   C     0.67865   0.75005   0.73078   0.00000  Uiso   1.00
C668   C     0.98802   0.75003   0.76920   0.00000  Uiso   1.00
C669   C     0.84275   0.54423   0.79107   0.00000  Uiso   1.00
C670   C     0.84688   0.95561   0.71348   0.00000  Uiso   1.00
C671   C     0.84853   0.59014   0.79236   0.00000  Uiso   1.00
C672   C     0.83369   0.83619   0.74971   0.00000  Uiso   1.00
C673   C     0.85274   0.90971   0.71420   0.00000  Uiso   1.00
C674   C     0.83036   0.61558   0.75084   0.00000  Uiso   1.00
C675   C     0.83071   0.88426   0.74846   0.00000  Uiso   1.00
C676   C     0.80693   0.59462   0.70900   0.00000  Uiso   1.00
C677   C     0.80359   0.90507   0.78144   0.00000  Uiso   1.00
C678   C     0.80183   0.54881   0.70805   0.00000  Uiso   1.00
C679   C     0.79839   0.95087   0.78066   0.00000  Uiso   1.00
C680   C     0.81988   0.52382   0.74900   0.00000  Uiso   1.00
C681   C     0.82011   0.97595   0.74677   0.00000  Uiso   1.00
C682   C     0.87523   0.60959   0.83584   0.00000  Uiso   1.00
C683   C     0.79084   0.73233   0.54701   0.00000  Uiso   1.00
C684   C     0.88363   0.89020   0.68118   0.00000  Uiso   1.00
C685   C     0.85823   0.78405   0.95040   0.00000  Uiso   1.00
C686   C     0.79172   0.73261   0.59677   0.00000  Uiso   1.00
C687   C     0.85789   0.78340   0.90073   0.00000  Uiso   1.00
C688   C     0.87497   0.76724   0.60766   0.00000  Uiso   1.00
C689   C     0.80878   0.71656   0.89477   0.00000  Uiso   1.00
C690   C     0.87580   0.76744   0.55814   0.00000  Uiso   1.00
H691   H     0.99135   0.75008   0.69433   0.00000  Uiso   1.00
H692   H     0.87731   0.81154   0.97049   0.00000  Uiso   1.00
H693   H     0.75887   0.71895   0.61182   0.00000  Uiso   1.00
H694   H     0.87724   0.80980   0.88370   0.00000  Uiso   1.00
H695   H     0.90792   0.78082   0.63126   0.00000  Uiso   1.00
H696   H     0.78951   0.69017   0.87302   0.00000  Uiso   1.00
H697   H     0.90997   0.78071   0.54484   0.00000  Uiso   1.00
H698   H     0.78931   0.68829   0.95986   0.00000  Uiso   1.00
H699   H     0.67533   0.74999   0.80565   0.00000  Uiso   1.00
H700   H     0.85779   0.52413   0.82223   0.00000  Uiso   1.00
H701   H     0.86480   0.97576   0.68823   0.00000  Uiso   1.00
H702   H     0.79230   0.61366   0.67702   0.00000  Uiso   1.00
H703   H     0.78611   0.88586   0.80764   0.00000  Uiso   1.00
H704   H     0.78440   0.53275   0.67539   0.00000  Uiso   1.00
H705   H     0.77797   0.96686   0.80663   0.00000  Uiso   1.00
H706   H     0.75670   0.71899   0.52472   0.00000  Uiso   1.00
N707   N     0.83333   0.74999   0.62623   0.00000  Uiso   1.00
N708   N     0.83333   0.75001   0.87376   0.00000  Uiso   1.00
N709   N     0.89661   0.62511   0.87065   0.00000  Uiso   1.00
N710   N     0.90843   0.87470   0.65475   0.00000  Uiso   1.00
O711   O     0.83334   0.68454   0.78974   0.00000  Uiso   1.00
O712   O     0.83333   0.81547   0.71026   0.00000  Uiso   1.00
O713   O     0.83334   0.68453   0.71026   0.00000  Uiso   1.00
O714   O     0.83333   0.81547   0.78974   0.00000  Uiso   1.00
O715   O     0.75725   0.75000   0.78044   0.00000  Uiso   1.00
O716   O     0.90942   0.75000   0.71955   0.00000  Uiso   1.00
O717   O     0.75725   0.75000   0.70096   0.00000  Uiso   1.00
O718   O     0.90942   0.75001   0.79903   0.00000  Uiso   1.00
Zn719  Zn    0.83333   0.75001   0.80307   0.00000  Uiso   1.00
Zn720  Zn    0.83333   0.75000   0.69693   0.00000  Uiso   1.00
loop_
_geom_bond_atom_site_label_1
_geom_bond_atom_site_label_2
_geom_bond_distance
_geom_bond_site_symmetry_2
_ccdc_geom_bond_type
C1     O51     1.284   .     A
C1     O53     1.289   .     A
C1     C14     1.446   .     S
C2     C4      1.410   .     A
C2     H38     1.082   .     S
C2     C29     1.407   .     A
C3     C30     1.410   .     A
C3     C23     1.410   .     A
C3     C364    1.511   1_554 S
C4     C25     1.410   .     A
C4     C363    1.511   .     S
C5     O57     1.278   .     A
C5     C7      1.402   .     S
C5     O55     1.275   .     A
C6     C8      1.402   .     S
C6     O58     1.278   .     A
C6     O56     1.275   .     A
C7     C128    1.330   1_455 S
C7     H151    1.088   1_455 S
C8     C67     1.330   .     S
C8     H99     1.088   .     S
C9     C11     1.385   .     A
C9     C20     1.395   .     A
C9     H40     1.085   .     S
C10    H41     1.085   .     S
C10    C21     1.396   .     A
C10    C13     1.384   .     A
C11    C14     1.414   .     A
C11    C22     1.446   .     S
C12    C15     1.443   .     S
C12    O52     1.284   .     A
C12    O54     1.288   .     A
C13    C15     1.412   .     A
C13    C24     1.446   .     S
C14    C16     1.402   .     A
C15    C17     1.401   .     A
C16    H42     1.084   .     S
C16    C18     1.380   .     A
C17    H43     1.084   .     S
C17    C19     1.380   .     A
C18    C20     1.394   .     A
C18    H44     1.084   .     S
C19    H45     1.084   .     S
C19    C21     1.394   .     A
C20    C201    1.438   1_545 S
C21    C200    1.438   .     S
C22    N49     1.157   .     T
C23    H46     1.082   .     S
C23    C26     1.407   .     A
C24    N50     1.157   .     T
C25    C27     1.406   .     A
C25    H32     1.082   .     S
C26    H33     1.081   .     S
C26    N47     1.363   .     A
C27    N48     1.363   .     A
C27    H34     1.082   .     S
C28    N47     1.363   .     A
C28    C30     1.406   .     A
C28    H35     1.081   .     S
C29    H36     1.082   .     S
C29    N48     1.363   .     A
C30    H37     1.082   .     S
H31    C67     1.088   .     S
H39    C128    1.088   1_455 S
N47    Zn60    2.003   .     S
N48    Zn59    2.003   .     S
O51    Zn59    2.003   .     S
O52    Zn60    2.003   .     S
O53    Zn60    1.994   .     S
O54    Zn59    1.994   .     S
O55    Zn59    1.970   .     S
O56    Zn60    1.970   .     S
O57    Zn60    1.982   .     S
O58    Zn59    1.982   .     S
C61    O111    1.284   .     A
C61    O113    1.289   .     A
C61    C74     1.446   .     S
C62    C64     1.410   .     A
C62    H98     1.082   .     S
C62    C89     1.407   .     A
C63    C90     1.410   .     A
C63    C83     1.410   .     A
C63    C424    1.511   1_554 S
C64    C85     1.410   .     A
C64    C423    1.511   .     S
C65    O117    1.278   .     A
C65    C67     1.402   .     S
C65    O115    1.275   .     A
C66    C68     1.402   .     S
C66    O118    1.278   .     A
C66    O116    1.275   .     A
C68    C127    1.330   .     S
C68    H159    1.088   .     S
C69    C71     1.385   .     A
C69    C80     1.395   .     A
C69    H100    1.085   .     S
C70    H101    1.085   .     S
C70    C81     1.396   .     A
C70    C73     1.384   .     A
C71    C74     1.414   .     A
C71    C82     1.446   .     S
C72    C75     1.443   .     S
C72    O112    1.284   .     A
C72    O114    1.288   .     A
C73    C75     1.412   .     A
C73    C84     1.446   .     S
C74    C76     1.402   .     A
C75    C77     1.401   .     A
C76    H102    1.084   .     S
C76    C78     1.380   .     A
C77    H103    1.084   .     S
C77    C79     1.380   .     A
C78    C80     1.394   .     A
C78    H104    1.084   .     S
C79    H105    1.084   .     S
C79    C81     1.394   .     A
C80    C261    1.438   1_545 S
C81    C260    1.438   .     S
C82    N109    1.157   .     T
C83    H106    1.082   .     S
C83    C86     1.407   .     A
C84    N110    1.157   .     T
C85    C87     1.406   .     A
C85    H92     1.082   .     S
C86    H93     1.081   .     S
C86    N107    1.363   .     A
C87    N108    1.363   .     A
C87    H94     1.082   .     S
C88    N107    1.363   .     A
C88    C90     1.406   .     A
C88    H95     1.081   .     S
C89    H96     1.082   .     S
C89    N108    1.363   .     A
C90    H97     1.082   .     S
H91    C127    1.088   .     S
N107   Zn120   2.003   .     S
N108   Zn119   2.003   .     S
O111   Zn119   2.003   .     S
O112   Zn120   2.003   .     S
O113   Zn120   1.994   .     S
O114   Zn119   1.994   .     S
O115   Zn119   1.970   .     S
O116   Zn120   1.970   .     S
O117   Zn120   1.982   .     S
O118   Zn119   1.982   .     S
C121   O171    1.284   .     A
C121   O173    1.289   .     A
C121   C134    1.446   .     S
C122   C124    1.410   .     A
C122   H158    1.082   .     S
C122   C149    1.407   .     A
C123   C150    1.410   .     A
C123   C143    1.410   .     A
C123   C484    1.511   1_554 S
C124   C145    1.410   .     A
C124   C483    1.511   .     S
C125   O177    1.278   .     A
C125   C127    1.402   .     S
C125   O175    1.275   .     A
C126   C128    1.402   .     S
C126   O178    1.278   .     A
C126   O176    1.275   .     A
C128   C7      1.330   1_655 S
C128   H39     1.088   1_655 S
C129   C131    1.385   .     A
C129   C140    1.395   .     A
C129   H160    1.085   .     S
C130   H161    1.085   .     S
C130   C141    1.396   .     A
C130   C133    1.384   .     A
C131   C134    1.414   .     A
C131   C142    1.446   .     S
C132   C135    1.443   .     S
C132   O172    1.284   .     A
C132   O174    1.288   .     A
C133   C135    1.412   .     A
C133   C144    1.446   .     S
C134   C136    1.402   .     A
C135   C137    1.401   .     A
C136   H162    1.084   .     S
C136   C138    1.380   .     A
C137   H163    1.084   .     S
C137   C139    1.380   .     A
C138   C140    1.394   .     A
C138   H164    1.084   .     S
C139   H165    1.084   .     S
C139   C141    1.394   .     A
C140   C321    1.438   1_545 S
C141   C320    1.438   .     S
C142   N169    1.157   .     T
C143   H166    1.082   .     S
C143   C146    1.407   .     A
C144   N170    1.157   .     T
C145   C147    1.406   .     A
C145   H152    1.082   .     S
C146   H153    1.081   .     S
C146   N167    1.363   .     A
C147   N168    1.363   .     A
C147   H154    1.082   .     S
C148   N167    1.363   .     A
C148   C150    1.406   .     A
C148   H155    1.081   .     S
C149   H156    1.082   .     S
C149   N168    1.363   .     A
C150   H157    1.082   .     S
H151   C7      1.088   1_655 S
N167   Zn180   2.003   .     S
N168   Zn179   2.003   .     S
O171   Zn179   2.003   .     S
O172   Zn180   2.003   .     S
O173   Zn180   1.994   .     S
O174   Zn179   1.994   .     S
O175   Zn179   1.970   .     S
O176   Zn180   1.970   .     S
O177   Zn180   1.982   .     S
O178   Zn179   1.982   .     S
C181   O231    1.284   .     A
C181   O233    1.289   .     A
C181   C194    1.446   .     S
C182   C184    1.410   .     A
C182   H218    1.082   .     S
C182   C209    1.407   .     A
C183   C210    1.410   .     A
C183   C203    1.410   .     A
C183   C544    1.511   1_554 S
C184   C205    1.410   .     A
C184   C543    1.511   .     S
C185   O237    1.278   .     A
C185   C187    1.402   .     S
C185   O235    1.275   .     A
C186   C188    1.402   .     S
C186   O238    1.278   .     A
C186   O236    1.275   .     A
C187   C308    1.330   1_455 S
C187   H331    1.088   1_455 S
C188   C247    1.330   .     S
C188   H279    1.088   .     S
C189   C191    1.385   .     A
C189   C200    1.395   .     A
C189   H220    1.085   .     S
C190   H221    1.085   .     S
C190   C201    1.396   .     A
C190   C193    1.384   .     A
C191   C194    1.414   .     A
C191   C202    1.446   .     S
C192   C195    1.443   .     S
C192   O232    1.284   .     A
C192   O234    1.288   .     A
C193   C195    1.412   .     A
C193   C204    1.446   .     S
C194   C196    1.402   .     A
C195   C197    1.401   .     A
C196   H222    1.084   .     S
C196   C198    1.380   .     A
C197   H223    1.084   .     S
C197   C199    1.380   .     A
C198   C200    1.394   .     A
C198   H224    1.084   .     S
C199   H225    1.084   .     S
C199   C201    1.394   .     A
C201   C20     1.438   1_565 S
C202   N229    1.157   .     T
C203   H226    1.082   .     S
C203   C206    1.407   .     A
C204   N230    1.157   .     T
C205   C207    1.406   .     A
C205   H212    1.082   .     S
C206   H213    1.081   .     S
C206   N227    1.363   .     A
C207   N228    1.363   .     A
C207   H214    1.082   .     S
C208   N227    1.363   .     A
C208   C210    1.406   .     A
C208   H215    1.081   .     S
C209   H216    1.082   .     S
C209   N228    1.363   .     A
C210   H217    1.082   .     S
H211   C247    1.088   .     S
H219   C308    1.088   1_455 S
N227   Zn240   2.003   .     S
N228   Zn239   2.003   .     S
O231   Zn239   2.003   .     S
O232   Zn240   2.003   .     S
O233   Zn240   1.994   .     S
O234   Zn239   1.994   .     S
O235   Zn239   1.970   .     S
O236   Zn240   1.970   .     S
O237   Zn240   1.982   .     S
O238   Zn239   1.982   .     S
C241   O291    1.284   .     A
C241   O293    1.289   .     A
C241   C254    1.446   .     S
C242   C244    1.410   .     A
C242   H278    1.082   .     S
C242   C269    1.407   .     A
C243   C270    1.410   .     A
C243   C263    1.410   .     A
C243   C604    1.511   1_554 S
C244   C265    1.410   .     A
C244   C603    1.511   .     S
C245   O297    1.278   .     A
C245   C247    1.402   .     S
C245   O295    1.275   .     A
C246   C248    1.402   .     S
C246   O298    1.278   .     A
C246   O296    1.275   .     A
C248   C307    1.330   .     S
C248   H339    1.088   .     S
C249   C251    1.385   .     A
C249   C260    1.395   .     A
C249   H280    1.085   .     S
C250   H281    1.085   .     S
C250   C261    1.396   .     A
C250   C253    1.384   .     A
C251   C254    1.414   .     A
C251   C262    1.446   .     S
C252   C255    1.443   .     S
C252   O292    1.284   .     A
C252   O294    1.288   .     A
C253   C255    1.412   .     A
C253   C264    1.446   .     S
C254   C256    1.402   .     A
C255   C257    1.401   .     A
C256   H282    1.084   .     S
C256   C258    1.380   .     A
C257   H283    1.084   .     S
C257   C259    1.380   .     A
C258   C260    1.394   .     A
C258   H284    1.084   .     S
C259   H285    1.084   .     S
C259   C261    1.394   .     A
C261   C80     1.438   1_565 S
C262   N289    1.157   .     T
C263   H286    1.082   .     S
C263   C266    1.407   .     A
C264   N290    1.157   .     T
C265   C267    1.406   .     A
C265   H272    1.082   .     S
C266   H273    1.081   .     S
C266   N287    1.363   .     A
C267   N288    1.363   .     A
C267   H274    1.082   .     S
C268   N287    1.363   .     A
C268   C270    1.406   .     A
C268   H275    1.081   .     S
C269   H276    1.082   .     S
C269   N288    1.363   .     A
C270   H277    1.082   .     S
H271   C307    1.088   .     S
N287   Zn300   2.003   .     S
N288   Zn299   2.003   .     S
O291   Zn299   2.003   .     S
O292   Zn300   2.003   .     S
O293   Zn300   1.994   .     S
O294   Zn299   1.994   .     S
O295   Zn299   1.970   .     S
O296   Zn300   1.970   .     S
O297   Zn300   1.982   .     S
O298   Zn299   1.982   .     S
C301   O351    1.284   .     A
C301   O353    1.289   .     A
C301   C314    1.446   .     S
C302   C304    1.410   .     A
C302   H338    1.082   .     S
C302   C329    1.407   .     A
C303   C330    1.410   .     A
C303   C323    1.410   .     A
C303   C664    1.511   1_554 S
C304   C325    1.410   .     A
C304   C663    1.511   .     S
C305   O357    1.278   .     A
C305   C307    1.402   .     S
C305   O355    1.275   .     A
C306   C308    1.402   .     S
C306   O358    1.278   .     A
C306   O356    1.275   .     A
C308   C187    1.330   1_655 S
C308   H219    1.088   1_655 S
C309   C311    1.385   .     A
C309   C320    1.395   .     A
C309   H340    1.085   .     S
C310   H341    1.085   .     S
C310   C321    1.396   .     A
C310   C313    1.384   .     A
C311   C314    1.414   .     A
C311   C322    1.446   .     S
C312   C315    1.443   .     S
C312   O352    1.284   .     A
C312   O354    1.288   .     A
C313   C315    1.412   .     A
C313   C324    1.446   .     S
C314   C316    1.402   .     A
C315   C317    1.401   .     A
C316   H342    1.084   .     S
C316   C318    1.380   .     A
C317   H343    1.084   .     S
C317   C319    1.380   .     A
C318   C320    1.394   .     A
C318   H344    1.084   .     S
C319   H345    1.084   .     S
C319   C321    1.394   .     A
C321   C140    1.438   1_565 S
C322   N349    1.157   .     T
C323   H346    1.082   .     S
C323   C326    1.407   .     A
C324   N350    1.157   .     T
C325   C327    1.406   .     A
C325   H332    1.082   .     S
C326   H333    1.081   .     S
C326   N347    1.363   .     A
C327   N348    1.363   .     A
C327   H334    1.082   .     S
C328   N347    1.363   .     A
C328   C330    1.406   .     A
C328   H335    1.081   .     S
C329   H336    1.082   .     S
C329   N348    1.363   .     A
C330   H337    1.082   .     S
H331   C187    1.088   1_655 S
N347   Zn360   2.003   .     S
N348   Zn359   2.003   .     S
O351   Zn359   2.003   .     S
O352   Zn360   2.003   .     S
O353   Zn360   1.994   .     S
O354   Zn359   1.994   .     S
O355   Zn359   1.970   .     S
O356   Zn360   1.970   .     S
O357   Zn360   1.982   .     S
O358   Zn359   1.982   .     S
C361   O411    1.284   .     A
C361   O413    1.289   .     A
C361   C374    1.446   .     S
C362   C364    1.410   .     A
C362   H398    1.082   .     S
C362   C389    1.407   .     A
C363   C390    1.410   .     A
C363   C383    1.410   .     A
C364   C385    1.410   .     A
C364   C3      1.511   1_556 S
C365   O417    1.278   .     A
C365   C367    1.402   .     S
C365   O415    1.275   .     A
C366   C368    1.402   .     S
C366   O418    1.278   .     A
C366   O416    1.275   .     A
C367   C488    1.330   1_455 S
C367   H511    1.088   1_455 S
C368   C427    1.330   .     S
C368   H459    1.088   .     S
C369   C371    1.385   .     A
C369   C380    1.395   .     A
C369   H400    1.085   .     S
C370   H401    1.085   .     S
C370   C381    1.396   .     A
C370   C373    1.384   .     A
C371   C374    1.414   .     A
C371   C382    1.446   .     S
C372   C375    1.443   .     S
C372   O412    1.284   .     A
C372   O414    1.288   .     A
C373   C375    1.412   .     A
C373   C384    1.446   .     S
C374   C376    1.402   .     A
C375   C377    1.401   .     A
C376   H402    1.084   .     S
C376   C378    1.380   .     A
C377   H403    1.084   .     S
C377   C379    1.380   .     A
C378   C380    1.394   .     A
C378   H404    1.084   .     S
C379   H405    1.084   .     S
C379   C381    1.394   .     A
C380   C561    1.438   1_545 S
C381   C560    1.438   .     S
C382   N409    1.157   .     T
C383   H406    1.082   .     S
C383   C386    1.407   .     A
C384   N410    1.157   .     T
C385   C387    1.406   .     A
C385   H392    1.082   .     S
C386   H393    1.081   .     S
C386   N407    1.363   .     A
C387   N408    1.363   .     A
C387   H394    1.082   .     S
C388   N407    1.363   .     A
C388   C390    1.406   .     A
C388   H395    1.081   .     S
C389   H396    1.082   .     S
C389   N408    1.363   .     A
C390   H397    1.082   .     S
H391   C427    1.088   .     S
H399   C488    1.088   1_455 S
N407   Zn420   2.003   .     S
N408   Zn419   2.003   .     S
O411   Zn419   2.003   .     S
O412   Zn420   2.003   .     S
O413   Zn420   1.994   .     S
O414   Zn419   1.994   .     S
O415   Zn419   1.970   .     S
O416   Zn420   1.970   .     S
O417   Zn420   1.982   .     S
O418   Zn419   1.982   .     S
C421   O471    1.284   .     A
C421   O473    1.289   .     A
C421   C434    1.446   .     S
C422   C424    1.410   .     A
C422   H458    1.082   .     S
C422   C449    1.407   .     A
C423   C450    1.410   .     A
C423   C443    1.410   .     A
C424   C445    1.410   .     A
C424   C63     1.511   1_556 S
C425   O477    1.278   .     A
C425   C427    1.402   .     S
C425   O475    1.275   .     A
C426   C428    1.402   .     S
C426   O478    1.278   .     A
C426   O476    1.275   .     A
C428   C487    1.330   .     S
C428   H519    1.088   .     S
C429   C431    1.385   .     A
C429   C440    1.395   .     A
C429   H460    1.085   .     S
C430   H461    1.085   .     S
C430   C441    1.396   .     A
C430   C433    1.384   .     A
C431   C434    1.414   .     A
C431   C442    1.446   .     S
C432   C435    1.443   .     S
C432   O472    1.284   .     A
C432   O474    1.288   .     A
C433   C435    1.412   .     A
C433   C444    1.446   .     S
C434   C436    1.402   .     A
C435   C437    1.401   .     A
C436   H462    1.084   .     S
C436   C438    1.380   .     A
C437   H463    1.084   .     S
C437   C439    1.380   .     A
C438   C440    1.394   .     A
C438   H464    1.084   .     S
C439   H465    1.084   .     S
C439   C441    1.394   .     A
C440   C621    1.438   1_545 S
C441   C620    1.438   .     S
C442   N469    1.157   .     T
C443   H466    1.082   .     S
C443   C446    1.407   .     A
C444   N470    1.157   .     T
C445   C447    1.406   .     A
C445   H452    1.082   .     S
C446   H453    1.081   .     S
C446   N467    1.363   .     A
C447   N468    1.363   .     A
C447   H454    1.082   .     S
C448   N467    1.363   .     A
C448   C450    1.406   .     A
C448   H455    1.081   .     S
C449   H456    1.082   .     S
C449   N468    1.363   .     A
C450   H457    1.082   .     S
H451   C487    1.088   .     S
N467   Zn480   2.003   .     S
N468   Zn479   2.003   .     S
O471   Zn479   2.003   .     S
O472   Zn480   2.003   .     S
O473   Zn480   1.994   .     S
O474   Zn479   1.994   .     S
O475   Zn479   1.970   .     S
O476   Zn480   1.970   .     S
O477   Zn480   1.982   .     S
O478   Zn479   1.982   .     S
C481   O531    1.284   .     A
C481   O533    1.289   .     A
C481   C494    1.446   .     S
C482   C484    1.410   .     A
C482   H518    1.082   .     S
C482   C509    1.407   .     A
C483   C510    1.410   .     A
C483   C503    1.410   .     A
C484   C505    1.410   .     A
C484   C123    1.511   1_556 S
C485   O537    1.278   .     A
C485   C487    1.402   .     S
C485   O535    1.275   .     A
C486   C488    1.402   .     S
C486   O538    1.278   .     A
C486   O536    1.275   .     A
C488   C367    1.330   1_655 S
C488   H399    1.088   1_655 S
C489   C491    1.385   .     A
C489   C500    1.395   .     A
C489   H520    1.085   .     S
C490   H521    1.085   .     S
C490   C501    1.396   .     A
C490   C493    1.384   .     A
C491   C494    1.414   .     A
C491   C502    1.446   .     S
C492   C495    1.443   .     S
C492   O532    1.284   .     A
C492   O534    1.288   .     A
C493   C495    1.412   .     A
C493   C504    1.446   .     S
C494   C496    1.402   .     A
C495   C497    1.401   .     A
C496   H522    1.084   .     S
C496   C498    1.380   .     A
C497   H523    1.084   .     S
C497   C499    1.380   .     A
C498   C500    1.394   .     A
C498   H524    1.084   .     S
C499   H525    1.084   .     S
C499   C501    1.394   .     A
C500   C681    1.438   1_545 S
C501   C680    1.438   .     S
C502   N529    1.157   .     T
C503   H526    1.082   .     S
C503   C506    1.407   .     A
C504   N530    1.157   .     T
C505   C507    1.406   .     A
C505   H512    1.082   .     S
C506   H513    1.081   .     S
C506   N527    1.363   .     A
C507   N528    1.363   .     A
C507   H514    1.082   .     S
C508   N527    1.363   .     A
C508   C510    1.406   .     A
C508   H515    1.081   .     S
C509   H516    1.082   .     S
C509   N528    1.363   .     A
C510   H517    1.082   .     S
H511   C367    1.088   1_655 S
N527   Zn540   2.003   .     S
N528   Zn539   2.003   .     S
O531   Zn539   2.003   .     S
O532   Zn540   2.003   .     S
O533   Zn540   1.994   .     S
O534   Zn539   1.994   .     S
O535   Zn539   1.970   .     S
O536   Zn540   1.970   .     S
O537   Zn540   1.982   .     S
O538   Zn539   1.982   .     S
C541   O591    1.284   .     A
C541   O593    1.289   .     A
C541   C554    1.446   .     S
C542   C544    1.410   .     A
C542   H578    1.082   .     S
C542   C569    1.407   .     A
C543   C570    1.410   .     A
C543   C563    1.410   .     A
C544   C565    1.410   .     A
C544   C183    1.511   1_556 S
C545   O597    1.278   .     A
C545   C547    1.402   .     S
C545   O595    1.275   .     A
C546   C548    1.402   .     S
C546   O598    1.278   .     A
C546   O596    1.275   .     A
C547   C668    1.330   1_455 S
C547   H691    1.088   1_455 S
C548   C607    1.330   .     S
C548   H639    1.088   .     S
C549   C551    1.385   .     A
C549   C560    1.395   .     A
C549   H580    1.085   .     S
C550   H581    1.085   .     S
C550   C561    1.396   .     A
C550   C553    1.384   .     A
C551   C554    1.414   .     A
C551   C562    1.446   .     S
C552   C555    1.443   .     S
C552   O592    1.284   .     A
C552   O594    1.288   .     A
C553   C555    1.412   .     A
C553   C564    1.446   .     S
C554   C556    1.402   .     A
C555   C557    1.401   .     A
C556   H582    1.084   .     S
C556   C558    1.380   .     A
C557   H583    1.084   .     S
C557   C559    1.380   .     A
C558   C560    1.394   .     A
C558   H584    1.084   .     S
C559   H585    1.084   .     S
C559   C561    1.394   .     A
C561   C380    1.438   1_565 S
C562   N589    1.157   .     T
C563   H586    1.082   .     S
C563   C566    1.407   .     A
C564   N590    1.157   .     T
C565   C567    1.406   .     A
C565   H572    1.082   .     S
C566   H573    1.081   .     S
C566   N587    1.363   .     A
C567   N588    1.363   .     A
C567   H574    1.082   .     S
C568   N587    1.363   .     A
C568   C570    1.406   .     A
C568   H575    1.081   .     S
C569   H576    1.082   .     S
C569   N588    1.363   .     A
C570   H577    1.082   .     S
H571   C607    1.088   .     S
H579   C668    1.088   1_455 S
N587   Zn600   2.003   .     S
N588   Zn599   2.003   .     S
O591   Zn599   2.003   .     S
O592   Zn600   2.003   .     S
O593   Zn600   1.994   .     S
O594   Zn599   1.994   .     S
O595   Zn599   1.970   .     S
O596   Zn600   1.970   .     S
O597   Zn600   1.982   .     S
O598   Zn599   1.982   .     S
C601   O651    1.284   .     A
C601   O653    1.289   .     A
C601   C614    1.446   .     S
C602   C604    1.410   .     A
C602   H638    1.082   .     S
C602   C629    1.407   .     A
C603   C630    1.410   .     A
C603   C623    1.410   .     A
C604   C625    1.410   .     A
C604   C243    1.511   1_556 S
C605   O657    1.278   .     A
C605   C607    1.402   .     S
C605   O655    1.275   .     A
C606   C608    1.402   .     S
C606   O658    1.278   .     A
C606   O656    1.275   .     A
C608   C667    1.330   .     S
C608   H699    1.088   .     S
C609   C611    1.385   .     A
C609   C620    1.395   .     A
C609   H640    1.085   .     S
C610   H641    1.085   .     S
C610   C621    1.396   .     A
C610   C613    1.384   .     A
C611   C614    1.414   .     A
C611   C622    1.446   .     S
C612   C615    1.443   .     S
C612   O652    1.284   .     A
C612   O654    1.288   .     A
C613   C615    1.412   .     A
C613   C624    1.446   .     S
C614   C616    1.402   .     A
C615   C617    1.401   .     A
C616   H642    1.084   .     S
C616   C618    1.380   .     A
C617   H643    1.084   .     S
C617   C619    1.380   .     A
C618   C620    1.394   .     A
C618   H644    1.084   .     S
C619   H645    1.084   .     S
C619   C621    1.394   .     A
C621   C440    1.438   1_565 S
C622   N649    1.157   .     T
C623   H646    1.082   .     S
C623   C626    1.407   .     A
C624   N650    1.157   .     T
C625   C627    1.406   .     A
C625   H632    1.082   .     S
C626   H633    1.081   .     S
C626   N647    1.363   .     A
C627   N648    1.363   .     A
C627   H634    1.082   .     S
C628   N647    1.363   .     A
C628   C630    1.406   .     A
C628   H635    1.081   .     S
C629   H636    1.082   .     S
C629   N648    1.363   .     A
C630   H637    1.082   .     S
H631   C667    1.088   .     S
N647   Zn660   2.003   .     S
N648   Zn659   2.003   .     S
O651   Zn659   2.003   .     S
O652   Zn660   2.003   .     S
O653   Zn660   1.994   .     S
O654   Zn659   1.994   .     S
O655   Zn659   1.970   .     S
O656   Zn660   1.970   .     S
O657   Zn660   1.982   .     S
O658   Zn659   1.982   .     S
C661   O711    1.284   .     A
C661   O713    1.289   .     A
C661   C674    1.446   .     S
C662   C664    1.410   .     A
C662   H698    1.082   .     S
C662   C689    1.407   .     A
C663   C690    1.410   .     A
C663   C683    1.410   .     A
C664   C685    1.410   .     A
C664   C303    1.511   1_556 S
C665   O717    1.278   .     A
C665   C667    1.402   .     S
C665   O715    1.275   .     A
C666   C668    1.402   .     S
C666   O718    1.278   .     A
C666   O716    1.275   .     A
C668   C547    1.330   1_655 S
C668   H579    1.088   1_655 S
C669   C671    1.385   .     A
C669   C680    1.395   .     A
C669   H700    1.085   .     S
C670   H701    1.085   .     S
C670   C681    1.396   .     A
C670   C673    1.384   .     A
C671   C674    1.414   .     A
C671   C682    1.446   .     S
C672   C675    1.443   .     S
C672   O712    1.284   .     A
C672   O714    1.288   .     A
C673   C675    1.412   .     A
C673   C684    1.446   .     S
C674   C676    1.402   .     A
C675   C677    1.401   .     A
C676   H702    1.084   .     S
C676   C678    1.380   .     A
C677   H703    1.084   .     S
C677   C679    1.380   .     A
C678   C680    1.394   .     A
C678   H704    1.084   .     S
C679   H705    1.084   .     S
C679   C681    1.394   .     A
C681   C500    1.438   1_565 S
C682   N709    1.157   .     T
C683   H706    1.082   .     S
C683   C686    1.407   .     A
C684   N710    1.157   .     T
C685   C687    1.406   .     A
C685   H692    1.082   .     S
C686   H693    1.081   .     S
C686   N707    1.363   .     A
C687   N708    1.363   .     A
C687   H694    1.082   .     S
C688   N707    1.363   .     A
C688   C690    1.406   .     A
C688   H695    1.081   .     S
C689   H696    1.082   .     S
C689   N708    1.363   .     A
C690   H697    1.082   .     S
H691   C547    1.088   1_655 S
N707   Zn720   2.003   .     S
N708   Zn719   2.003   .     S
O711   Zn719   2.003   .     S
O712   Zn720   2.003   .     S
O713   Zn720   1.994   .     S
O714   Zn719   1.994   .     S
O715   Zn719   1.970   .     S
O716   Zn720   1.970   .     S
O717   Zn720   1.982   .     S
O718   Zn719   1.982   .     S
