data_str_m2_o1_o18_pcu_sym.40
_audit_creation_date              2020-01-03
_audit_creation_method            'Materials Studio'
_symmetry_space_group_name_H-M    'P1'
_symmetry_Int_Tables_number       1
_symmetry_cell_setting            triclinic
loop_
_symmetry_equiv_pos_as_xyz
  x,y,z
_cell_length_a                    28.5528
_cell_length_b                    32.4978
_cell_length_c                    30.9822
_cell_angle_alpha                 89.8890
_cell_angle_beta                  74.3874
_cell_angle_gamma                 90.0129
loop_
_atom_site_label
_atom_site_type_symbol
_atom_site_fract_x
_atom_site_fract_y
_atom_site_fract_z
_atom_site_U_iso_or_equiv
_atom_site_adp_type
_atom_site_occupancy
C1     C     0.33331   0.08736   0.25002   0.00000  Uiso   1.00
C2     C     0.04254   0.02130   0.25007   0.00000  Uiso   1.00
C3     C     0.00003   0.29059   0.24992   0.00000  Uiso   1.00
C4     C     0.33332   0.04274   0.25001   0.00000  Uiso   1.00
C5     C     0.18278   0.14279   0.27961   0.00000  Uiso   1.00
C6     C     0.15055   0.19054   0.22038   0.00000  Uiso   1.00
C7     C     0.13317   0.14282   0.27962   0.00000  Uiso   1.00
C8     C     0.20017   0.19051   0.22037   0.00000  Uiso   1.00
C9     C     0.30606   0.16637   0.33610   0.00000  Uiso   1.00
C10    C     0.02729   0.16752   0.16395   0.00000  Uiso   1.00
C11    C     0.29113   0.16500   0.38525   0.00000  Uiso   1.00
C12    C     0.00003   0.24598   0.24995   0.00000  Uiso   1.00
C13    C     0.04259   0.17337   0.11525   0.00000  Uiso   1.00
C14    C     0.30822   0.14952   0.45606   0.00000  Uiso   1.00
C15    C     0.02885   0.20204   0.04739   0.00000  Uiso   1.00
C16    C     0.32407   0.15428   0.40952   0.00000  Uiso   1.00
C17    C     0.01129   0.19068   0.09247   0.00000  Uiso   1.00
C18    C     0.24267   0.17300   0.40776   0.00000  Uiso   1.00
C19    C     0.09102   0.16578   0.09253   0.00000  Uiso   1.00
C20    C     0.22600   0.17099   0.45472   0.00000  Uiso   1.00
C21    C     0.11025   0.17745   0.04757   0.00000  Uiso   1.00
C22    C     0.25938   0.15833   0.47885   0.00000  Uiso   1.00
C23    C     0.19512   0.16077   0.04791   0.00000  Uiso   1.00
C24    C     0.07804   0.19457   0.02455   0.00000  Uiso   1.00
C25    C     0.17677   0.17993   0.47809   0.00000  Uiso   1.00
C26    C     0.16047   0.17227   0.02496   0.00000  Uiso   1.00
C27    C     0.01648   0.09567   0.47445   0.00000  Uiso   1.00
C28    C     0.32220   0.26027   0.03766   0.00000  Uiso   1.00
C29    C     0.14356   0.19701   0.45633   0.00000  Uiso   1.00
C30    C     0.24345   0.15419   0.02532   0.00000  Uiso   1.00
C31    C     0.09549   0.20448   0.47923   0.00000  Uiso   1.00
C32    C     0.29080   0.02127   0.24989   0.00000  Uiso   1.00
C33    C     0.04256   0.31206   0.25001   0.00000  Uiso   1.00
C34    C     0.29082   0.31203   0.24983   0.00000  Uiso   1.00
Cu35   Cu    0.04689   0.16667   0.25000   0.00000  Uiso   1.00
Cu36   Cu    0.28645   0.16666   0.25000   0.00000  Uiso   1.00
H37    H     0.26833   0.14530   0.04463   0.00000  Uiso   1.00
H38    H     0.07583   0.29606   0.25006   0.00000  Uiso   1.00
H39    H     0.25758   0.29601   0.24973   0.00000  Uiso   1.00
H40    H     0.07578   0.03732   0.25017   0.00000  Uiso   1.00
H41    H     0.19452   0.12357   0.30327   0.00000  Uiso   1.00
H42    H     0.13882   0.20974   0.19671   0.00000  Uiso   1.00
H43    H     0.10751   0.12369   0.30331   0.00000  Uiso   1.00
H44    H     0.22582   0.20963   0.19668   0.00000  Uiso   1.00
H45    H     0.31547   0.07772   0.48603   0.00000  Uiso   1.00
H46    H     0.04056   0.08647   0.49555   0.00000  Uiso   1.00
H47    H     0.03549   0.08777   0.43917   0.00000  Uiso   1.00
H48    H     0.07181   0.21794   0.46095   0.00000  Uiso   1.00
H49    H     0.29953   0.27419   0.01749   0.00000  Uiso   1.00
H50    H     0.02346   0.27807   0.03068   0.00000  Uiso   1.00
H51    H     0.30177   0.26310   0.07356   0.00000  Uiso   1.00
H52    H     0.11289   0.15025   0.11089   0.00000  Uiso   1.00
H53    H     0.21830   0.17974   0.38759   0.00000  Uiso   1.00
H54    H     0.30691   0.19651   0.10985   0.00000  Uiso   1.00
H55    H     0.02849   0.14832   0.39239   0.00000  Uiso   1.00
H56    H     0.18650   0.15771   0.08381   0.00000  Uiso   1.00
H57    H     0.15383   0.20642   0.42172   0.00000  Uiso   1.00
H58    H     0.25753   0.03727   0.24985   0.00000  Uiso   1.00
N59    N     0.11736   0.16668   0.24999   0.00000  Uiso   1.00
N60    N     0.21597   0.16666   0.25001   0.00000  Uiso   1.00
O61    O     0.03958   0.10655   0.25000   0.00000  Uiso   1.00
O62    O     0.33074   0.21873   0.02502   0.00000  Uiso   1.00
O63    O     0.29375   0.22678   0.25000   0.00000  Uiso   1.00
O64    O     0.29372   0.10654   0.25000   0.00000  Uiso   1.00
O65    O     0.03961   0.22679   0.25000   0.00000  Uiso   1.00
O66    O     0.01852   0.16668   0.31492   0.00000  Uiso   1.00
O67    O     0.31481   0.16666   0.18508   0.00000  Uiso   1.00
O68    O     0.27267   0.16667   0.31492   0.00000  Uiso   1.00
O69    O     0.06067   0.16667   0.18508   0.00000  Uiso   1.00
O70    O     0.00779   0.13830   0.47956   0.00000  Uiso   1.00
C71    C     0.66665   0.08736   0.25002   0.00000  Uiso   1.00
C72    C     0.37587   0.02130   0.25007   0.00000  Uiso   1.00
C73    C     0.33337   0.29059   0.24992   0.00000  Uiso   1.00
C74    C     0.66665   0.04274   0.25001   0.00000  Uiso   1.00
C75    C     0.51612   0.14279   0.27961   0.00000  Uiso   1.00
C76    C     0.48389   0.19054   0.22038   0.00000  Uiso   1.00
C77    C     0.46650   0.14282   0.27962   0.00000  Uiso   1.00
C78    C     0.53350   0.19051   0.22037   0.00000  Uiso   1.00
C79    C     0.63939   0.16637   0.33610   0.00000  Uiso   1.00
C80    C     0.36062   0.16752   0.16395   0.00000  Uiso   1.00
C81    C     0.62447   0.16500   0.38525   0.00000  Uiso   1.00
C82    C     0.33336   0.24598   0.24995   0.00000  Uiso   1.00
C83    C     0.37592   0.17337   0.11525   0.00000  Uiso   1.00
C84    C     0.64155   0.14952   0.45606   0.00000  Uiso   1.00
C85    C     0.36219   0.20204   0.04739   0.00000  Uiso   1.00
C86    C     0.65740   0.15428   0.40952   0.00000  Uiso   1.00
C87    C     0.34462   0.19068   0.09247   0.00000  Uiso   1.00
C88    C     0.57600   0.17300   0.40776   0.00000  Uiso   1.00
C89    C     0.42436   0.16578   0.09253   0.00000  Uiso   1.00
C90    C     0.55934   0.17099   0.45472   0.00000  Uiso   1.00
C91    C     0.44358   0.17745   0.04757   0.00000  Uiso   1.00
C92    C     0.59271   0.15833   0.47885   0.00000  Uiso   1.00
C93    C     0.52846   0.16077   0.04791   0.00000  Uiso   1.00
C94    C     0.41137   0.19457   0.02455   0.00000  Uiso   1.00
C95    C     0.51011   0.17993   0.47809   0.00000  Uiso   1.00
C96    C     0.49380   0.17227   0.02496   0.00000  Uiso   1.00
C97    C     0.34982   0.09567   0.47445   0.00000  Uiso   1.00
C98    C     0.65554   0.26027   0.03766   0.00000  Uiso   1.00
C99    C     0.47690   0.19701   0.45633   0.00000  Uiso   1.00
C100   C     0.57678   0.15419   0.02532   0.00000  Uiso   1.00
C101   C     0.42882   0.20448   0.47923   0.00000  Uiso   1.00
C102   C     0.62413   0.02127   0.24989   0.00000  Uiso   1.00
C103   C     0.37589   0.31206   0.25001   0.00000  Uiso   1.00
C104   C     0.62416   0.31203   0.24983   0.00000  Uiso   1.00
Cu105  Cu    0.38022   0.16667   0.25000   0.00000  Uiso   1.00
Cu106  Cu    0.61978   0.16666   0.25000   0.00000  Uiso   1.00
H107   H     0.60166   0.14530   0.04463   0.00000  Uiso   1.00
H108   H     0.40916   0.29606   0.25006   0.00000  Uiso   1.00
H109   H     0.59091   0.29601   0.24973   0.00000  Uiso   1.00
H110   H     0.40911   0.03732   0.25017   0.00000  Uiso   1.00
H111   H     0.52785   0.12357   0.30327   0.00000  Uiso   1.00
H112   H     0.47215   0.20974   0.19671   0.00000  Uiso   1.00
H113   H     0.44085   0.12369   0.30331   0.00000  Uiso   1.00
H114   H     0.55916   0.20963   0.19668   0.00000  Uiso   1.00
H115   H     0.64880   0.07772   0.48603   0.00000  Uiso   1.00
H116   H     0.37390   0.08647   0.49555   0.00000  Uiso   1.00
H117   H     0.36883   0.08777   0.43917   0.00000  Uiso   1.00
H118   H     0.40514   0.21794   0.46095   0.00000  Uiso   1.00
H119   H     0.63287   0.27419   0.01749   0.00000  Uiso   1.00
H120   H     0.35679   0.27807   0.03068   0.00000  Uiso   1.00
H121   H     0.63510   0.26310   0.07356   0.00000  Uiso   1.00
H122   H     0.44622   0.15025   0.11089   0.00000  Uiso   1.00
H123   H     0.55163   0.17974   0.38759   0.00000  Uiso   1.00
H124   H     0.64024   0.19651   0.10985   0.00000  Uiso   1.00
H125   H     0.36183   0.14832   0.39239   0.00000  Uiso   1.00
H126   H     0.51983   0.15771   0.08381   0.00000  Uiso   1.00
H127   H     0.48716   0.20642   0.42172   0.00000  Uiso   1.00
H128   H     0.59087   0.03727   0.24985   0.00000  Uiso   1.00
N129   N     0.45069   0.16668   0.24999   0.00000  Uiso   1.00
N130   N     0.54931   0.16666   0.25001   0.00000  Uiso   1.00
O131   O     0.37291   0.10655   0.25000   0.00000  Uiso   1.00
O132   O     0.66407   0.21873   0.02502   0.00000  Uiso   1.00
O133   O     0.62709   0.22678   0.25000   0.00000  Uiso   1.00
O134   O     0.62706   0.10654   0.25000   0.00000  Uiso   1.00
O135   O     0.37294   0.22679   0.25000   0.00000  Uiso   1.00
O136   O     0.35186   0.16668   0.31492   0.00000  Uiso   1.00
O137   O     0.64814   0.16666   0.18508   0.00000  Uiso   1.00
O138   O     0.60600   0.16667   0.31492   0.00000  Uiso   1.00
O139   O     0.39400   0.16667   0.18508   0.00000  Uiso   1.00
O140   O     0.34112   0.13830   0.47956   0.00000  Uiso   1.00
C141   C     0.99998   0.08736   0.25002   0.00000  Uiso   1.00
C142   C     0.70920   0.02130   0.25007   0.00000  Uiso   1.00
C143   C     0.66670   0.29059   0.24992   0.00000  Uiso   1.00
C144   C     0.99999   0.04274   0.25001   0.00000  Uiso   1.00
C145   C     0.84945   0.14279   0.27961   0.00000  Uiso   1.00
C146   C     0.81722   0.19054   0.22038   0.00000  Uiso   1.00
C147   C     0.79984   0.14282   0.27962   0.00000  Uiso   1.00
C148   C     0.86683   0.19051   0.22037   0.00000  Uiso   1.00
C149   C     0.97272   0.16637   0.33610   0.00000  Uiso   1.00
C150   C     0.69395   0.16752   0.16395   0.00000  Uiso   1.00
C151   C     0.95780   0.16500   0.38525   0.00000  Uiso   1.00
C152   C     0.66670   0.24598   0.24995   0.00000  Uiso   1.00
C153   C     0.70926   0.17337   0.11525   0.00000  Uiso   1.00
C154   C     0.97488   0.14952   0.45606   0.00000  Uiso   1.00
C155   C     0.69552   0.20204   0.04739   0.00000  Uiso   1.00
C156   C     0.99074   0.15428   0.40952   0.00000  Uiso   1.00
C157   C     0.67796   0.19068   0.09247   0.00000  Uiso   1.00
C158   C     0.90934   0.17300   0.40776   0.00000  Uiso   1.00
C159   C     0.75769   0.16578   0.09253   0.00000  Uiso   1.00
C160   C     0.89267   0.17099   0.45472   0.00000  Uiso   1.00
C161   C     0.77692   0.17745   0.04757   0.00000  Uiso   1.00
C162   C     0.92604   0.15833   0.47885   0.00000  Uiso   1.00
C163   C     0.86179   0.16077   0.04791   0.00000  Uiso   1.00
C164   C     0.74471   0.19457   0.02455   0.00000  Uiso   1.00
C165   C     0.84344   0.17993   0.47809   0.00000  Uiso   1.00
C166   C     0.82713   0.17227   0.02496   0.00000  Uiso   1.00
C167   C     0.68315   0.09567   0.47445   0.00000  Uiso   1.00
C168   C     0.98887   0.26027   0.03766   0.00000  Uiso   1.00
C169   C     0.81023   0.19701   0.45633   0.00000  Uiso   1.00
C170   C     0.91012   0.15419   0.02532   0.00000  Uiso   1.00
C171   C     0.76215   0.20448   0.47923   0.00000  Uiso   1.00
C172   C     0.95746   0.02127   0.24989   0.00000  Uiso   1.00
C173   C     0.70923   0.31206   0.25001   0.00000  Uiso   1.00
C174   C     0.95749   0.31203   0.24983   0.00000  Uiso   1.00
Cu175  Cu    0.71355   0.16667   0.25000   0.00000  Uiso   1.00
Cu176  Cu    0.95311   0.16666   0.25000   0.00000  Uiso   1.00
H177   H     0.93499   0.14530   0.04463   0.00000  Uiso   1.00
H178   H     0.74249   0.29606   0.25006   0.00000  Uiso   1.00
H179   H     0.92425   0.29601   0.24973   0.00000  Uiso   1.00
H180   H     0.74245   0.03732   0.25017   0.00000  Uiso   1.00
H181   H     0.86119   0.12357   0.30327   0.00000  Uiso   1.00
H182   H     0.80549   0.20974   0.19671   0.00000  Uiso   1.00
H183   H     0.77418   0.12369   0.30331   0.00000  Uiso   1.00
H184   H     0.89249   0.20963   0.19668   0.00000  Uiso   1.00
H185   H     0.98213   0.07772   0.48603   0.00000  Uiso   1.00
H186   H     0.70723   0.08647   0.49555   0.00000  Uiso   1.00
H187   H     0.70216   0.08777   0.43917   0.00000  Uiso   1.00
H188   H     0.73848   0.21794   0.46095   0.00000  Uiso   1.00
H189   H     0.96620   0.27419   0.01749   0.00000  Uiso   1.00
H190   H     0.69013   0.27807   0.03068   0.00000  Uiso   1.00
H191   H     0.96844   0.26310   0.07356   0.00000  Uiso   1.00
H192   H     0.77956   0.15025   0.11089   0.00000  Uiso   1.00
H193   H     0.88497   0.17974   0.38759   0.00000  Uiso   1.00
H194   H     0.97358   0.19651   0.10985   0.00000  Uiso   1.00
H195   H     0.69516   0.14832   0.39239   0.00000  Uiso   1.00
H196   H     0.85317   0.15771   0.08381   0.00000  Uiso   1.00
H197   H     0.82050   0.20642   0.42172   0.00000  Uiso   1.00
H198   H     0.92420   0.03727   0.24985   0.00000  Uiso   1.00
N199   N     0.78403   0.16668   0.24999   0.00000  Uiso   1.00
N200   N     0.88264   0.16666   0.25001   0.00000  Uiso   1.00
O201   O     0.70625   0.10655   0.25000   0.00000  Uiso   1.00
O202   O     0.99740   0.21873   0.02502   0.00000  Uiso   1.00
O203   O     0.96042   0.22678   0.25000   0.00000  Uiso   1.00
O204   O     0.96039   0.10654   0.25000   0.00000  Uiso   1.00
O205   O     0.70628   0.22679   0.25000   0.00000  Uiso   1.00
O206   O     0.68519   0.16668   0.31492   0.00000  Uiso   1.00
O207   O     0.98148   0.16666   0.18508   0.00000  Uiso   1.00
O208   O     0.93933   0.16667   0.31492   0.00000  Uiso   1.00
O209   O     0.72733   0.16667   0.18508   0.00000  Uiso   1.00
O210   O     0.67446   0.13830   0.47956   0.00000  Uiso   1.00
C211   C     0.33331   0.42069   0.25002   0.00000  Uiso   1.00
C212   C     0.04254   0.35463   0.25007   0.00000  Uiso   1.00
C213   C     0.00003   0.62393   0.24992   0.00000  Uiso   1.00
C214   C     0.33332   0.37607   0.25001   0.00000  Uiso   1.00
C215   C     0.18278   0.47612   0.27961   0.00000  Uiso   1.00
C216   C     0.15055   0.52387   0.22038   0.00000  Uiso   1.00
C217   C     0.13317   0.47616   0.27962   0.00000  Uiso   1.00
C218   C     0.20017   0.52384   0.22037   0.00000  Uiso   1.00
C219   C     0.30606   0.49970   0.33610   0.00000  Uiso   1.00
C220   C     0.02729   0.50086   0.16395   0.00000  Uiso   1.00
C221   C     0.29113   0.49834   0.38525   0.00000  Uiso   1.00
C222   C     0.00003   0.57931   0.24995   0.00000  Uiso   1.00
C223   C     0.04259   0.50671   0.11525   0.00000  Uiso   1.00
C224   C     0.30822   0.48285   0.45606   0.00000  Uiso   1.00
C225   C     0.02885   0.53537   0.04739   0.00000  Uiso   1.00
C226   C     0.32407   0.48761   0.40952   0.00000  Uiso   1.00
C227   C     0.01129   0.52401   0.09247   0.00000  Uiso   1.00
C228   C     0.24267   0.50634   0.40776   0.00000  Uiso   1.00
C229   C     0.09102   0.49911   0.09253   0.00000  Uiso   1.00
C230   C     0.22600   0.50432   0.45472   0.00000  Uiso   1.00
C231   C     0.11025   0.51078   0.04757   0.00000  Uiso   1.00
C232   C     0.25938   0.49166   0.47885   0.00000  Uiso   1.00
C233   C     0.19512   0.49411   0.04791   0.00000  Uiso   1.00
C234   C     0.07804   0.52791   0.02455   0.00000  Uiso   1.00
C235   C     0.17677   0.51327   0.47809   0.00000  Uiso   1.00
C236   C     0.16047   0.50560   0.02496   0.00000  Uiso   1.00
C237   C     0.01648   0.42900   0.47445   0.00000  Uiso   1.00
C238   C     0.32220   0.59361   0.03766   0.00000  Uiso   1.00
C239   C     0.14356   0.53034   0.45633   0.00000  Uiso   1.00
C240   C     0.24345   0.48753   0.02532   0.00000  Uiso   1.00
C241   C     0.09549   0.53781   0.47923   0.00000  Uiso   1.00
C242   C     0.29080   0.35460   0.24989   0.00000  Uiso   1.00
C243   C     0.04256   0.64539   0.25001   0.00000  Uiso   1.00
C244   C     0.29082   0.64537   0.24983   0.00000  Uiso   1.00
Cu245  Cu    0.04689   0.50001   0.25000   0.00000  Uiso   1.00
Cu246  Cu    0.28645   0.49999   0.25000   0.00000  Uiso   1.00
H247   H     0.26833   0.47864   0.04463   0.00000  Uiso   1.00
H248   H     0.07583   0.62939   0.25006   0.00000  Uiso   1.00
H249   H     0.25758   0.62935   0.24973   0.00000  Uiso   1.00
H250   H     0.07578   0.37065   0.25017   0.00000  Uiso   1.00
H251   H     0.19452   0.45691   0.30327   0.00000  Uiso   1.00
H252   H     0.13882   0.54307   0.19671   0.00000  Uiso   1.00
H253   H     0.10751   0.45703   0.30331   0.00000  Uiso   1.00
H254   H     0.22582   0.54297   0.19668   0.00000  Uiso   1.00
H255   H     0.31547   0.41105   0.48603   0.00000  Uiso   1.00
H256   H     0.04056   0.41981   0.49555   0.00000  Uiso   1.00
H257   H     0.03549   0.42110   0.43917   0.00000  Uiso   1.00
H258   H     0.07181   0.55127   0.46095   0.00000  Uiso   1.00
H259   H     0.29953   0.60752   0.01749   0.00000  Uiso   1.00
H260   H     0.02346   0.61140   0.03068   0.00000  Uiso   1.00
H261   H     0.30177   0.59644   0.07356   0.00000  Uiso   1.00
H262   H     0.11289   0.48359   0.11089   0.00000  Uiso   1.00
H263   H     0.21830   0.51307   0.38759   0.00000  Uiso   1.00
H264   H     0.30691   0.52984   0.10985   0.00000  Uiso   1.00
H265   H     0.02849   0.48166   0.39239   0.00000  Uiso   1.00
H266   H     0.18650   0.49105   0.08381   0.00000  Uiso   1.00
H267   H     0.15383   0.53976   0.42172   0.00000  Uiso   1.00
H268   H     0.25753   0.37060   0.24985   0.00000  Uiso   1.00
N269   N     0.11736   0.50001   0.24999   0.00000  Uiso   1.00
N270   N     0.21597   0.49999   0.25001   0.00000  Uiso   1.00
O271   O     0.03958   0.43989   0.25000   0.00000  Uiso   1.00
O272   O     0.33074   0.55206   0.02502   0.00000  Uiso   1.00
O273   O     0.29375   0.56011   0.25000   0.00000  Uiso   1.00
O274   O     0.29372   0.43988   0.25000   0.00000  Uiso   1.00
O275   O     0.03961   0.56012   0.25000   0.00000  Uiso   1.00
O276   O     0.01852   0.50001   0.31492   0.00000  Uiso   1.00
O277   O     0.31481   0.49999   0.18508   0.00000  Uiso   1.00
O278   O     0.27267   0.50000   0.31492   0.00000  Uiso   1.00
O279   O     0.06067   0.50000   0.18508   0.00000  Uiso   1.00
O280   O     0.00779   0.47164   0.47956   0.00000  Uiso   1.00
C281   C     0.66665   0.42069   0.25002   0.00000  Uiso   1.00
C282   C     0.37587   0.35463   0.25007   0.00000  Uiso   1.00
C283   C     0.33337   0.62393   0.24992   0.00000  Uiso   1.00
C284   C     0.66665   0.37607   0.25001   0.00000  Uiso   1.00
C285   C     0.51612   0.47612   0.27961   0.00000  Uiso   1.00
C286   C     0.48389   0.52387   0.22038   0.00000  Uiso   1.00
C287   C     0.46650   0.47616   0.27962   0.00000  Uiso   1.00
C288   C     0.53350   0.52384   0.22037   0.00000  Uiso   1.00
C289   C     0.63939   0.49970   0.33610   0.00000  Uiso   1.00
C290   C     0.36062   0.50086   0.16395   0.00000  Uiso   1.00
C291   C     0.62447   0.49834   0.38525   0.00000  Uiso   1.00
C292   C     0.33336   0.57931   0.24995   0.00000  Uiso   1.00
C293   C     0.37592   0.50671   0.11525   0.00000  Uiso   1.00
C294   C     0.64155   0.48285   0.45606   0.00000  Uiso   1.00
C295   C     0.36219   0.53537   0.04739   0.00000  Uiso   1.00
C296   C     0.65740   0.48761   0.40952   0.00000  Uiso   1.00
C297   C     0.34462   0.52401   0.09247   0.00000  Uiso   1.00
C298   C     0.57600   0.50634   0.40776   0.00000  Uiso   1.00
C299   C     0.42436   0.49911   0.09253   0.00000  Uiso   1.00
C300   C     0.55934   0.50432   0.45472   0.00000  Uiso   1.00
C301   C     0.44358   0.51078   0.04757   0.00000  Uiso   1.00
C302   C     0.59271   0.49166   0.47885   0.00000  Uiso   1.00
C303   C     0.52846   0.49411   0.04791   0.00000  Uiso   1.00
C304   C     0.41137   0.52791   0.02455   0.00000  Uiso   1.00
C305   C     0.51011   0.51327   0.47809   0.00000  Uiso   1.00
C306   C     0.49380   0.50560   0.02496   0.00000  Uiso   1.00
C307   C     0.34982   0.42900   0.47445   0.00000  Uiso   1.00
C308   C     0.65554   0.59361   0.03766   0.00000  Uiso   1.00
C309   C     0.47690   0.53034   0.45633   0.00000  Uiso   1.00
C310   C     0.57678   0.48753   0.02532   0.00000  Uiso   1.00
C311   C     0.42882   0.53781   0.47923   0.00000  Uiso   1.00
C312   C     0.62413   0.35460   0.24989   0.00000  Uiso   1.00
C313   C     0.37589   0.64539   0.25001   0.00000  Uiso   1.00
C314   C     0.62416   0.64537   0.24983   0.00000  Uiso   1.00
Cu315  Cu    0.38022   0.50001   0.25000   0.00000  Uiso   1.00
Cu316  Cu    0.61978   0.49999   0.25000   0.00000  Uiso   1.00
H317   H     0.60166   0.47864   0.04463   0.00000  Uiso   1.00
H318   H     0.40916   0.62939   0.25006   0.00000  Uiso   1.00
H319   H     0.59091   0.62935   0.24973   0.00000  Uiso   1.00
H320   H     0.40911   0.37065   0.25017   0.00000  Uiso   1.00
H321   H     0.52785   0.45691   0.30327   0.00000  Uiso   1.00
H322   H     0.47215   0.54307   0.19671   0.00000  Uiso   1.00
H323   H     0.44085   0.45703   0.30331   0.00000  Uiso   1.00
H324   H     0.55916   0.54297   0.19668   0.00000  Uiso   1.00
H325   H     0.64880   0.41105   0.48603   0.00000  Uiso   1.00
H326   H     0.37390   0.41981   0.49555   0.00000  Uiso   1.00
H327   H     0.36883   0.42110   0.43917   0.00000  Uiso   1.00
H328   H     0.40514   0.55127   0.46095   0.00000  Uiso   1.00
H329   H     0.63287   0.60752   0.01749   0.00000  Uiso   1.00
H330   H     0.35679   0.61140   0.03068   0.00000  Uiso   1.00
H331   H     0.63510   0.59644   0.07356   0.00000  Uiso   1.00
H332   H     0.44622   0.48359   0.11089   0.00000  Uiso   1.00
H333   H     0.55163   0.51307   0.38759   0.00000  Uiso   1.00
H334   H     0.64024   0.52984   0.10985   0.00000  Uiso   1.00
H335   H     0.36183   0.48166   0.39239   0.00000  Uiso   1.00
H336   H     0.51983   0.49105   0.08381   0.00000  Uiso   1.00
H337   H     0.48716   0.53976   0.42172   0.00000  Uiso   1.00
H338   H     0.59087   0.37060   0.24985   0.00000  Uiso   1.00
N339   N     0.45069   0.50001   0.24999   0.00000  Uiso   1.00
N340   N     0.54931   0.49999   0.25001   0.00000  Uiso   1.00
O341   O     0.37291   0.43989   0.25000   0.00000  Uiso   1.00
O342   O     0.66407   0.55206   0.02502   0.00000  Uiso   1.00
O343   O     0.62709   0.56011   0.25000   0.00000  Uiso   1.00
O344   O     0.62706   0.43988   0.25000   0.00000  Uiso   1.00
O345   O     0.37294   0.56012   0.25000   0.00000  Uiso   1.00
O346   O     0.35186   0.50001   0.31492   0.00000  Uiso   1.00
O347   O     0.64814   0.49999   0.18508   0.00000  Uiso   1.00
O348   O     0.60600   0.50000   0.31492   0.00000  Uiso   1.00
O349   O     0.39400   0.50000   0.18508   0.00000  Uiso   1.00
O350   O     0.34112   0.47164   0.47956   0.00000  Uiso   1.00
C351   C     0.99998   0.42069   0.25002   0.00000  Uiso   1.00
C352   C     0.70920   0.35463   0.25007   0.00000  Uiso   1.00
C353   C     0.66670   0.62393   0.24992   0.00000  Uiso   1.00
C354   C     0.99999   0.37607   0.25001   0.00000  Uiso   1.00
C355   C     0.84945   0.47612   0.27961   0.00000  Uiso   1.00
C356   C     0.81722   0.52387   0.22038   0.00000  Uiso   1.00
C357   C     0.79984   0.47616   0.27962   0.00000  Uiso   1.00
C358   C     0.86683   0.52384   0.22037   0.00000  Uiso   1.00
C359   C     0.97272   0.49970   0.33610   0.00000  Uiso   1.00
C360   C     0.69395   0.50086   0.16395   0.00000  Uiso   1.00
C361   C     0.95780   0.49834   0.38525   0.00000  Uiso   1.00
C362   C     0.66670   0.57931   0.24995   0.00000  Uiso   1.00
C363   C     0.70926   0.50671   0.11525   0.00000  Uiso   1.00
C364   C     0.97488   0.48285   0.45606   0.00000  Uiso   1.00
C365   C     0.69552   0.53537   0.04739   0.00000  Uiso   1.00
C366   C     0.99074   0.48761   0.40952   0.00000  Uiso   1.00
C367   C     0.67796   0.52401   0.09247   0.00000  Uiso   1.00
C368   C     0.90934   0.50634   0.40776   0.00000  Uiso   1.00
C369   C     0.75769   0.49911   0.09253   0.00000  Uiso   1.00
C370   C     0.89267   0.50432   0.45472   0.00000  Uiso   1.00
C371   C     0.77692   0.51078   0.04757   0.00000  Uiso   1.00
C372   C     0.92604   0.49166   0.47885   0.00000  Uiso   1.00
C373   C     0.86179   0.49411   0.04791   0.00000  Uiso   1.00
C374   C     0.74471   0.52791   0.02455   0.00000  Uiso   1.00
C375   C     0.84344   0.51327   0.47809   0.00000  Uiso   1.00
C376   C     0.82713   0.50560   0.02496   0.00000  Uiso   1.00
C377   C     0.68315   0.42900   0.47445   0.00000  Uiso   1.00
C378   C     0.98887   0.59361   0.03766   0.00000  Uiso   1.00
C379   C     0.81023   0.53034   0.45633   0.00000  Uiso   1.00
C380   C     0.91012   0.48753   0.02532   0.00000  Uiso   1.00
C381   C     0.76215   0.53781   0.47923   0.00000  Uiso   1.00
C382   C     0.95746   0.35460   0.24989   0.00000  Uiso   1.00
C383   C     0.70923   0.64539   0.25001   0.00000  Uiso   1.00
C384   C     0.95749   0.64537   0.24983   0.00000  Uiso   1.00
Cu385  Cu    0.71355   0.50001   0.25000   0.00000  Uiso   1.00
Cu386  Cu    0.95311   0.49999   0.25000   0.00000  Uiso   1.00
H387   H     0.93499   0.47864   0.04463   0.00000  Uiso   1.00
H388   H     0.74249   0.62939   0.25006   0.00000  Uiso   1.00
H389   H     0.92425   0.62935   0.24973   0.00000  Uiso   1.00
H390   H     0.74245   0.37065   0.25017   0.00000  Uiso   1.00
H391   H     0.86119   0.45691   0.30327   0.00000  Uiso   1.00
H392   H     0.80549   0.54307   0.19671   0.00000  Uiso   1.00
H393   H     0.77418   0.45703   0.30331   0.00000  Uiso   1.00
H394   H     0.89249   0.54297   0.19668   0.00000  Uiso   1.00
H395   H     0.98213   0.41105   0.48603   0.00000  Uiso   1.00
H396   H     0.70723   0.41981   0.49555   0.00000  Uiso   1.00
H397   H     0.70216   0.42110   0.43917   0.00000  Uiso   1.00
H398   H     0.73848   0.55127   0.46095   0.00000  Uiso   1.00
H399   H     0.96620   0.60752   0.01749   0.00000  Uiso   1.00
H400   H     0.69013   0.61140   0.03068   0.00000  Uiso   1.00
H401   H     0.96844   0.59644   0.07356   0.00000  Uiso   1.00
H402   H     0.77956   0.48359   0.11089   0.00000  Uiso   1.00
H403   H     0.88497   0.51307   0.38759   0.00000  Uiso   1.00
H404   H     0.97358   0.52984   0.10985   0.00000  Uiso   1.00
H405   H     0.69516   0.48166   0.39239   0.00000  Uiso   1.00
H406   H     0.85317   0.49105   0.08381   0.00000  Uiso   1.00
H407   H     0.82050   0.53976   0.42172   0.00000  Uiso   1.00
H408   H     0.92420   0.37060   0.24985   0.00000  Uiso   1.00
N409   N     0.78403   0.50001   0.24999   0.00000  Uiso   1.00
N410   N     0.88264   0.49999   0.25001   0.00000  Uiso   1.00
O411   O     0.70625   0.43989   0.25000   0.00000  Uiso   1.00
O412   O     0.99740   0.55206   0.02502   0.00000  Uiso   1.00
O413   O     0.96042   0.56011   0.25000   0.00000  Uiso   1.00
O414   O     0.96039   0.43988   0.25000   0.00000  Uiso   1.00
O415   O     0.70628   0.56012   0.25000   0.00000  Uiso   1.00
O416   O     0.68519   0.50001   0.31492   0.00000  Uiso   1.00
O417   O     0.98148   0.49999   0.18508   0.00000  Uiso   1.00
O418   O     0.93933   0.50000   0.31492   0.00000  Uiso   1.00
O419   O     0.72733   0.50000   0.18508   0.00000  Uiso   1.00
O420   O     0.67446   0.47164   0.47956   0.00000  Uiso   1.00
C421   C     0.33331   0.75402   0.25002   0.00000  Uiso   1.00
C422   C     0.04254   0.68796   0.25007   0.00000  Uiso   1.00
C423   C     0.00003   0.95726   0.24992   0.00000  Uiso   1.00
C424   C     0.33332   0.70941   0.25001   0.00000  Uiso   1.00
C425   C     0.18278   0.80945   0.27961   0.00000  Uiso   1.00
C426   C     0.15055   0.85721   0.22038   0.00000  Uiso   1.00
C427   C     0.13317   0.80949   0.27962   0.00000  Uiso   1.00
C428   C     0.20017   0.85717   0.22037   0.00000  Uiso   1.00
C429   C     0.30606   0.83303   0.33610   0.00000  Uiso   1.00
C430   C     0.02729   0.83419   0.16395   0.00000  Uiso   1.00
C431   C     0.29113   0.83167   0.38525   0.00000  Uiso   1.00
C432   C     0.00003   0.91264   0.24995   0.00000  Uiso   1.00
C433   C     0.04259   0.84004   0.11525   0.00000  Uiso   1.00
C434   C     0.30822   0.81619   0.45606   0.00000  Uiso   1.00
C435   C     0.02885   0.86870   0.04739   0.00000  Uiso   1.00
C436   C     0.32407   0.82095   0.40952   0.00000  Uiso   1.00
C437   C     0.01129   0.85734   0.09247   0.00000  Uiso   1.00
C438   C     0.24267   0.83967   0.40776   0.00000  Uiso   1.00
C439   C     0.09102   0.83245   0.09253   0.00000  Uiso   1.00
C440   C     0.22600   0.83766   0.45472   0.00000  Uiso   1.00
C441   C     0.11025   0.84411   0.04757   0.00000  Uiso   1.00
C442   C     0.25938   0.82500   0.47885   0.00000  Uiso   1.00
C443   C     0.19512   0.82744   0.04791   0.00000  Uiso   1.00
C444   C     0.07804   0.86124   0.02455   0.00000  Uiso   1.00
C445   C     0.17677   0.84660   0.47809   0.00000  Uiso   1.00
C446   C     0.16047   0.83894   0.02496   0.00000  Uiso   1.00
C447   C     0.01648   0.76234   0.47445   0.00000  Uiso   1.00
C448   C     0.32220   0.92694   0.03766   0.00000  Uiso   1.00
C449   C     0.14356   0.86367   0.45633   0.00000  Uiso   1.00
C450   C     0.24345   0.82086   0.02532   0.00000  Uiso   1.00
C451   C     0.09549   0.87115   0.47923   0.00000  Uiso   1.00
C452   C     0.29080   0.68794   0.24989   0.00000  Uiso   1.00
C453   C     0.04256   0.97873   0.25001   0.00000  Uiso   1.00
C454   C     0.29082   0.97870   0.24983   0.00000  Uiso   1.00
Cu455  Cu    0.04689   0.83334   0.25000   0.00000  Uiso   1.00
Cu456  Cu    0.28645   0.83333   0.25000   0.00000  Uiso   1.00
H457   H     0.26833   0.81197   0.04463   0.00000  Uiso   1.00
H458   H     0.07583   0.96273   0.25006   0.00000  Uiso   1.00
H459   H     0.25758   0.96268   0.24973   0.00000  Uiso   1.00
H460   H     0.07578   0.70398   0.25017   0.00000  Uiso   1.00
H461   H     0.19452   0.79024   0.30327   0.00000  Uiso   1.00
H462   H     0.13882   0.87641   0.19671   0.00000  Uiso   1.00
H463   H     0.10751   0.79036   0.30331   0.00000  Uiso   1.00
H464   H     0.22582   0.87630   0.19668   0.00000  Uiso   1.00
H465   H     0.31547   0.74438   0.48603   0.00000  Uiso   1.00
H466   H     0.04056   0.75314   0.49555   0.00000  Uiso   1.00
H467   H     0.03549   0.75444   0.43917   0.00000  Uiso   1.00
H468   H     0.07181   0.88460   0.46095   0.00000  Uiso   1.00
H469   H     0.29953   0.94085   0.01749   0.00000  Uiso   1.00
H470   H     0.02346   0.94473   0.03068   0.00000  Uiso   1.00
H471   H     0.30177   0.92977   0.07356   0.00000  Uiso   1.00
H472   H     0.11289   0.81692   0.11089   0.00000  Uiso   1.00
H473   H     0.21830   0.84640   0.38759   0.00000  Uiso   1.00
H474   H     0.30691   0.86317   0.10985   0.00000  Uiso   1.00
H475   H     0.02849   0.81499   0.39239   0.00000  Uiso   1.00
H476   H     0.18650   0.82438   0.08381   0.00000  Uiso   1.00
H477   H     0.15383   0.87309   0.42172   0.00000  Uiso   1.00
H478   H     0.25753   0.70394   0.24985   0.00000  Uiso   1.00
N479   N     0.11736   0.83334   0.24999   0.00000  Uiso   1.00
N480   N     0.21597   0.83332   0.25001   0.00000  Uiso   1.00
O481   O     0.03958   0.77322   0.25000   0.00000  Uiso   1.00
O482   O     0.33074   0.88539   0.02502   0.00000  Uiso   1.00
O483   O     0.29375   0.89345   0.25000   0.00000  Uiso   1.00
O484   O     0.29372   0.77321   0.25000   0.00000  Uiso   1.00
O485   O     0.03961   0.89346   0.25000   0.00000  Uiso   1.00
O486   O     0.01852   0.83334   0.31492   0.00000  Uiso   1.00
O487   O     0.31481   0.83332   0.18508   0.00000  Uiso   1.00
O488   O     0.27267   0.83333   0.31492   0.00000  Uiso   1.00
O489   O     0.06067   0.83333   0.18508   0.00000  Uiso   1.00
O490   O     0.00779   0.80497   0.47956   0.00000  Uiso   1.00
C491   C     0.66665   0.75402   0.25002   0.00000  Uiso   1.00
C492   C     0.37587   0.68796   0.25007   0.00000  Uiso   1.00
C493   C     0.33337   0.95726   0.24992   0.00000  Uiso   1.00
C494   C     0.66665   0.70941   0.25001   0.00000  Uiso   1.00
C495   C     0.51612   0.80945   0.27961   0.00000  Uiso   1.00
C496   C     0.48389   0.85721   0.22038   0.00000  Uiso   1.00
C497   C     0.46650   0.80949   0.27962   0.00000  Uiso   1.00
C498   C     0.53350   0.85717   0.22037   0.00000  Uiso   1.00
C499   C     0.63939   0.83303   0.33610   0.00000  Uiso   1.00
C500   C     0.36062   0.83419   0.16395   0.00000  Uiso   1.00
C501   C     0.62447   0.83167   0.38525   0.00000  Uiso   1.00
C502   C     0.33336   0.91264   0.24995   0.00000  Uiso   1.00
C503   C     0.37592   0.84004   0.11525   0.00000  Uiso   1.00
C504   C     0.64155   0.81619   0.45606   0.00000  Uiso   1.00
C505   C     0.36219   0.86870   0.04739   0.00000  Uiso   1.00
C506   C     0.65740   0.82095   0.40952   0.00000  Uiso   1.00
C507   C     0.34462   0.85734   0.09247   0.00000  Uiso   1.00
C508   C     0.57600   0.83967   0.40776   0.00000  Uiso   1.00
C509   C     0.42436   0.83245   0.09253   0.00000  Uiso   1.00
C510   C     0.55934   0.83766   0.45472   0.00000  Uiso   1.00
C511   C     0.44358   0.84411   0.04757   0.00000  Uiso   1.00
C512   C     0.59271   0.82500   0.47885   0.00000  Uiso   1.00
C513   C     0.52846   0.82744   0.04791   0.00000  Uiso   1.00
C514   C     0.41137   0.86124   0.02455   0.00000  Uiso   1.00
C515   C     0.51011   0.84660   0.47809   0.00000  Uiso   1.00
C516   C     0.49380   0.83894   0.02496   0.00000  Uiso   1.00
C517   C     0.34982   0.76234   0.47445   0.00000  Uiso   1.00
C518   C     0.65554   0.92694   0.03766   0.00000  Uiso   1.00
C519   C     0.47690   0.86367   0.45633   0.00000  Uiso   1.00
C520   C     0.57678   0.82086   0.02532   0.00000  Uiso   1.00
C521   C     0.42882   0.87115   0.47923   0.00000  Uiso   1.00
C522   C     0.62413   0.68794   0.24989   0.00000  Uiso   1.00
C523   C     0.37589   0.97873   0.25001   0.00000  Uiso   1.00
C524   C     0.62416   0.97870   0.24983   0.00000  Uiso   1.00
Cu525  Cu    0.38022   0.83334   0.25000   0.00000  Uiso   1.00
Cu526  Cu    0.61978   0.83333   0.25000   0.00000  Uiso   1.00
H527   H     0.60166   0.81197   0.04463   0.00000  Uiso   1.00
H528   H     0.40916   0.96273   0.25006   0.00000  Uiso   1.00
H529   H     0.59091   0.96268   0.24973   0.00000  Uiso   1.00
H530   H     0.40911   0.70398   0.25017   0.00000  Uiso   1.00
H531   H     0.52785   0.79024   0.30327   0.00000  Uiso   1.00
H532   H     0.47215   0.87641   0.19671   0.00000  Uiso   1.00
H533   H     0.44085   0.79036   0.30331   0.00000  Uiso   1.00
H534   H     0.55916   0.87630   0.19668   0.00000  Uiso   1.00
H535   H     0.64880   0.74438   0.48603   0.00000  Uiso   1.00
H536   H     0.37390   0.75314   0.49555   0.00000  Uiso   1.00
H537   H     0.36883   0.75444   0.43917   0.00000  Uiso   1.00
H538   H     0.40514   0.88460   0.46095   0.00000  Uiso   1.00
H539   H     0.63287   0.94085   0.01749   0.00000  Uiso   1.00
H540   H     0.35679   0.94473   0.03068   0.00000  Uiso   1.00
H541   H     0.63510   0.92977   0.07356   0.00000  Uiso   1.00
H542   H     0.44622   0.81692   0.11089   0.00000  Uiso   1.00
H543   H     0.55163   0.84640   0.38759   0.00000  Uiso   1.00
H544   H     0.64024   0.86317   0.10985   0.00000  Uiso   1.00
H545   H     0.36183   0.81499   0.39239   0.00000  Uiso   1.00
H546   H     0.51983   0.82438   0.08381   0.00000  Uiso   1.00
H547   H     0.48716   0.87309   0.42172   0.00000  Uiso   1.00
H548   H     0.59087   0.70394   0.24985   0.00000  Uiso   1.00
N549   N     0.45069   0.83334   0.24999   0.00000  Uiso   1.00
N550   N     0.54931   0.83332   0.25001   0.00000  Uiso   1.00
O551   O     0.37291   0.77322   0.25000   0.00000  Uiso   1.00
O552   O     0.66407   0.88539   0.02502   0.00000  Uiso   1.00
O553   O     0.62709   0.89345   0.25000   0.00000  Uiso   1.00
O554   O     0.62706   0.77321   0.25000   0.00000  Uiso   1.00
O555   O     0.37294   0.89346   0.25000   0.00000  Uiso   1.00
O556   O     0.35186   0.83334   0.31492   0.00000  Uiso   1.00
O557   O     0.64814   0.83332   0.18508   0.00000  Uiso   1.00
O558   O     0.60600   0.83333   0.31492   0.00000  Uiso   1.00
O559   O     0.39400   0.83333   0.18508   0.00000  Uiso   1.00
O560   O     0.34112   0.80497   0.47956   0.00000  Uiso   1.00
C561   C     0.99998   0.75402   0.25002   0.00000  Uiso   1.00
C562   C     0.70920   0.68796   0.25007   0.00000  Uiso   1.00
C563   C     0.66670   0.95726   0.24992   0.00000  Uiso   1.00
C564   C     0.99999   0.70941   0.25001   0.00000  Uiso   1.00
C565   C     0.84945   0.80945   0.27961   0.00000  Uiso   1.00
C566   C     0.81722   0.85721   0.22038   0.00000  Uiso   1.00
C567   C     0.79984   0.80949   0.27962   0.00000  Uiso   1.00
C568   C     0.86683   0.85717   0.22037   0.00000  Uiso   1.00
C569   C     0.97272   0.83303   0.33610   0.00000  Uiso   1.00
C570   C     0.69395   0.83419   0.16395   0.00000  Uiso   1.00
C571   C     0.95780   0.83167   0.38525   0.00000  Uiso   1.00
C572   C     0.66670   0.91264   0.24995   0.00000  Uiso   1.00
C573   C     0.70926   0.84004   0.11525   0.00000  Uiso   1.00
C574   C     0.97488   0.81619   0.45606   0.00000  Uiso   1.00
C575   C     0.69552   0.86870   0.04739   0.00000  Uiso   1.00
C576   C     0.99074   0.82095   0.40952   0.00000  Uiso   1.00
C577   C     0.67796   0.85734   0.09247   0.00000  Uiso   1.00
C578   C     0.90934   0.83967   0.40776   0.00000  Uiso   1.00
C579   C     0.75769   0.83245   0.09253   0.00000  Uiso   1.00
C580   C     0.89267   0.83766   0.45472   0.00000  Uiso   1.00
C581   C     0.77692   0.84411   0.04757   0.00000  Uiso   1.00
C582   C     0.92604   0.82500   0.47885   0.00000  Uiso   1.00
C583   C     0.86179   0.82744   0.04791   0.00000  Uiso   1.00
C584   C     0.74471   0.86124   0.02455   0.00000  Uiso   1.00
C585   C     0.84344   0.84660   0.47809   0.00000  Uiso   1.00
C586   C     0.82713   0.83894   0.02496   0.00000  Uiso   1.00
C587   C     0.68315   0.76234   0.47445   0.00000  Uiso   1.00
C588   C     0.98887   0.92694   0.03766   0.00000  Uiso   1.00
C589   C     0.81023   0.86367   0.45633   0.00000  Uiso   1.00
C590   C     0.91012   0.82086   0.02532   0.00000  Uiso   1.00
C591   C     0.76215   0.87115   0.47923   0.00000  Uiso   1.00
C592   C     0.95746   0.68794   0.24989   0.00000  Uiso   1.00
C593   C     0.70923   0.97873   0.25001   0.00000  Uiso   1.00
C594   C     0.95749   0.97870   0.24983   0.00000  Uiso   1.00
Cu595  Cu    0.71355   0.83334   0.25000   0.00000  Uiso   1.00
Cu596  Cu    0.95311   0.83333   0.25000   0.00000  Uiso   1.00
H597   H     0.93499   0.81197   0.04463   0.00000  Uiso   1.00
H598   H     0.74249   0.96273   0.25006   0.00000  Uiso   1.00
H599   H     0.92425   0.96268   0.24973   0.00000  Uiso   1.00
H600   H     0.74245   0.70398   0.25017   0.00000  Uiso   1.00
H601   H     0.86119   0.79024   0.30327   0.00000  Uiso   1.00
H602   H     0.80549   0.87641   0.19671   0.00000  Uiso   1.00
H603   H     0.77418   0.79036   0.30331   0.00000  Uiso   1.00
H604   H     0.89249   0.87630   0.19668   0.00000  Uiso   1.00
H605   H     0.98213   0.74438   0.48603   0.00000  Uiso   1.00
H606   H     0.70723   0.75314   0.49555   0.00000  Uiso   1.00
H607   H     0.70216   0.75444   0.43917   0.00000  Uiso   1.00
H608   H     0.73848   0.88460   0.46095   0.00000  Uiso   1.00
H609   H     0.96620   0.94085   0.01749   0.00000  Uiso   1.00
H610   H     0.69013   0.94473   0.03068   0.00000  Uiso   1.00
H611   H     0.96844   0.92977   0.07356   0.00000  Uiso   1.00
H612   H     0.77956   0.81692   0.11089   0.00000  Uiso   1.00
H613   H     0.88497   0.84640   0.38759   0.00000  Uiso   1.00
H614   H     0.97358   0.86317   0.10985   0.00000  Uiso   1.00
H615   H     0.69516   0.81499   0.39239   0.00000  Uiso   1.00
H616   H     0.85317   0.82438   0.08381   0.00000  Uiso   1.00
H617   H     0.82050   0.87309   0.42172   0.00000  Uiso   1.00
H618   H     0.92420   0.70394   0.24985   0.00000  Uiso   1.00
N619   N     0.78403   0.83334   0.24999   0.00000  Uiso   1.00
N620   N     0.88264   0.83332   0.25001   0.00000  Uiso   1.00
O621   O     0.70625   0.77322   0.25000   0.00000  Uiso   1.00
O622   O     0.99740   0.88539   0.02502   0.00000  Uiso   1.00
O623   O     0.96042   0.89345   0.25000   0.00000  Uiso   1.00
O624   O     0.96039   0.77321   0.25000   0.00000  Uiso   1.00
O625   O     0.70628   0.89346   0.25000   0.00000  Uiso   1.00
O626   O     0.68519   0.83334   0.31492   0.00000  Uiso   1.00
O627   O     0.98148   0.83332   0.18508   0.00000  Uiso   1.00
O628   O     0.93933   0.83333   0.31492   0.00000  Uiso   1.00
O629   O     0.72733   0.83333   0.18508   0.00000  Uiso   1.00
O630   O     0.67446   0.80497   0.47956   0.00000  Uiso   1.00
C631   C     0.33331   0.08736   0.75002   0.00000  Uiso   1.00
C632   C     0.04254   0.02130   0.75007   0.00000  Uiso   1.00
C633   C     0.00003   0.29059   0.74992   0.00000  Uiso   1.00
C634   C     0.33332   0.04274   0.75001   0.00000  Uiso   1.00
C635   C     0.18278   0.14279   0.77961   0.00000  Uiso   1.00
C636   C     0.15055   0.19054   0.72038   0.00000  Uiso   1.00
C637   C     0.13317   0.14282   0.77962   0.00000  Uiso   1.00
C638   C     0.20017   0.19051   0.72037   0.00000  Uiso   1.00
C639   C     0.30606   0.16637   0.83610   0.00000  Uiso   1.00
C640   C     0.02729   0.16752   0.66395   0.00000  Uiso   1.00
C641   C     0.29113   0.16500   0.88525   0.00000  Uiso   1.00
C642   C     0.00003   0.24598   0.74995   0.00000  Uiso   1.00
C643   C     0.04259   0.17337   0.61525   0.00000  Uiso   1.00
C644   C     0.30822   0.14952   0.95606   0.00000  Uiso   1.00
C645   C     0.02885   0.20204   0.54739   0.00000  Uiso   1.00
C646   C     0.32407   0.15428   0.90952   0.00000  Uiso   1.00
C647   C     0.01129   0.19068   0.59247   0.00000  Uiso   1.00
C648   C     0.24267   0.17300   0.90776   0.00000  Uiso   1.00
C649   C     0.09102   0.16578   0.59253   0.00000  Uiso   1.00
C650   C     0.22600   0.17099   0.95472   0.00000  Uiso   1.00
C651   C     0.11025   0.17745   0.54757   0.00000  Uiso   1.00
C652   C     0.25938   0.15833   0.97885   0.00000  Uiso   1.00
C653   C     0.19512   0.16077   0.54791   0.00000  Uiso   1.00
C654   C     0.07804   0.19457   0.52455   0.00000  Uiso   1.00
C655   C     0.17677   0.17993   0.97809   0.00000  Uiso   1.00
C656   C     0.16047   0.17227   0.52496   0.00000  Uiso   1.00
C657   C     0.01648   0.09567   0.97445   0.00000  Uiso   1.00
C658   C     0.32220   0.26027   0.53766   0.00000  Uiso   1.00
C659   C     0.14356   0.19701   0.95633   0.00000  Uiso   1.00
C660   C     0.24345   0.15419   0.52532   0.00000  Uiso   1.00
C661   C     0.09549   0.20448   0.97923   0.00000  Uiso   1.00
C662   C     0.29080   0.02127   0.74989   0.00000  Uiso   1.00
C663   C     0.04256   0.31206   0.75001   0.00000  Uiso   1.00
C664   C     0.29082   0.31203   0.74983   0.00000  Uiso   1.00
Cu665  Cu    0.04689   0.16667   0.75000   0.00000  Uiso   1.00
Cu666  Cu    0.28645   0.16666   0.75000   0.00000  Uiso   1.00
H667   H     0.26833   0.14530   0.54463   0.00000  Uiso   1.00
H668   H     0.07583   0.29606   0.75006   0.00000  Uiso   1.00
H669   H     0.25758   0.29601   0.74973   0.00000  Uiso   1.00
H670   H     0.07578   0.03732   0.75017   0.00000  Uiso   1.00
H671   H     0.19452   0.12357   0.80327   0.00000  Uiso   1.00
H672   H     0.13882   0.20974   0.69671   0.00000  Uiso   1.00
H673   H     0.10751   0.12369   0.80331   0.00000  Uiso   1.00
H674   H     0.22582   0.20963   0.69668   0.00000  Uiso   1.00
H675   H     0.31547   0.07772   0.98603   0.00000  Uiso   1.00
H676   H     0.04056   0.08647   0.99555   0.00000  Uiso   1.00
H677   H     0.03549   0.08777   0.93917   0.00000  Uiso   1.00
H678   H     0.07181   0.21794   0.96095   0.00000  Uiso   1.00
H679   H     0.29953   0.27419   0.51749   0.00000  Uiso   1.00
H680   H     0.02346   0.27807   0.53068   0.00000  Uiso   1.00
H681   H     0.30177   0.26310   0.57356   0.00000  Uiso   1.00
H682   H     0.11289   0.15025   0.61089   0.00000  Uiso   1.00
H683   H     0.21830   0.17974   0.88759   0.00000  Uiso   1.00
H684   H     0.30691   0.19651   0.60985   0.00000  Uiso   1.00
H685   H     0.02849   0.14832   0.89239   0.00000  Uiso   1.00
H686   H     0.18650   0.15771   0.58381   0.00000  Uiso   1.00
H687   H     0.15383   0.20642   0.92172   0.00000  Uiso   1.00
H688   H     0.25753   0.03727   0.74985   0.00000  Uiso   1.00
N689   N     0.11736   0.16668   0.74999   0.00000  Uiso   1.00
N690   N     0.21597   0.16666   0.75001   0.00000  Uiso   1.00
O691   O     0.03958   0.10655   0.75000   0.00000  Uiso   1.00
O692   O     0.33074   0.21873   0.52502   0.00000  Uiso   1.00
O693   O     0.29375   0.22678   0.75000   0.00000  Uiso   1.00
O694   O     0.29372   0.10654   0.75000   0.00000  Uiso   1.00
O695   O     0.03961   0.22679   0.75000   0.00000  Uiso   1.00
O696   O     0.01852   0.16668   0.81492   0.00000  Uiso   1.00
O697   O     0.31481   0.16666   0.68508   0.00000  Uiso   1.00
O698   O     0.27267   0.16667   0.81492   0.00000  Uiso   1.00
O699   O     0.06067   0.16667   0.68508   0.00000  Uiso   1.00
O700   O     0.00779   0.13830   0.97956   0.00000  Uiso   1.00
C701   C     0.66665   0.08736   0.75002   0.00000  Uiso   1.00
C702   C     0.37587   0.02130   0.75007   0.00000  Uiso   1.00
C703   C     0.33337   0.29059   0.74992   0.00000  Uiso   1.00
C704   C     0.66665   0.04274   0.75001   0.00000  Uiso   1.00
C705   C     0.51612   0.14279   0.77961   0.00000  Uiso   1.00
C706   C     0.48389   0.19054   0.72038   0.00000  Uiso   1.00
C707   C     0.46650   0.14282   0.77962   0.00000  Uiso   1.00
C708   C     0.53350   0.19051   0.72037   0.00000  Uiso   1.00
C709   C     0.63939   0.16637   0.83610   0.00000  Uiso   1.00
C710   C     0.36062   0.16752   0.66395   0.00000  Uiso   1.00
C711   C     0.62447   0.16500   0.88525   0.00000  Uiso   1.00
C712   C     0.33336   0.24598   0.74995   0.00000  Uiso   1.00
C713   C     0.37592   0.17337   0.61525   0.00000  Uiso   1.00
C714   C     0.64155   0.14952   0.95606   0.00000  Uiso   1.00
C715   C     0.36219   0.20204   0.54739   0.00000  Uiso   1.00
C716   C     0.65740   0.15428   0.90952   0.00000  Uiso   1.00
C717   C     0.34462   0.19068   0.59247   0.00000  Uiso   1.00
C718   C     0.57600   0.17300   0.90776   0.00000  Uiso   1.00
C719   C     0.42436   0.16578   0.59253   0.00000  Uiso   1.00
C720   C     0.55934   0.17099   0.95472   0.00000  Uiso   1.00
C721   C     0.44358   0.17745   0.54757   0.00000  Uiso   1.00
C722   C     0.59271   0.15833   0.97885   0.00000  Uiso   1.00
C723   C     0.52846   0.16077   0.54791   0.00000  Uiso   1.00
C724   C     0.41137   0.19457   0.52455   0.00000  Uiso   1.00
C725   C     0.51011   0.17993   0.97809   0.00000  Uiso   1.00
C726   C     0.49380   0.17227   0.52496   0.00000  Uiso   1.00
C727   C     0.34982   0.09567   0.97445   0.00000  Uiso   1.00
C728   C     0.65554   0.26027   0.53766   0.00000  Uiso   1.00
C729   C     0.47690   0.19701   0.95633   0.00000  Uiso   1.00
C730   C     0.57678   0.15419   0.52532   0.00000  Uiso   1.00
C731   C     0.42882   0.20448   0.97923   0.00000  Uiso   1.00
C732   C     0.62413   0.02127   0.74989   0.00000  Uiso   1.00
C733   C     0.37589   0.31206   0.75001   0.00000  Uiso   1.00
C734   C     0.62416   0.31203   0.74983   0.00000  Uiso   1.00
Cu735  Cu    0.38022   0.16667   0.75000   0.00000  Uiso   1.00
Cu736  Cu    0.61978   0.16666   0.75000   0.00000  Uiso   1.00
H737   H     0.60166   0.14530   0.54463   0.00000  Uiso   1.00
H738   H     0.40916   0.29606   0.75006   0.00000  Uiso   1.00
H739   H     0.59091   0.29601   0.74973   0.00000  Uiso   1.00
H740   H     0.40911   0.03732   0.75017   0.00000  Uiso   1.00
H741   H     0.52785   0.12357   0.80327   0.00000  Uiso   1.00
H742   H     0.47215   0.20974   0.69671   0.00000  Uiso   1.00
H743   H     0.44085   0.12369   0.80331   0.00000  Uiso   1.00
H744   H     0.55916   0.20963   0.69668   0.00000  Uiso   1.00
H745   H     0.64880   0.07772   0.98603   0.00000  Uiso   1.00
H746   H     0.37390   0.08647   0.99555   0.00000  Uiso   1.00
H747   H     0.36883   0.08777   0.93917   0.00000  Uiso   1.00
H748   H     0.40514   0.21794   0.96095   0.00000  Uiso   1.00
H749   H     0.63287   0.27419   0.51749   0.00000  Uiso   1.00
H750   H     0.35679   0.27807   0.53068   0.00000  Uiso   1.00
H751   H     0.63510   0.26310   0.57356   0.00000  Uiso   1.00
H752   H     0.44622   0.15025   0.61089   0.00000  Uiso   1.00
H753   H     0.55163   0.17974   0.88759   0.00000  Uiso   1.00
H754   H     0.64024   0.19651   0.60985   0.00000  Uiso   1.00
H755   H     0.36183   0.14832   0.89239   0.00000  Uiso   1.00
H756   H     0.51983   0.15771   0.58381   0.00000  Uiso   1.00
H757   H     0.48716   0.20642   0.92172   0.00000  Uiso   1.00
H758   H     0.59087   0.03727   0.74985   0.00000  Uiso   1.00
N759   N     0.45069   0.16668   0.74999   0.00000  Uiso   1.00
N760   N     0.54931   0.16666   0.75001   0.00000  Uiso   1.00
O761   O     0.37291   0.10655   0.75000   0.00000  Uiso   1.00
O762   O     0.66407   0.21873   0.52502   0.00000  Uiso   1.00
O763   O     0.62709   0.22678   0.75000   0.00000  Uiso   1.00
O764   O     0.62706   0.10654   0.75000   0.00000  Uiso   1.00
O765   O     0.37294   0.22679   0.75000   0.00000  Uiso   1.00
O766   O     0.35186   0.16668   0.81492   0.00000  Uiso   1.00
O767   O     0.64814   0.16666   0.68508   0.00000  Uiso   1.00
O768   O     0.60600   0.16667   0.81492   0.00000  Uiso   1.00
O769   O     0.39400   0.16667   0.68508   0.00000  Uiso   1.00
O770   O     0.34112   0.13830   0.97956   0.00000  Uiso   1.00
C771   C     0.99998   0.08736   0.75002   0.00000  Uiso   1.00
C772   C     0.70920   0.02130   0.75007   0.00000  Uiso   1.00
C773   C     0.66670   0.29059   0.74992   0.00000  Uiso   1.00
C774   C     0.99999   0.04274   0.75001   0.00000  Uiso   1.00
C775   C     0.84945   0.14279   0.77961   0.00000  Uiso   1.00
C776   C     0.81722   0.19054   0.72038   0.00000  Uiso   1.00
C777   C     0.79984   0.14282   0.77962   0.00000  Uiso   1.00
C778   C     0.86683   0.19051   0.72037   0.00000  Uiso   1.00
C779   C     0.97272   0.16637   0.83610   0.00000  Uiso   1.00
C780   C     0.69395   0.16752   0.66395   0.00000  Uiso   1.00
C781   C     0.95780   0.16500   0.88525   0.00000  Uiso   1.00
C782   C     0.66670   0.24598   0.74995   0.00000  Uiso   1.00
C783   C     0.70926   0.17337   0.61525   0.00000  Uiso   1.00
C784   C     0.97488   0.14952   0.95606   0.00000  Uiso   1.00
C785   C     0.69552   0.20204   0.54739   0.00000  Uiso   1.00
C786   C     0.99074   0.15428   0.90952   0.00000  Uiso   1.00
C787   C     0.67796   0.19068   0.59247   0.00000  Uiso   1.00
C788   C     0.90934   0.17300   0.90776   0.00000  Uiso   1.00
C789   C     0.75769   0.16578   0.59253   0.00000  Uiso   1.00
C790   C     0.89267   0.17099   0.95472   0.00000  Uiso   1.00
C791   C     0.77692   0.17745   0.54757   0.00000  Uiso   1.00
C792   C     0.92604   0.15833   0.97885   0.00000  Uiso   1.00
C793   C     0.86179   0.16077   0.54791   0.00000  Uiso   1.00
C794   C     0.74471   0.19457   0.52455   0.00000  Uiso   1.00
C795   C     0.84344   0.17993   0.97809   0.00000  Uiso   1.00
C796   C     0.82713   0.17227   0.52496   0.00000  Uiso   1.00
C797   C     0.68315   0.09567   0.97445   0.00000  Uiso   1.00
C798   C     0.98887   0.26027   0.53766   0.00000  Uiso   1.00
C799   C     0.81023   0.19701   0.95633   0.00000  Uiso   1.00
C800   C     0.91012   0.15419   0.52532   0.00000  Uiso   1.00
C801   C     0.76215   0.20448   0.97923   0.00000  Uiso   1.00
C802   C     0.95746   0.02127   0.74989   0.00000  Uiso   1.00
C803   C     0.70923   0.31206   0.75001   0.00000  Uiso   1.00
C804   C     0.95749   0.31203   0.74983   0.00000  Uiso   1.00
Cu805  Cu    0.71355   0.16667   0.75000   0.00000  Uiso   1.00
Cu806  Cu    0.95311   0.16666   0.75000   0.00000  Uiso   1.00
H807   H     0.93499   0.14530   0.54463   0.00000  Uiso   1.00
H808   H     0.74249   0.29606   0.75006   0.00000  Uiso   1.00
H809   H     0.92425   0.29601   0.74973   0.00000  Uiso   1.00
H810   H     0.74245   0.03732   0.75017   0.00000  Uiso   1.00
H811   H     0.86119   0.12357   0.80327   0.00000  Uiso   1.00
H812   H     0.80549   0.20974   0.69671   0.00000  Uiso   1.00
H813   H     0.77418   0.12369   0.80331   0.00000  Uiso   1.00
H814   H     0.89249   0.20963   0.69668   0.00000  Uiso   1.00
H815   H     0.98213   0.07772   0.98603   0.00000  Uiso   1.00
H816   H     0.70723   0.08647   0.99555   0.00000  Uiso   1.00
H817   H     0.70216   0.08777   0.93917   0.00000  Uiso   1.00
H818   H     0.73848   0.21794   0.96095   0.00000  Uiso   1.00
H819   H     0.96620   0.27419   0.51749   0.00000  Uiso   1.00
H820   H     0.69013   0.27807   0.53068   0.00000  Uiso   1.00
H821   H     0.96844   0.26310   0.57356   0.00000  Uiso   1.00
H822   H     0.77956   0.15025   0.61089   0.00000  Uiso   1.00
H823   H     0.88497   0.17974   0.88759   0.00000  Uiso   1.00
H824   H     0.97358   0.19651   0.60985   0.00000  Uiso   1.00
H825   H     0.69516   0.14832   0.89239   0.00000  Uiso   1.00
H826   H     0.85317   0.15771   0.58381   0.00000  Uiso   1.00
H827   H     0.82050   0.20642   0.92172   0.00000  Uiso   1.00
H828   H     0.92420   0.03727   0.74985   0.00000  Uiso   1.00
N829   N     0.78403   0.16668   0.74999   0.00000  Uiso   1.00
N830   N     0.88264   0.16666   0.75001   0.00000  Uiso   1.00
O831   O     0.70625   0.10655   0.75000   0.00000  Uiso   1.00
O832   O     0.99740   0.21873   0.52502   0.00000  Uiso   1.00
O833   O     0.96042   0.22678   0.75000   0.00000  Uiso   1.00
O834   O     0.96039   0.10654   0.75000   0.00000  Uiso   1.00
O835   O     0.70628   0.22679   0.75000   0.00000  Uiso   1.00
O836   O     0.68519   0.16668   0.81492   0.00000  Uiso   1.00
O837   O     0.98148   0.16666   0.68508   0.00000  Uiso   1.00
O838   O     0.93933   0.16667   0.81492   0.00000  Uiso   1.00
O839   O     0.72733   0.16667   0.68508   0.00000  Uiso   1.00
O840   O     0.67446   0.13830   0.97956   0.00000  Uiso   1.00
C841   C     0.33331   0.42069   0.75002   0.00000  Uiso   1.00
C842   C     0.04254   0.35463   0.75007   0.00000  Uiso   1.00
C843   C     0.00003   0.62393   0.74992   0.00000  Uiso   1.00
C844   C     0.33332   0.37607   0.75001   0.00000  Uiso   1.00
C845   C     0.18278   0.47612   0.77961   0.00000  Uiso   1.00
C846   C     0.15055   0.52387   0.72038   0.00000  Uiso   1.00
C847   C     0.13317   0.47616   0.77962   0.00000  Uiso   1.00
C848   C     0.20017   0.52384   0.72037   0.00000  Uiso   1.00
C849   C     0.30606   0.49970   0.83610   0.00000  Uiso   1.00
C850   C     0.02729   0.50086   0.66395   0.00000  Uiso   1.00
C851   C     0.29113   0.49834   0.88525   0.00000  Uiso   1.00
C852   C     0.00003   0.57931   0.74995   0.00000  Uiso   1.00
C853   C     0.04259   0.50671   0.61525   0.00000  Uiso   1.00
C854   C     0.30822   0.48285   0.95606   0.00000  Uiso   1.00
C855   C     0.02885   0.53537   0.54739   0.00000  Uiso   1.00
C856   C     0.32407   0.48761   0.90952   0.00000  Uiso   1.00
C857   C     0.01129   0.52401   0.59247   0.00000  Uiso   1.00
C858   C     0.24267   0.50634   0.90776   0.00000  Uiso   1.00
C859   C     0.09102   0.49911   0.59253   0.00000  Uiso   1.00
C860   C     0.22600   0.50432   0.95472   0.00000  Uiso   1.00
C861   C     0.11025   0.51078   0.54757   0.00000  Uiso   1.00
C862   C     0.25938   0.49166   0.97885   0.00000  Uiso   1.00
C863   C     0.19512   0.49411   0.54791   0.00000  Uiso   1.00
C864   C     0.07804   0.52791   0.52455   0.00000  Uiso   1.00
C865   C     0.17677   0.51327   0.97809   0.00000  Uiso   1.00
C866   C     0.16047   0.50560   0.52496   0.00000  Uiso   1.00
C867   C     0.01648   0.42900   0.97445   0.00000  Uiso   1.00
C868   C     0.32220   0.59361   0.53766   0.00000  Uiso   1.00
C869   C     0.14356   0.53034   0.95633   0.00000  Uiso   1.00
C870   C     0.24345   0.48753   0.52532   0.00000  Uiso   1.00
C871   C     0.09549   0.53781   0.97923   0.00000  Uiso   1.00
C872   C     0.29080   0.35460   0.74989   0.00000  Uiso   1.00
C873   C     0.04256   0.64539   0.75001   0.00000  Uiso   1.00
C874   C     0.29082   0.64537   0.74983   0.00000  Uiso   1.00
Cu875  Cu    0.04689   0.50001   0.75000   0.00000  Uiso   1.00
Cu876  Cu    0.28645   0.49999   0.75000   0.00000  Uiso   1.00
H877   H     0.26833   0.47864   0.54463   0.00000  Uiso   1.00
H878   H     0.07583   0.62939   0.75006   0.00000  Uiso   1.00
H879   H     0.25758   0.62935   0.74973   0.00000  Uiso   1.00
H880   H     0.07578   0.37065   0.75017   0.00000  Uiso   1.00
H881   H     0.19452   0.45691   0.80327   0.00000  Uiso   1.00
H882   H     0.13882   0.54307   0.69671   0.00000  Uiso   1.00
H883   H     0.10751   0.45703   0.80331   0.00000  Uiso   1.00
H884   H     0.22582   0.54297   0.69668   0.00000  Uiso   1.00
H885   H     0.31547   0.41105   0.98603   0.00000  Uiso   1.00
H886   H     0.04056   0.41981   0.99555   0.00000  Uiso   1.00
H887   H     0.03549   0.42110   0.93917   0.00000  Uiso   1.00
H888   H     0.07181   0.55127   0.96095   0.00000  Uiso   1.00
H889   H     0.29953   0.60752   0.51749   0.00000  Uiso   1.00
H890   H     0.02346   0.61140   0.53068   0.00000  Uiso   1.00
H891   H     0.30177   0.59644   0.57356   0.00000  Uiso   1.00
H892   H     0.11289   0.48359   0.61089   0.00000  Uiso   1.00
H893   H     0.21830   0.51307   0.88759   0.00000  Uiso   1.00
H894   H     0.30691   0.52984   0.60985   0.00000  Uiso   1.00
H895   H     0.02849   0.48166   0.89239   0.00000  Uiso   1.00
H896   H     0.18650   0.49105   0.58381   0.00000  Uiso   1.00
H897   H     0.15383   0.53976   0.92172   0.00000  Uiso   1.00
H898   H     0.25753   0.37060   0.74985   0.00000  Uiso   1.00
N899   N     0.11736   0.50001   0.74999   0.00000  Uiso   1.00
N900   N     0.21597   0.49999   0.75001   0.00000  Uiso   1.00
O901   O     0.03958   0.43989   0.75000   0.00000  Uiso   1.00
O902   O     0.33074   0.55206   0.52502   0.00000  Uiso   1.00
O903   O     0.29375   0.56011   0.75000   0.00000  Uiso   1.00
O904   O     0.29372   0.43988   0.75000   0.00000  Uiso   1.00
O905   O     0.03961   0.56012   0.75000   0.00000  Uiso   1.00
O906   O     0.01852   0.50001   0.81492   0.00000  Uiso   1.00
O907   O     0.31481   0.49999   0.68508   0.00000  Uiso   1.00
O908   O     0.27267   0.50000   0.81492   0.00000  Uiso   1.00
O909   O     0.06067   0.50000   0.68508   0.00000  Uiso   1.00
O910   O     0.00779   0.47164   0.97956   0.00000  Uiso   1.00
C911   C     0.66665   0.42069   0.75002   0.00000  Uiso   1.00
C912   C     0.37587   0.35463   0.75007   0.00000  Uiso   1.00
C913   C     0.33337   0.62393   0.74992   0.00000  Uiso   1.00
C914   C     0.66665   0.37607   0.75001   0.00000  Uiso   1.00
C915   C     0.51612   0.47612   0.77961   0.00000  Uiso   1.00
C916   C     0.48389   0.52387   0.72038   0.00000  Uiso   1.00
C917   C     0.46650   0.47616   0.77962   0.00000  Uiso   1.00
C918   C     0.53350   0.52384   0.72037   0.00000  Uiso   1.00
C919   C     0.63939   0.49970   0.83610   0.00000  Uiso   1.00
C920   C     0.36062   0.50086   0.66395   0.00000  Uiso   1.00
C921   C     0.62447   0.49834   0.88525   0.00000  Uiso   1.00
C922   C     0.33336   0.57931   0.74995   0.00000  Uiso   1.00
C923   C     0.37592   0.50671   0.61525   0.00000  Uiso   1.00
C924   C     0.64155   0.48285   0.95606   0.00000  Uiso   1.00
C925   C     0.36219   0.53537   0.54739   0.00000  Uiso   1.00
C926   C     0.65740   0.48761   0.90952   0.00000  Uiso   1.00
C927   C     0.34462   0.52401   0.59247   0.00000  Uiso   1.00
C928   C     0.57600   0.50634   0.90776   0.00000  Uiso   1.00
C929   C     0.42436   0.49911   0.59253   0.00000  Uiso   1.00
C930   C     0.55934   0.50432   0.95472   0.00000  Uiso   1.00
C931   C     0.44358   0.51078   0.54757   0.00000  Uiso   1.00
C932   C     0.59271   0.49166   0.97885   0.00000  Uiso   1.00
C933   C     0.52846   0.49411   0.54791   0.00000  Uiso   1.00
C934   C     0.41137   0.52791   0.52455   0.00000  Uiso   1.00
C935   C     0.51011   0.51327   0.97809   0.00000  Uiso   1.00
C936   C     0.49380   0.50560   0.52496   0.00000  Uiso   1.00
C937   C     0.34982   0.42900   0.97445   0.00000  Uiso   1.00
C938   C     0.65554   0.59361   0.53766   0.00000  Uiso   1.00
C939   C     0.47690   0.53034   0.95633   0.00000  Uiso   1.00
C940   C     0.57678   0.48753   0.52532   0.00000  Uiso   1.00
C941   C     0.42882   0.53781   0.97923   0.00000  Uiso   1.00
C942   C     0.62413   0.35460   0.74989   0.00000  Uiso   1.00
C943   C     0.37589   0.64539   0.75001   0.00000  Uiso   1.00
C944   C     0.62416   0.64537   0.74983   0.00000  Uiso   1.00
Cu945  Cu    0.38022   0.50001   0.75000   0.00000  Uiso   1.00
Cu946  Cu    0.61978   0.49999   0.75000   0.00000  Uiso   1.00
H947   H     0.60166   0.47864   0.54463   0.00000  Uiso   1.00
H948   H     0.40916   0.62939   0.75006   0.00000  Uiso   1.00
H949   H     0.59091   0.62935   0.74973   0.00000  Uiso   1.00
H950   H     0.40911   0.37065   0.75017   0.00000  Uiso   1.00
H951   H     0.52785   0.45691   0.80327   0.00000  Uiso   1.00
H952   H     0.47215   0.54307   0.69671   0.00000  Uiso   1.00
H953   H     0.44085   0.45703   0.80331   0.00000  Uiso   1.00
H954   H     0.55916   0.54297   0.69668   0.00000  Uiso   1.00
H955   H     0.64880   0.41105   0.98603   0.00000  Uiso   1.00
H956   H     0.37390   0.41981   0.99555   0.00000  Uiso   1.00
H957   H     0.36883   0.42110   0.93917   0.00000  Uiso   1.00
H958   H     0.40514   0.55127   0.96095   0.00000  Uiso   1.00
H959   H     0.63287   0.60752   0.51749   0.00000  Uiso   1.00
H960   H     0.35679   0.61140   0.53068   0.00000  Uiso   1.00
H961   H     0.63510   0.59644   0.57356   0.00000  Uiso   1.00
H962   H     0.44622   0.48359   0.61089   0.00000  Uiso   1.00
H963   H     0.55163   0.51307   0.88759   0.00000  Uiso   1.00
H964   H     0.64024   0.52984   0.60985   0.00000  Uiso   1.00
H965   H     0.36183   0.48166   0.89239   0.00000  Uiso   1.00
H966   H     0.51983   0.49105   0.58381   0.00000  Uiso   1.00
H967   H     0.48716   0.53976   0.92172   0.00000  Uiso   1.00
H968   H     0.59087   0.37060   0.74985   0.00000  Uiso   1.00
N969   N     0.45069   0.50001   0.74999   0.00000  Uiso   1.00
N970   N     0.54931   0.49999   0.75001   0.00000  Uiso   1.00
O971   O     0.37291   0.43989   0.75000   0.00000  Uiso   1.00
O972   O     0.66407   0.55206   0.52502   0.00000  Uiso   1.00
O973   O     0.62709   0.56011   0.75000   0.00000  Uiso   1.00
O974   O     0.62706   0.43988   0.75000   0.00000  Uiso   1.00
O975   O     0.37294   0.56012   0.75000   0.00000  Uiso   1.00
O976   O     0.35186   0.50001   0.81492   0.00000  Uiso   1.00
O977   O     0.64814   0.49999   0.68508   0.00000  Uiso   1.00
O978   O     0.60600   0.50000   0.81492   0.00000  Uiso   1.00
O979   O     0.39400   0.50000   0.68508   0.00000  Uiso   1.00
O980   O     0.34112   0.47164   0.97956   0.00000  Uiso   1.00
C981   C     0.99998   0.42069   0.75002   0.00000  Uiso   1.00
C982   C     0.70920   0.35463   0.75007   0.00000  Uiso   1.00
C983   C     0.66670   0.62393   0.74992   0.00000  Uiso   1.00
C984   C     0.99999   0.37607   0.75001   0.00000  Uiso   1.00
C985   C     0.84945   0.47612   0.77961   0.00000  Uiso   1.00
C986   C     0.81722   0.52387   0.72038   0.00000  Uiso   1.00
C987   C     0.79984   0.47616   0.77962   0.00000  Uiso   1.00
C988   C     0.86683   0.52384   0.72037   0.00000  Uiso   1.00
C989   C     0.97272   0.49970   0.83610   0.00000  Uiso   1.00
C990   C     0.69395   0.50086   0.66395   0.00000  Uiso   1.00
C991   C     0.95780   0.49834   0.88525   0.00000  Uiso   1.00
C992   C     0.66670   0.57931   0.74995   0.00000  Uiso   1.00
C993   C     0.70926   0.50671   0.61525   0.00000  Uiso   1.00
C994   C     0.97488   0.48285   0.95606   0.00000  Uiso   1.00
C995   C     0.69552   0.53537   0.54739   0.00000  Uiso   1.00
C996   C     0.99074   0.48761   0.90952   0.00000  Uiso   1.00
C997   C     0.67796   0.52401   0.59247   0.00000  Uiso   1.00
C998   C     0.90934   0.50634   0.90776   0.00000  Uiso   1.00
C999   C     0.75769   0.49911   0.59253   0.00000  Uiso   1.00
C1000  C     0.89267   0.50432   0.95472   0.00000  Uiso   1.00
C1001  C     0.77692   0.51078   0.54757   0.00000  Uiso   1.00
C1002  C     0.92604   0.49166   0.97885   0.00000  Uiso   1.00
C1003  C     0.86179   0.49411   0.54791   0.00000  Uiso   1.00
C1004  C     0.74471   0.52791   0.52455   0.00000  Uiso   1.00
C1005  C     0.84344   0.51327   0.97809   0.00000  Uiso   1.00
C1006  C     0.82713   0.50560   0.52496   0.00000  Uiso   1.00
C1007  C     0.68315   0.42900   0.97445   0.00000  Uiso   1.00
C1008  C     0.98887   0.59361   0.53766   0.00000  Uiso   1.00
C1009  C     0.81023   0.53034   0.95633   0.00000  Uiso   1.00
C1010  C     0.91012   0.48753   0.52532   0.00000  Uiso   1.00
C1011  C     0.76215   0.53781   0.97923   0.00000  Uiso   1.00
C1012  C     0.95746   0.35460   0.74989   0.00000  Uiso   1.00
C1013  C     0.70923   0.64539   0.75001   0.00000  Uiso   1.00
C1014  C     0.95749   0.64537   0.74983   0.00000  Uiso   1.00
Cu1015 Cu    0.71355   0.50001   0.75000   0.00000  Uiso   1.00
Cu1016 Cu    0.95311   0.49999   0.75000   0.00000  Uiso   1.00
H1017  H     0.93499   0.47864   0.54463   0.00000  Uiso   1.00
H1018  H     0.74249   0.62939   0.75006   0.00000  Uiso   1.00
H1019  H     0.92425   0.62935   0.74973   0.00000  Uiso   1.00
H1020  H     0.74245   0.37065   0.75017   0.00000  Uiso   1.00
H1021  H     0.86119   0.45691   0.80327   0.00000  Uiso   1.00
H1022  H     0.80549   0.54307   0.69671   0.00000  Uiso   1.00
H1023  H     0.77418   0.45703   0.80331   0.00000  Uiso   1.00
H1024  H     0.89249   0.54297   0.69668   0.00000  Uiso   1.00
H1025  H     0.98213   0.41105   0.98603   0.00000  Uiso   1.00
H1026  H     0.70723   0.41981   0.99555   0.00000  Uiso   1.00
H1027  H     0.70216   0.42110   0.93917   0.00000  Uiso   1.00
H1028  H     0.73848   0.55127   0.96095   0.00000  Uiso   1.00
H1029  H     0.96620   0.60752   0.51749   0.00000  Uiso   1.00
H1030  H     0.69013   0.61140   0.53068   0.00000  Uiso   1.00
H1031  H     0.96844   0.59644   0.57356   0.00000  Uiso   1.00
H1032  H     0.77956   0.48359   0.61089   0.00000  Uiso   1.00
H1033  H     0.88497   0.51307   0.88759   0.00000  Uiso   1.00
H1034  H     0.97358   0.52984   0.60985   0.00000  Uiso   1.00
H1035  H     0.69516   0.48166   0.89239   0.00000  Uiso   1.00
H1036  H     0.85317   0.49105   0.58381   0.00000  Uiso   1.00
H1037  H     0.82050   0.53976   0.92172   0.00000  Uiso   1.00
H1038  H     0.92420   0.37060   0.74985   0.00000  Uiso   1.00
N1039  N     0.78403   0.50001   0.74999   0.00000  Uiso   1.00
N1040  N     0.88264   0.49999   0.75001   0.00000  Uiso   1.00
O1041  O     0.70625   0.43989   0.75000   0.00000  Uiso   1.00
O1042  O     0.99740   0.55206   0.52502   0.00000  Uiso   1.00
O1043  O     0.96042   0.56011   0.75000   0.00000  Uiso   1.00
O1044  O     0.96039   0.43988   0.75000   0.00000  Uiso   1.00
O1045  O     0.70628   0.56012   0.75000   0.00000  Uiso   1.00
O1046  O     0.68519   0.50001   0.81492   0.00000  Uiso   1.00
O1047  O     0.98148   0.49999   0.68508   0.00000  Uiso   1.00
O1048  O     0.93933   0.50000   0.81492   0.00000  Uiso   1.00
O1049  O     0.72733   0.50000   0.68508   0.00000  Uiso   1.00
O1050  O     0.67446   0.47164   0.97956   0.00000  Uiso   1.00
C1051  C     0.33331   0.75402   0.75002   0.00000  Uiso   1.00
C1052  C     0.04254   0.68796   0.75007   0.00000  Uiso   1.00
C1053  C     0.00003   0.95726   0.74992   0.00000  Uiso   1.00
C1054  C     0.33332   0.70941   0.75001   0.00000  Uiso   1.00
C1055  C     0.18278   0.80945   0.77961   0.00000  Uiso   1.00
C1056  C     0.15055   0.85721   0.72038   0.00000  Uiso   1.00
C1057  C     0.13317   0.80949   0.77962   0.00000  Uiso   1.00
C1058  C     0.20017   0.85717   0.72037   0.00000  Uiso   1.00
C1059  C     0.30606   0.83303   0.83610   0.00000  Uiso   1.00
C1060  C     0.02729   0.83419   0.66395   0.00000  Uiso   1.00
C1061  C     0.29113   0.83167   0.88525   0.00000  Uiso   1.00
C1062  C     0.00003   0.91264   0.74995   0.00000  Uiso   1.00
C1063  C     0.04259   0.84004   0.61525   0.00000  Uiso   1.00
C1064  C     0.30822   0.81619   0.95606   0.00000  Uiso   1.00
C1065  C     0.02885   0.86870   0.54739   0.00000  Uiso   1.00
C1066  C     0.32407   0.82095   0.90952   0.00000  Uiso   1.00
C1067  C     0.01129   0.85734   0.59247   0.00000  Uiso   1.00
C1068  C     0.24267   0.83967   0.90776   0.00000  Uiso   1.00
C1069  C     0.09102   0.83245   0.59253   0.00000  Uiso   1.00
C1070  C     0.22600   0.83766   0.95472   0.00000  Uiso   1.00
C1071  C     0.11025   0.84411   0.54757   0.00000  Uiso   1.00
C1072  C     0.25938   0.82500   0.97885   0.00000  Uiso   1.00
C1073  C     0.19512   0.82744   0.54791   0.00000  Uiso   1.00
C1074  C     0.07804   0.86124   0.52455   0.00000  Uiso   1.00
C1075  C     0.17677   0.84660   0.97809   0.00000  Uiso   1.00
C1076  C     0.16047   0.83894   0.52496   0.00000  Uiso   1.00
C1077  C     0.01648   0.76234   0.97445   0.00000  Uiso   1.00
C1078  C     0.32220   0.92694   0.53766   0.00000  Uiso   1.00
C1079  C     0.14356   0.86367   0.95633   0.00000  Uiso   1.00
C1080  C     0.24345   0.82086   0.52532   0.00000  Uiso   1.00
C1081  C     0.09549   0.87115   0.97923   0.00000  Uiso   1.00
C1082  C     0.29080   0.68794   0.74989   0.00000  Uiso   1.00
C1083  C     0.04256   0.97873   0.75001   0.00000  Uiso   1.00
C1084  C     0.29082   0.97870   0.74983   0.00000  Uiso   1.00
Cu1085 Cu    0.04689   0.83334   0.75000   0.00000  Uiso   1.00
Cu1086 Cu    0.28645   0.83333   0.75000   0.00000  Uiso   1.00
H1087  H     0.26833   0.81197   0.54463   0.00000  Uiso   1.00
H1088  H     0.07583   0.96273   0.75006   0.00000  Uiso   1.00
H1089  H     0.25758   0.96268   0.74973   0.00000  Uiso   1.00
H1090  H     0.07578   0.70398   0.75017   0.00000  Uiso   1.00
H1091  H     0.19452   0.79024   0.80327   0.00000  Uiso   1.00
H1092  H     0.13882   0.87641   0.69671   0.00000  Uiso   1.00
H1093  H     0.10751   0.79036   0.80331   0.00000  Uiso   1.00
H1094  H     0.22582   0.87630   0.69668   0.00000  Uiso   1.00
H1095  H     0.31547   0.74438   0.98603   0.00000  Uiso   1.00
H1096  H     0.04056   0.75314   0.99555   0.00000  Uiso   1.00
H1097  H     0.03549   0.75444   0.93917   0.00000  Uiso   1.00
H1098  H     0.07181   0.88460   0.96095   0.00000  Uiso   1.00
H1099  H     0.29953   0.94085   0.51749   0.00000  Uiso   1.00
H1100  H     0.02346   0.94473   0.53068   0.00000  Uiso   1.00
H1101  H     0.30177   0.92977   0.57356   0.00000  Uiso   1.00
H1102  H     0.11289   0.81692   0.61089   0.00000  Uiso   1.00
H1103  H     0.21830   0.84640   0.88759   0.00000  Uiso   1.00
H1104  H     0.30691   0.86317   0.60985   0.00000  Uiso   1.00
H1105  H     0.02849   0.81499   0.89239   0.00000  Uiso   1.00
H1106  H     0.18650   0.82438   0.58381   0.00000  Uiso   1.00
H1107  H     0.15383   0.87309   0.92172   0.00000  Uiso   1.00
H1108  H     0.25753   0.70394   0.74985   0.00000  Uiso   1.00
N1109  N     0.11736   0.83334   0.74999   0.00000  Uiso   1.00
N1110  N     0.21597   0.83332   0.75001   0.00000  Uiso   1.00
O1111  O     0.03958   0.77322   0.75000   0.00000  Uiso   1.00
O1112  O     0.33074   0.88539   0.52502   0.00000  Uiso   1.00
O1113  O     0.29375   0.89345   0.75000   0.00000  Uiso   1.00
O1114  O     0.29372   0.77321   0.75000   0.00000  Uiso   1.00
O1115  O     0.03961   0.89346   0.75000   0.00000  Uiso   1.00
O1116  O     0.01852   0.83334   0.81492   0.00000  Uiso   1.00
O1117  O     0.31481   0.83332   0.68508   0.00000  Uiso   1.00
O1118  O     0.27267   0.83333   0.81492   0.00000  Uiso   1.00
O1119  O     0.06067   0.83333   0.68508   0.00000  Uiso   1.00
O1120  O     0.00779   0.80497   0.97956   0.00000  Uiso   1.00
C1121  C     0.66665   0.75402   0.75002   0.00000  Uiso   1.00
C1122  C     0.37587   0.68796   0.75007   0.00000  Uiso   1.00
C1123  C     0.33337   0.95726   0.74992   0.00000  Uiso   1.00
C1124  C     0.66665   0.70941   0.75001   0.00000  Uiso   1.00
C1125  C     0.51612   0.80945   0.77961   0.00000  Uiso   1.00
C1126  C     0.48389   0.85721   0.72038   0.00000  Uiso   1.00
C1127  C     0.46650   0.80949   0.77962   0.00000  Uiso   1.00
C1128  C     0.53350   0.85717   0.72037   0.00000  Uiso   1.00
C1129  C     0.63939   0.83303   0.83610   0.00000  Uiso   1.00
C1130  C     0.36062   0.83419   0.66395   0.00000  Uiso   1.00
C1131  C     0.62447   0.83167   0.88525   0.00000  Uiso   1.00
C1132  C     0.33336   0.91264   0.74995   0.00000  Uiso   1.00
C1133  C     0.37592   0.84004   0.61525   0.00000  Uiso   1.00
C1134  C     0.64155   0.81619   0.95606   0.00000  Uiso   1.00
C1135  C     0.36219   0.86870   0.54739   0.00000  Uiso   1.00
C1136  C     0.65740   0.82095   0.90952   0.00000  Uiso   1.00
C1137  C     0.34462   0.85734   0.59247   0.00000  Uiso   1.00
C1138  C     0.57600   0.83967   0.90776   0.00000  Uiso   1.00
C1139  C     0.42436   0.83245   0.59253   0.00000  Uiso   1.00
C1140  C     0.55934   0.83766   0.95472   0.00000  Uiso   1.00
C1141  C     0.44358   0.84411   0.54757   0.00000  Uiso   1.00
C1142  C     0.59271   0.82500   0.97885   0.00000  Uiso   1.00
C1143  C     0.52846   0.82744   0.54791   0.00000  Uiso   1.00
C1144  C     0.41137   0.86124   0.52455   0.00000  Uiso   1.00
C1145  C     0.51011   0.84660   0.97809   0.00000  Uiso   1.00
C1146  C     0.49380   0.83894   0.52496   0.00000  Uiso   1.00
C1147  C     0.34982   0.76234   0.97445   0.00000  Uiso   1.00
C1148  C     0.65554   0.92694   0.53766   0.00000  Uiso   1.00
C1149  C     0.47690   0.86367   0.95633   0.00000  Uiso   1.00
C1150  C     0.57678   0.82086   0.52532   0.00000  Uiso   1.00
C1151  C     0.42882   0.87115   0.97923   0.00000  Uiso   1.00
C1152  C     0.62413   0.68794   0.74989   0.00000  Uiso   1.00
C1153  C     0.37589   0.97873   0.75001   0.00000  Uiso   1.00
C1154  C     0.62416   0.97870   0.74983   0.00000  Uiso   1.00
Cu1155 Cu    0.38022   0.83334   0.75000   0.00000  Uiso   1.00
Cu1156 Cu    0.61978   0.83333   0.75000   0.00000  Uiso   1.00
H1157  H     0.60166   0.81197   0.54463   0.00000  Uiso   1.00
H1158  H     0.40916   0.96273   0.75006   0.00000  Uiso   1.00
H1159  H     0.59091   0.96268   0.74973   0.00000  Uiso   1.00
H1160  H     0.40911   0.70398   0.75017   0.00000  Uiso   1.00
H1161  H     0.52785   0.79024   0.80327   0.00000  Uiso   1.00
H1162  H     0.47215   0.87641   0.69671   0.00000  Uiso   1.00
H1163  H     0.44085   0.79036   0.80331   0.00000  Uiso   1.00
H1164  H     0.55916   0.87630   0.69668   0.00000  Uiso   1.00
H1165  H     0.64880   0.74438   0.98603   0.00000  Uiso   1.00
H1166  H     0.37390   0.75314   0.99555   0.00000  Uiso   1.00
H1167  H     0.36883   0.75444   0.93917   0.00000  Uiso   1.00
H1168  H     0.40514   0.88460   0.96095   0.00000  Uiso   1.00
H1169  H     0.63287   0.94085   0.51749   0.00000  Uiso   1.00
H1170  H     0.35679   0.94473   0.53068   0.00000  Uiso   1.00
H1171  H     0.63510   0.92977   0.57356   0.00000  Uiso   1.00
H1172  H     0.44622   0.81692   0.61089   0.00000  Uiso   1.00
H1173  H     0.55163   0.84640   0.88759   0.00000  Uiso   1.00
H1174  H     0.64024   0.86317   0.60985   0.00000  Uiso   1.00
H1175  H     0.36183   0.81499   0.89239   0.00000  Uiso   1.00
H1176  H     0.51983   0.82438   0.58381   0.00000  Uiso   1.00
H1177  H     0.48716   0.87309   0.92172   0.00000  Uiso   1.00
H1178  H     0.59087   0.70394   0.74985   0.00000  Uiso   1.00
N1179  N     0.45069   0.83334   0.74999   0.00000  Uiso   1.00
N1180  N     0.54931   0.83332   0.75001   0.00000  Uiso   1.00
O1181  O     0.37291   0.77322   0.75000   0.00000  Uiso   1.00
O1182  O     0.66407   0.88539   0.52502   0.00000  Uiso   1.00
O1183  O     0.62709   0.89345   0.75000   0.00000  Uiso   1.00
O1184  O     0.62706   0.77321   0.75000   0.00000  Uiso   1.00
O1185  O     0.37294   0.89346   0.75000   0.00000  Uiso   1.00
O1186  O     0.35186   0.83334   0.81492   0.00000  Uiso   1.00
O1187  O     0.64814   0.83332   0.68508   0.00000  Uiso   1.00
O1188  O     0.60600   0.83333   0.81492   0.00000  Uiso   1.00
O1189  O     0.39400   0.83333   0.68508   0.00000  Uiso   1.00
O1190  O     0.34112   0.80497   0.97956   0.00000  Uiso   1.00
C1191  C     0.99998   0.75402   0.75002   0.00000  Uiso   1.00
C1192  C     0.70920   0.68796   0.75007   0.00000  Uiso   1.00
C1193  C     0.66670   0.95726   0.74992   0.00000  Uiso   1.00
C1194  C     0.99999   0.70941   0.75001   0.00000  Uiso   1.00
C1195  C     0.84945   0.80945   0.77961   0.00000  Uiso   1.00
C1196  C     0.81722   0.85721   0.72038   0.00000  Uiso   1.00
C1197  C     0.79984   0.80949   0.77962   0.00000  Uiso   1.00
C1198  C     0.86683   0.85717   0.72037   0.00000  Uiso   1.00
C1199  C     0.97272   0.83303   0.83610   0.00000  Uiso   1.00
C1200  C     0.69395   0.83419   0.66395   0.00000  Uiso   1.00
C1201  C     0.95780   0.83167   0.88525   0.00000  Uiso   1.00
C1202  C     0.66670   0.91264   0.74995   0.00000  Uiso   1.00
C1203  C     0.70926   0.84004   0.61525   0.00000  Uiso   1.00
C1204  C     0.97488   0.81619   0.95606   0.00000  Uiso   1.00
C1205  C     0.69552   0.86870   0.54739   0.00000  Uiso   1.00
C1206  C     0.99074   0.82095   0.90952   0.00000  Uiso   1.00
C1207  C     0.67796   0.85734   0.59247   0.00000  Uiso   1.00
C1208  C     0.90934   0.83967   0.90776   0.00000  Uiso   1.00
C1209  C     0.75769   0.83245   0.59253   0.00000  Uiso   1.00
C1210  C     0.89267   0.83766   0.95472   0.00000  Uiso   1.00
C1211  C     0.77692   0.84411   0.54757   0.00000  Uiso   1.00
C1212  C     0.92604   0.82500   0.97885   0.00000  Uiso   1.00
C1213  C     0.86179   0.82744   0.54791   0.00000  Uiso   1.00
C1214  C     0.74471   0.86124   0.52455   0.00000  Uiso   1.00
C1215  C     0.84344   0.84660   0.97809   0.00000  Uiso   1.00
C1216  C     0.82713   0.83894   0.52496   0.00000  Uiso   1.00
C1217  C     0.68315   0.76234   0.97445   0.00000  Uiso   1.00
C1218  C     0.98887   0.92694   0.53766   0.00000  Uiso   1.00
C1219  C     0.81023   0.86367   0.95633   0.00000  Uiso   1.00
C1220  C     0.91012   0.82086   0.52532   0.00000  Uiso   1.00
C1221  C     0.76215   0.87115   0.97923   0.00000  Uiso   1.00
C1222  C     0.95746   0.68794   0.74989   0.00000  Uiso   1.00
C1223  C     0.70923   0.97873   0.75001   0.00000  Uiso   1.00
C1224  C     0.95749   0.97870   0.74983   0.00000  Uiso   1.00
Cu1225 Cu    0.71355   0.83334   0.75000   0.00000  Uiso   1.00
Cu1226 Cu    0.95311   0.83333   0.75000   0.00000  Uiso   1.00
H1227  H     0.93499   0.81197   0.54463   0.00000  Uiso   1.00
H1228  H     0.74249   0.96273   0.75006   0.00000  Uiso   1.00
H1229  H     0.92425   0.96268   0.74973   0.00000  Uiso   1.00
H1230  H     0.74245   0.70398   0.75017   0.00000  Uiso   1.00
H1231  H     0.86119   0.79024   0.80327   0.00000  Uiso   1.00
H1232  H     0.80549   0.87641   0.69671   0.00000  Uiso   1.00
H1233  H     0.77418   0.79036   0.80331   0.00000  Uiso   1.00
H1234  H     0.89249   0.87630   0.69668   0.00000  Uiso   1.00
H1235  H     0.98213   0.74438   0.98603   0.00000  Uiso   1.00
H1236  H     0.70723   0.75314   0.99555   0.00000  Uiso   1.00
H1237  H     0.70216   0.75444   0.93917   0.00000  Uiso   1.00
H1238  H     0.73848   0.88460   0.96095   0.00000  Uiso   1.00
H1239  H     0.96620   0.94085   0.51749   0.00000  Uiso   1.00
H1240  H     0.69013   0.94473   0.53068   0.00000  Uiso   1.00
H1241  H     0.96844   0.92977   0.57356   0.00000  Uiso   1.00
H1242  H     0.77956   0.81692   0.61089   0.00000  Uiso   1.00
H1243  H     0.88497   0.84640   0.88759   0.00000  Uiso   1.00
H1244  H     0.97358   0.86317   0.60985   0.00000  Uiso   1.00
H1245  H     0.69516   0.81499   0.89239   0.00000  Uiso   1.00
H1246  H     0.85317   0.82438   0.58381   0.00000  Uiso   1.00
H1247  H     0.82050   0.87309   0.92172   0.00000  Uiso   1.00
H1248  H     0.92420   0.70394   0.74985   0.00000  Uiso   1.00
N1249  N     0.78403   0.83334   0.74999   0.00000  Uiso   1.00
N1250  N     0.88264   0.83332   0.75001   0.00000  Uiso   1.00
O1251  O     0.70625   0.77322   0.75000   0.00000  Uiso   1.00
O1252  O     0.99740   0.88539   0.52502   0.00000  Uiso   1.00
O1253  O     0.96042   0.89345   0.75000   0.00000  Uiso   1.00
O1254  O     0.96039   0.77321   0.75000   0.00000  Uiso   1.00
O1255  O     0.70628   0.89346   0.75000   0.00000  Uiso   1.00
O1256  O     0.68519   0.83334   0.81492   0.00000  Uiso   1.00
O1257  O     0.98148   0.83332   0.68508   0.00000  Uiso   1.00
O1258  O     0.93933   0.83333   0.81492   0.00000  Uiso   1.00
O1259  O     0.72733   0.83333   0.68508   0.00000  Uiso   1.00
O1260  O     0.67446   0.80497   0.97956   0.00000  Uiso   1.00
loop_
_geom_bond_atom_site_label_1
_geom_bond_atom_site_label_2
_geom_bond_distance
_geom_bond_site_symmetry_2
_ccdc_geom_bond_type
C1     C4      1.450   .     S
C1     O64     1.291   .     A
C1     O131    1.291   .     S
C2     H40     1.083   .     S
C2     C144    1.401   1_455 S
C2     C453    1.383   1_545 S
C3     C33     1.401   .     A
C3     C12     1.450   .     S
C3     C174    1.401   1_455 S
C4     C32     1.401   .     A
C4     C72     1.401   .     S
C5     N60     1.367   .     A
C5     C7      1.416   .     A
C5     H41     1.082   .     S
C6     C8      1.417   .     A
C6     H42     1.082   .     S
C6     N59     1.367   .     A
C7     N59     1.367   .     A
C7     H43     1.082   .     S
C8     N60     1.367   .     A
C8     H44     1.082   .     S
C9     C11     1.467   .     S
C9     O68     1.295   .     A
C9     O136    1.296   .     S
C10    O69     1.294   .     A
C10    C13     1.466   .     S
C10    O207    1.296   1_455 S
C11    C18     1.396   .     A
C11    C16     1.397   .     A
C12    O65     1.291   .     A
C12    O203    1.291   1_455 S
C13    C17     1.397   .     A
C13    C19     1.395   .     A
C14    C22     1.413   .     A
C14    C16     1.398   .     A
C14    O140    1.383   .     S
C15    C24     1.413   .     A
C15    C17     1.400   .     A
C15    O202    1.384   1_455 S
C16    H125    1.083   .     S
C17    H194    1.083   1_455 S
C18    C20     1.405   .     A
C18    H53     1.075   .     S
C19    H52     1.076   .     S
C19    C21     1.404   .     A
C20    C22     1.421   .     A
C20    C25     1.427   .     A
C21    C26     1.427   .     A
C21    C24     1.420   .     A
C22    C660    1.394   .     S
C23    H56     1.077   .     S
C23    C30     1.386   .     A
C23    C26     1.415   .     A
C24    C661    1.395   1_554 S
C25    C29     1.416   .     A
C25    C656    1.422   .     S
C26    C655    1.422   1_554 S
C27    O70     1.409   .     S
C27    H47     1.112   .     S
C27    H46     1.109   .     S
C27    H185    1.114   1_455 S
C28    H49     1.109   .     S
C28    H51     1.112   .     S
C28    O62     1.409   .     S
C28    H120    1.114   .     S
C29    C31     1.387   .     A
C29    H57     1.077   .     S
C30    H37     1.084   .     S
C30    C652    1.394   1_554 S
C31    H48     1.084   .     S
C31    C654    1.395   .     S
C32    H58     1.083   .     S
C32    C454    1.383   1_545 S
C33    H38     1.083   .     S
C33    C212    1.383   .     S
C34    H39     1.083   .     S
C34    C73     1.401   .     S
C34    C242    1.383   .     S
Cu35   N59     2.012   .     S
Cu35   O66     1.956   .     S
Cu35   O69     1.943   .     S
Cu35   O61     1.965   .     S
Cu35   O65     1.965   .     S
Cu35   Cu176   2.677   1_455 S
Cu36   O68     1.943   .     S
Cu36   O63     1.965   .     S
Cu36   O67     1.956   .     S
Cu36   O64     1.965   .     S
Cu36   N60     2.012   .     S
Cu36   Cu105   2.677   .     S
H45    C97     1.114   .     S
H50    C168    1.114   1_455 S
H54    C87     1.083   .     S
H55    C156    1.083   1_455 S
O61    C141    1.291   1_455 S
O62    C85     1.384   .     S
O63    C82     1.291   .     S
O66    C149    1.296   1_455 S
O67    C80     1.296   .     S
O70    C154    1.383   1_455 S
C71    C74     1.450   .     S
C71    O134    1.291   .     A
C71    O201    1.291   .     S
C72    H110    1.083   .     S
C72    C523    1.383   1_545 S
C73    C103    1.401   .     A
C73    C82     1.450   .     S
C74    C102    1.401   .     A
C74    C142    1.401   .     S
C75    N130    1.367   .     A
C75    C77     1.416   .     A
C75    H111    1.082   .     S
C76    C78     1.417   .     A
C76    H112    1.082   .     S
C76    N129    1.367   .     A
C77    N129    1.367   .     A
C77    H113    1.082   .     S
C78    N130    1.367   .     A
C78    H114    1.082   .     S
C79    C81     1.467   .     S
C79    O138    1.295   .     A
C79    O206    1.296   .     S
C80    O139    1.294   .     A
C80    C83     1.466   .     S
C81    C88     1.396   .     A
C81    C86     1.397   .     A
C82    O135    1.291   .     A
C83    C87     1.397   .     A
C83    C89     1.395   .     A
C84    C92     1.413   .     A
C84    C86     1.398   .     A
C84    O210    1.383   .     S
C85    C94     1.413   .     A
C85    C87     1.400   .     A
C86    H195    1.083   .     S
C88    C90     1.405   .     A
C88    H123    1.075   .     S
C89    H122    1.076   .     S
C89    C91     1.404   .     A
C90    C92     1.421   .     A
C90    C95     1.427   .     A
C91    C96     1.427   .     A
C91    C94     1.420   .     A
C92    C730    1.394   .     S
C93    H126    1.077   .     S
C93    C100    1.386   .     A
C93    C96     1.415   .     A
C94    C731    1.395   1_554 S
C95    C99     1.416   .     A
C95    C726    1.422   .     S
C96    C725    1.422   1_554 S
C97    O140    1.409   .     S
C97    H117    1.112   .     S
C97    H116    1.109   .     S
C98    H119    1.109   .     S
C98    H121    1.112   .     S
C98    O132    1.409   .     S
C98    H190    1.114   .     S
C99    C101    1.387   .     A
C99    H127    1.077   .     S
C100   H107    1.084   .     S
C100   C722    1.394   1_554 S
C101   H118    1.084   .     S
C101   C724    1.395   .     S
C102   H128    1.083   .     S
C102   C524    1.383   1_545 S
C103   H108    1.083   .     S
C103   C282    1.383   .     S
C104   H109    1.083   .     S
C104   C143    1.401   .     S
C104   C312    1.383   .     S
Cu105  N129    2.012   .     S
Cu105  O136    1.956   .     S
Cu105  O139    1.943   .     S
Cu105  O131    1.965   .     S
Cu105  O135    1.965   .     S
Cu106  O138    1.943   .     S
Cu106  O133    1.965   .     S
Cu106  O137    1.956   .     S
Cu106  O134    1.965   .     S
Cu106  N130    2.012   .     S
Cu106  Cu175   2.677   .     S
H115   C167    1.114   .     S
H124   C157    1.083   .     S
O132   C155    1.384   .     S
O133   C152    1.291   .     S
O137   C150    1.296   .     S
C141   C144    1.450   .     S
C141   O204    1.291   .     A
C141   O61     1.291   1_655 S
C142   H180    1.083   .     S
C142   C593    1.383   1_545 S
C143   C173    1.401   .     A
C143   C152    1.450   .     S
C144   C172    1.401   .     A
C144   C2      1.401   1_655 S
C145   N200    1.367   .     A
C145   C147    1.416   .     A
C145   H181    1.082   .     S
C146   C148    1.417   .     A
C146   H182    1.082   .     S
C146   N199    1.367   .     A
C147   N199    1.367   .     A
C147   H183    1.082   .     S
C148   N200    1.367   .     A
C148   H184    1.082   .     S
C149   C151    1.467   .     S
C149   O208    1.295   .     A
C149   O66     1.296   1_655 S
C150   O209    1.294   .     A
C150   C153    1.466   .     S
C151   C158    1.396   .     A
C151   C156    1.397   .     A
C152   O205    1.291   .     A
C153   C157    1.397   .     A
C153   C159    1.395   .     A
C154   C162    1.413   .     A
C154   C156    1.398   .     A
C154   O70     1.383   1_655 S
C155   C164    1.413   .     A
C155   C157    1.400   .     A
C156   H55     1.083   1_655 S
C158   C160    1.405   .     A
C158   H193    1.075   .     S
C159   H192    1.076   .     S
C159   C161    1.404   .     A
C160   C162    1.421   .     A
C160   C165    1.427   .     A
C161   C166    1.427   .     A
C161   C164    1.420   .     A
C162   C800    1.394   .     S
C163   H196    1.077   .     S
C163   C170    1.386   .     A
C163   C166    1.415   .     A
C164   C801    1.395   1_554 S
C165   C169    1.416   .     A
C165   C796    1.422   .     S
C166   C795    1.422   1_554 S
C167   O210    1.409   .     S
C167   H187    1.112   .     S
C167   H186    1.109   .     S
C168   H189    1.109   .     S
C168   H191    1.112   .     S
C168   O202    1.409   .     S
C168   H50     1.114   1_655 S
C169   C171    1.387   .     A
C169   H197    1.077   .     S
C170   H177    1.084   .     S
C170   C792    1.394   1_554 S
C171   H188    1.084   .     S
C171   C794    1.395   .     S
C172   H198    1.083   .     S
C172   C594    1.383   1_545 S
C173   H178    1.083   .     S
C173   C352    1.383   .     S
C174   H179    1.083   .     S
C174   C3      1.401   1_655 S
C174   C382    1.383   .     S
Cu175  N199    2.012   .     S
Cu175  O206    1.956   .     S
Cu175  O209    1.943   .     S
Cu175  O201    1.965   .     S
Cu175  O205    1.965   .     S
Cu176  O208    1.943   .     S
Cu176  O203    1.965   .     S
Cu176  O207    1.956   .     S
Cu176  O204    1.965   .     S
Cu176  N200    2.012   .     S
Cu176  Cu35    2.677   1_655 S
H185   C27     1.114   1_655 S
H194   C17     1.083   1_655 S
O202   C15     1.384   1_655 S
O203   C12     1.291   1_655 S
O207   C10     1.296   1_655 S
C211   C214    1.450   .     S
C211   O274    1.291   .     A
C211   O341    1.291   .     S
C212   H250    1.083   .     S
C212   C354    1.401   1_455 S
C213   C243    1.401   .     A
C213   C222    1.450   .     S
C213   C384    1.401   1_455 S
C214   C242    1.401   .     A
C214   C282    1.401   .     S
C215   N270    1.367   .     A
C215   C217    1.416   .     A
C215   H251    1.082   .     S
C216   C218    1.417   .     A
C216   H252    1.082   .     S
C216   N269    1.367   .     A
C217   N269    1.367   .     A
C217   H253    1.082   .     S
C218   N270    1.367   .     A
C218   H254    1.082   .     S
C219   C221    1.467   .     S
C219   O278    1.295   .     A
C219   O346    1.296   .     S
C220   O279    1.294   .     A
C220   C223    1.466   .     S
C220   O417    1.296   1_455 S
C221   C228    1.396   .     A
C221   C226    1.397   .     A
C222   O275    1.291   .     A
C222   O413    1.291   1_455 S
C223   C227    1.397   .     A
C223   C229    1.395   .     A
C224   C232    1.413   .     A
C224   C226    1.398   .     A
C224   O350    1.383   .     S
C225   C234    1.413   .     A
C225   C227    1.400   .     A
C225   O412    1.384   1_455 S
C226   H335    1.083   .     S
C227   H404    1.083   1_455 S
C228   C230    1.405   .     A
C228   H263    1.075   .     S
C229   H262    1.076   .     S
C229   C231    1.404   .     A
C230   C232    1.421   .     A
C230   C235    1.427   .     A
C231   C236    1.427   .     A
C231   C234    1.420   .     A
C232   C870    1.394   .     S
C233   H266    1.077   .     S
C233   C240    1.386   .     A
C233   C236    1.415   .     A
C234   C871    1.395   1_554 S
C235   C239    1.416   .     A
C235   C866    1.422   .     S
C236   C865    1.422   1_554 S
C237   O280    1.409   .     S
C237   H257    1.112   .     S
C237   H256    1.109   .     S
C237   H395    1.114   1_455 S
C238   H259    1.109   .     S
C238   H261    1.112   .     S
C238   O272    1.409   .     S
C238   H330    1.114   .     S
C239   C241    1.387   .     A
C239   H267    1.077   .     S
C240   H247    1.084   .     S
C240   C862    1.394   1_554 S
C241   H258    1.084   .     S
C241   C864    1.395   .     S
C242   H268    1.083   .     S
C243   H248    1.083   .     S
C243   C422    1.383   .     S
C244   H249    1.083   .     S
C244   C283    1.401   .     S
C244   C452    1.383   .     S
Cu245  N269    2.012   .     S
Cu245  O276    1.956   .     S
Cu245  O279    1.943   .     S
Cu245  O271    1.965   .     S
Cu245  O275    1.965   .     S
Cu245  Cu386   2.677   1_455 S
Cu246  O278    1.943   .     S
Cu246  O273    1.965   .     S
Cu246  O277    1.956   .     S
Cu246  O274    1.965   .     S
Cu246  N270    2.012   .     S
Cu246  Cu315   2.677   .     S
H255   C307    1.114   .     S
H260   C378    1.114   1_455 S
H264   C297    1.083   .     S
H265   C366    1.083   1_455 S
O271   C351    1.291   1_455 S
O272   C295    1.384   .     S
O273   C292    1.291   .     S
O276   C359    1.296   1_455 S
O277   C290    1.296   .     S
O280   C364    1.383   1_455 S
C281   C284    1.450   .     S
C281   O344    1.291   .     A
C281   O411    1.291   .     S
C282   H320    1.083   .     S
C283   C313    1.401   .     A
C283   C292    1.450   .     S
C284   C312    1.401   .     A
C284   C352    1.401   .     S
C285   N340    1.367   .     A
C285   C287    1.416   .     A
C285   H321    1.082   .     S
C286   C288    1.417   .     A
C286   H322    1.082   .     S
C286   N339    1.367   .     A
C287   N339    1.367   .     A
C287   H323    1.082   .     S
C288   N340    1.367   .     A
C288   H324    1.082   .     S
C289   C291    1.467   .     S
C289   O348    1.295   .     A
C289   O416    1.296   .     S
C290   O349    1.294   .     A
C290   C293    1.466   .     S
C291   C298    1.396   .     A
C291   C296    1.397   .     A
C292   O345    1.291   .     A
C293   C297    1.397   .     A
C293   C299    1.395   .     A
C294   C302    1.413   .     A
C294   C296    1.398   .     A
C294   O420    1.383   .     S
C295   C304    1.413   .     A
C295   C297    1.400   .     A
C296   H405    1.083   .     S
C298   C300    1.405   .     A
C298   H333    1.075   .     S
C299   H332    1.076   .     S
C299   C301    1.404   .     A
C300   C302    1.421   .     A
C300   C305    1.427   .     A
C301   C306    1.427   .     A
C301   C304    1.420   .     A
C302   C940    1.394   .     S
C303   H336    1.077   .     S
C303   C310    1.386   .     A
C303   C306    1.415   .     A
C304   C941    1.395   1_554 S
C305   C309    1.416   .     A
C305   C936    1.422   .     S
C306   C935    1.422   1_554 S
C307   O350    1.409   .     S
C307   H327    1.112   .     S
C307   H326    1.109   .     S
C308   H329    1.109   .     S
C308   H331    1.112   .     S
C308   O342    1.409   .     S
C308   H400    1.114   .     S
C309   C311    1.387   .     A
C309   H337    1.077   .     S
C310   H317    1.084   .     S
C310   C932    1.394   1_554 S
C311   H328    1.084   .     S
C311   C934    1.395   .     S
C312   H338    1.083   .     S
C313   H318    1.083   .     S
C313   C492    1.383   .     S
C314   H319    1.083   .     S
C314   C353    1.401   .     S
C314   C522    1.383   .     S
Cu315  N339    2.012   .     S
Cu315  O346    1.956   .     S
Cu315  O349    1.943   .     S
Cu315  O341    1.965   .     S
Cu315  O345    1.965   .     S
Cu316  O348    1.943   .     S
Cu316  O343    1.965   .     S
Cu316  O347    1.956   .     S
Cu316  O344    1.965   .     S
Cu316  N340    2.012   .     S
Cu316  Cu385   2.677   .     S
H325   C377    1.114   .     S
H334   C367    1.083   .     S
O342   C365    1.384   .     S
O343   C362    1.291   .     S
O347   C360    1.296   .     S
C351   C354    1.450   .     S
C351   O414    1.291   .     A
C351   O271    1.291   1_655 S
C352   H390    1.083   .     S
C353   C383    1.401   .     A
C353   C362    1.450   .     S
C354   C382    1.401   .     A
C354   C212    1.401   1_655 S
C355   N410    1.367   .     A
C355   C357    1.416   .     A
C355   H391    1.082   .     S
C356   C358    1.417   .     A
C356   H392    1.082   .     S
C356   N409    1.367   .     A
C357   N409    1.367   .     A
C357   H393    1.082   .     S
C358   N410    1.367   .     A
C358   H394    1.082   .     S
C359   C361    1.467   .     S
C359   O418    1.295   .     A
C359   O276    1.296   1_655 S
C360   O419    1.294   .     A
C360   C363    1.466   .     S
C361   C368    1.396   .     A
C361   C366    1.397   .     A
C362   O415    1.291   .     A
C363   C367    1.397   .     A
C363   C369    1.395   .     A
C364   C372    1.413   .     A
C364   C366    1.398   .     A
C364   O280    1.383   1_655 S
C365   C374    1.413   .     A
C365   C367    1.400   .     A
C366   H265    1.083   1_655 S
C368   C370    1.405   .     A
C368   H403    1.075   .     S
C369   H402    1.076   .     S
C369   C371    1.404   .     A
C370   C372    1.421   .     A
C370   C375    1.427   .     A
C371   C376    1.427   .     A
C371   C374    1.420   .     A
C372   C1010   1.394   .     S
C373   H406    1.077   .     S
C373   C380    1.386   .     A
C373   C376    1.415   .     A
C374   C1011   1.395   1_554 S
C375   C379    1.416   .     A
C375   C1006   1.422   .     S
C376   C1005   1.422   1_554 S
C377   O420    1.409   .     S
C377   H397    1.112   .     S
C377   H396    1.109   .     S
C378   H399    1.109   .     S
C378   H401    1.112   .     S
C378   O412    1.409   .     S
C378   H260    1.114   1_655 S
C379   C381    1.387   .     A
C379   H407    1.077   .     S
C380   H387    1.084   .     S
C380   C1002   1.394   1_554 S
C381   H398    1.084   .     S
C381   C1004   1.395   .     S
C382   H408    1.083   .     S
C383   H388    1.083   .     S
C383   C562    1.383   .     S
C384   H389    1.083   .     S
C384   C213    1.401   1_655 S
C384   C592    1.383   .     S
Cu385  N409    2.012   .     S
Cu385  O416    1.956   .     S
Cu385  O419    1.943   .     S
Cu385  O411    1.965   .     S
Cu385  O415    1.965   .     S
Cu386  O418    1.943   .     S
Cu386  O413    1.965   .     S
Cu386  O417    1.956   .     S
Cu386  O414    1.965   .     S
Cu386  N410    2.012   .     S
Cu386  Cu245   2.677   1_655 S
H395   C237    1.114   1_655 S
H404   C227    1.083   1_655 S
O412   C225    1.384   1_655 S
O413   C222    1.291   1_655 S
O417   C220    1.296   1_655 S
C421   C424    1.450   .     S
C421   O484    1.291   .     A
C421   O551    1.291   .     S
C422   H460    1.083   .     S
C422   C564    1.401   1_455 S
C423   C453    1.401   .     A
C423   C432    1.450   .     S
C423   C594    1.401   1_455 S
C424   C452    1.401   .     A
C424   C492    1.401   .     S
C425   N480    1.367   .     A
C425   C427    1.416   .     A
C425   H461    1.082   .     S
C426   C428    1.417   .     A
C426   H462    1.082   .     S
C426   N479    1.367   .     A
C427   N479    1.367   .     A
C427   H463    1.082   .     S
C428   N480    1.367   .     A
C428   H464    1.082   .     S
C429   C431    1.467   .     S
C429   O488    1.295   .     A
C429   O556    1.296   .     S
C430   O489    1.294   .     A
C430   C433    1.466   .     S
C430   O627    1.296   1_455 S
C431   C438    1.396   .     A
C431   C436    1.397   .     A
C432   O485    1.291   .     A
C432   O623    1.291   1_455 S
C433   C437    1.397   .     A
C433   C439    1.395   .     A
C434   C442    1.413   .     A
C434   C436    1.398   .     A
C434   O560    1.383   .     S
C435   C444    1.413   .     A
C435   C437    1.400   .     A
C435   O622    1.384   1_455 S
C436   H545    1.083   .     S
C437   H614    1.083   1_455 S
C438   C440    1.405   .     A
C438   H473    1.075   .     S
C439   H472    1.076   .     S
C439   C441    1.404   .     A
C440   C442    1.421   .     A
C440   C445    1.427   .     A
C441   C446    1.427   .     A
C441   C444    1.420   .     A
C442   C1080   1.394   .     S
C443   H476    1.077   .     S
C443   C450    1.386   .     A
C443   C446    1.415   .     A
C444   C1081   1.395   1_554 S
C445   C449    1.416   .     A
C445   C1076   1.422   .     S
C446   C1075   1.422   1_554 S
C447   O490    1.409   .     S
C447   H467    1.112   .     S
C447   H466    1.109   .     S
C447   H605    1.114   1_455 S
C448   H469    1.109   .     S
C448   H471    1.112   .     S
C448   O482    1.409   .     S
C448   H540    1.114   .     S
C449   C451    1.387   .     A
C449   H477    1.077   .     S
C450   H457    1.084   .     S
C450   C1072   1.394   1_554 S
C451   H468    1.084   .     S
C451   C1074   1.395   .     S
C452   H478    1.083   .     S
C453   H458    1.083   .     S
C453   C2      1.383   1_565 S
C454   H459    1.083   .     S
C454   C493    1.401   .     S
C454   C32     1.383   1_565 S
Cu455  N479    2.012   .     S
Cu455  O486    1.956   .     S
Cu455  O489    1.943   .     S
Cu455  O481    1.965   .     S
Cu455  O485    1.965   .     S
Cu455  Cu596   2.677   1_455 S
Cu456  O488    1.943   .     S
Cu456  O483    1.965   .     S
Cu456  O487    1.956   .     S
Cu456  O484    1.965   .     S
Cu456  N480    2.012   .     S
Cu456  Cu525   2.677   .     S
H465   C517    1.114   .     S
H470   C588    1.114   1_455 S
H474   C507    1.083   .     S
H475   C576    1.083   1_455 S
O481   C561    1.291   1_455 S
O482   C505    1.384   .     S
O483   C502    1.291   .     S
O486   C569    1.296   1_455 S
O487   C500    1.296   .     S
O490   C574    1.383   1_455 S
C491   C494    1.450   .     S
C491   O554    1.291   .     A
C491   O621    1.291   .     S
C492   H530    1.083   .     S
C493   C523    1.401   .     A
C493   C502    1.450   .     S
C494   C522    1.401   .     A
C494   C562    1.401   .     S
C495   N550    1.367   .     A
C495   C497    1.416   .     A
C495   H531    1.082   .     S
C496   C498    1.417   .     A
C496   H532    1.082   .     S
C496   N549    1.367   .     A
C497   N549    1.367   .     A
C497   H533    1.082   .     S
C498   N550    1.367   .     A
C498   H534    1.082   .     S
C499   C501    1.467   .     S
C499   O558    1.295   .     A
C499   O626    1.296   .     S
C500   O559    1.294   .     A
C500   C503    1.466   .     S
C501   C508    1.396   .     A
C501   C506    1.397   .     A
C502   O555    1.291   .     A
C503   C507    1.397   .     A
C503   C509    1.395   .     A
C504   C512    1.413   .     A
C504   C506    1.398   .     A
C504   O630    1.383   .     S
C505   C514    1.413   .     A
C505   C507    1.400   .     A
C506   H615    1.083   .     S
C508   C510    1.405   .     A
C508   H543    1.075   .     S
C509   H542    1.076   .     S
C509   C511    1.404   .     A
C510   C512    1.421   .     A
C510   C515    1.427   .     A
C511   C516    1.427   .     A
C511   C514    1.420   .     A
C512   C1150   1.394   .     S
C513   H546    1.077   .     S
C513   C520    1.386   .     A
C513   C516    1.415   .     A
C514   C1151   1.395   1_554 S
C515   C519    1.416   .     A
C515   C1146   1.422   .     S
C516   C1145   1.422   1_554 S
C517   O560    1.409   .     S
C517   H537    1.112   .     S
C517   H536    1.109   .     S
C518   H539    1.109   .     S
C518   H541    1.112   .     S
C518   O552    1.409   .     S
C518   H610    1.114   .     S
C519   C521    1.387   .     A
C519   H547    1.077   .     S
C520   H527    1.084   .     S
C520   C1142   1.394   1_554 S
C521   H538    1.084   .     S
C521   C1144   1.395   .     S
C522   H548    1.083   .     S
C523   H528    1.083   .     S
C523   C72     1.383   1_565 S
C524   H529    1.083   .     S
C524   C563    1.401   .     S
C524   C102    1.383   1_565 S
Cu525  N549    2.012   .     S
Cu525  O556    1.956   .     S
Cu525  O559    1.943   .     S
Cu525  O551    1.965   .     S
Cu525  O555    1.965   .     S
Cu526  O558    1.943   .     S
Cu526  O553    1.965   .     S
Cu526  O557    1.956   .     S
Cu526  O554    1.965   .     S
Cu526  N550    2.012   .     S
Cu526  Cu595   2.677   .     S
H535   C587    1.114   .     S
H544   C577    1.083   .     S
O552   C575    1.384   .     S
O553   C572    1.291   .     S
O557   C570    1.296   .     S
C561   C564    1.450   .     S
C561   O624    1.291   .     A
C561   O481    1.291   1_655 S
C562   H600    1.083   .     S
C563   C593    1.401   .     A
C563   C572    1.450   .     S
C564   C592    1.401   .     A
C564   C422    1.401   1_655 S
C565   N620    1.367   .     A
C565   C567    1.416   .     A
C565   H601    1.082   .     S
C566   C568    1.417   .     A
C566   H602    1.082   .     S
C566   N619    1.367   .     A
C567   N619    1.367   .     A
C567   H603    1.082   .     S
C568   N620    1.367   .     A
C568   H604    1.082   .     S
C569   C571    1.467   .     S
C569   O628    1.295   .     A
C569   O486    1.296   1_655 S
C570   O629    1.294   .     A
C570   C573    1.466   .     S
C571   C578    1.396   .     A
C571   C576    1.397   .     A
C572   O625    1.291   .     A
C573   C577    1.397   .     A
C573   C579    1.395   .     A
C574   C582    1.413   .     A
C574   C576    1.398   .     A
C574   O490    1.383   1_655 S
C575   C584    1.413   .     A
C575   C577    1.400   .     A
C576   H475    1.083   1_655 S
C578   C580    1.405   .     A
C578   H613    1.075   .     S
C579   H612    1.076   .     S
C579   C581    1.404   .     A
C580   C582    1.421   .     A
C580   C585    1.427   .     A
C581   C586    1.427   .     A
C581   C584    1.420   .     A
C582   C1220   1.394   .     S
C583   H616    1.077   .     S
C583   C590    1.386   .     A
C583   C586    1.415   .     A
C584   C1221   1.395   1_554 S
C585   C589    1.416   .     A
C585   C1216   1.422   .     S
C586   C1215   1.422   1_554 S
C587   O630    1.409   .     S
C587   H607    1.112   .     S
C587   H606    1.109   .     S
C588   H609    1.109   .     S
C588   H611    1.112   .     S
C588   O622    1.409   .     S
C588   H470    1.114   1_655 S
C589   C591    1.387   .     A
C589   H617    1.077   .     S
C590   H597    1.084   .     S
C590   C1212   1.394   1_554 S
C591   H608    1.084   .     S
C591   C1214   1.395   .     S
C592   H618    1.083   .     S
C593   H598    1.083   .     S
C593   C142    1.383   1_565 S
C594   H599    1.083   .     S
C594   C423    1.401   1_655 S
C594   C172    1.383   1_565 S
Cu595  N619    2.012   .     S
Cu595  O626    1.956   .     S
Cu595  O629    1.943   .     S
Cu595  O621    1.965   .     S
Cu595  O625    1.965   .     S
Cu596  O628    1.943   .     S
Cu596  O623    1.965   .     S
Cu596  O627    1.956   .     S
Cu596  O624    1.965   .     S
Cu596  N620    2.012   .     S
Cu596  Cu455   2.677   1_655 S
H605   C447    1.114   1_655 S
H614   C437    1.083   1_655 S
O622   C435    1.384   1_655 S
O623   C432    1.291   1_655 S
O627   C430    1.296   1_655 S
C631   C634    1.450   .     S
C631   O694    1.291   .     A
C631   O761    1.291   .     S
C632   H670    1.083   .     S
C632   C774    1.401   1_455 S
C632   C1083   1.383   1_545 S
C633   C663    1.401   .     A
C633   C642    1.450   .     S
C633   C804    1.401   1_455 S
C634   C662    1.401   .     A
C634   C702    1.401   .     S
C635   N690    1.367   .     A
C635   C637    1.416   .     A
C635   H671    1.082   .     S
C636   C638    1.417   .     A
C636   H672    1.082   .     S
C636   N689    1.367   .     A
C637   N689    1.367   .     A
C637   H673    1.082   .     S
C638   N690    1.367   .     A
C638   H674    1.082   .     S
C639   C641    1.467   .     S
C639   O698    1.295   .     A
C639   O766    1.296   .     S
C640   O699    1.294   .     A
C640   C643    1.466   .     S
C640   O837    1.296   1_455 S
C641   C648    1.396   .     A
C641   C646    1.397   .     A
C642   O695    1.291   .     A
C642   O833    1.291   1_455 S
C643   C647    1.397   .     A
C643   C649    1.395   .     A
C644   C652    1.413   .     A
C644   C646    1.398   .     A
C644   O770    1.383   .     S
C645   C654    1.413   .     A
C645   C647    1.400   .     A
C645   O832    1.384   1_455 S
C646   H755    1.083   .     S
C647   H824    1.083   1_455 S
C648   C650    1.405   .     A
C648   H683    1.075   .     S
C649   H682    1.076   .     S
C649   C651    1.404   .     A
C650   C652    1.421   .     A
C650   C655    1.427   .     A
C651   C656    1.427   .     A
C651   C654    1.420   .     A
C652   C30     1.394   1_556 S
C653   H686    1.077   .     S
C653   C660    1.386   .     A
C653   C656    1.415   .     A
C655   C659    1.416   .     A
C655   C26     1.422   1_556 S
C657   O700    1.409   .     S
C657   H677    1.112   .     S
C657   H676    1.109   .     S
C657   H815    1.114   1_455 S
C658   H679    1.109   .     S
C658   H681    1.112   .     S
C658   O692    1.409   .     S
C658   H750    1.114   .     S
C659   C661    1.387   .     A
C659   H687    1.077   .     S
C660   H667    1.084   .     S
C661   H678    1.084   .     S
C661   C24     1.395   1_556 S
C662   H688    1.083   .     S
C662   C1084   1.383   1_545 S
C663   H668    1.083   .     S
C663   C842    1.383   .     S
C664   H669    1.083   .     S
C664   C703    1.401   .     S
C664   C872    1.383   .     S
Cu665  N689    2.012   .     S
Cu665  O696    1.956   .     S
Cu665  O699    1.943   .     S
Cu665  O691    1.965   .     S
Cu665  O695    1.965   .     S
Cu665  Cu806   2.677   1_455 S
Cu666  O698    1.943   .     S
Cu666  O693    1.965   .     S
Cu666  O697    1.956   .     S
Cu666  O694    1.965   .     S
Cu666  N690    2.012   .     S
Cu666  Cu735   2.677   .     S
H675   C727    1.114   .     S
H680   C798    1.114   1_455 S
H684   C717    1.083   .     S
H685   C786    1.083   1_455 S
O691   C771    1.291   1_455 S
O692   C715    1.384   .     S
O693   C712    1.291   .     S
O696   C779    1.296   1_455 S
O697   C710    1.296   .     S
O700   C784    1.383   1_455 S
C701   C704    1.450   .     S
C701   O764    1.291   .     A
C701   O831    1.291   .     S
C702   H740    1.083   .     S
C702   C1153   1.383   1_545 S
C703   C733    1.401   .     A
C703   C712    1.450   .     S
C704   C732    1.401   .     A
C704   C772    1.401   .     S
C705   N760    1.367   .     A
C705   C707    1.416   .     A
C705   H741    1.082   .     S
C706   C708    1.417   .     A
C706   H742    1.082   .     S
C706   N759    1.367   .     A
C707   N759    1.367   .     A
C707   H743    1.082   .     S
C708   N760    1.367   .     A
C708   H744    1.082   .     S
C709   C711    1.467   .     S
C709   O768    1.295   .     A
C709   O836    1.296   .     S
C710   O769    1.294   .     A
C710   C713    1.466   .     S
C711   C718    1.396   .     A
C711   C716    1.397   .     A
C712   O765    1.291   .     A
C713   C717    1.397   .     A
C713   C719    1.395   .     A
C714   C722    1.413   .     A
C714   C716    1.398   .     A
C714   O840    1.383   .     S
C715   C724    1.413   .     A
C715   C717    1.400   .     A
C716   H825    1.083   .     S
C718   C720    1.405   .     A
C718   H753    1.075   .     S
C719   H752    1.076   .     S
C719   C721    1.404   .     A
C720   C722    1.421   .     A
C720   C725    1.427   .     A
C721   C726    1.427   .     A
C721   C724    1.420   .     A
C722   C100    1.394   1_556 S
C723   H756    1.077   .     S
C723   C730    1.386   .     A
C723   C726    1.415   .     A
C725   C729    1.416   .     A
C725   C96     1.422   1_556 S
C727   O770    1.409   .     S
C727   H747    1.112   .     S
C727   H746    1.109   .     S
C728   H749    1.109   .     S
C728   H751    1.112   .     S
C728   O762    1.409   .     S
C728   H820    1.114   .     S
C729   C731    1.387   .     A
C729   H757    1.077   .     S
C730   H737    1.084   .     S
C731   H748    1.084   .     S
C731   C94     1.395   1_556 S
C732   H758    1.083   .     S
C732   C1154   1.383   1_545 S
C733   H738    1.083   .     S
C733   C912    1.383   .     S
C734   H739    1.083   .     S
C734   C773    1.401   .     S
C734   C942    1.383   .     S
Cu735  N759    2.012   .     S
Cu735  O766    1.956   .     S
Cu735  O769    1.943   .     S
Cu735  O761    1.965   .     S
Cu735  O765    1.965   .     S
Cu736  O768    1.943   .     S
Cu736  O763    1.965   .     S
Cu736  O767    1.956   .     S
Cu736  O764    1.965   .     S
Cu736  N760    2.012   .     S
Cu736  Cu805   2.677   .     S
H745   C797    1.114   .     S
H754   C787    1.083   .     S
O762   C785    1.384   .     S
O763   C782    1.291   .     S
O767   C780    1.296   .     S
C771   C774    1.450   .     S
C771   O834    1.291   .     A
C771   O691    1.291   1_655 S
C772   H810    1.083   .     S
C772   C1223   1.383   1_545 S
C773   C803    1.401   .     A
C773   C782    1.450   .     S
C774   C802    1.401   .     A
C774   C632    1.401   1_655 S
C775   N830    1.367   .     A
C775   C777    1.416   .     A
C775   H811    1.082   .     S
C776   C778    1.417   .     A
C776   H812    1.082   .     S
C776   N829    1.367   .     A
C777   N829    1.367   .     A
C777   H813    1.082   .     S
C778   N830    1.367   .     A
C778   H814    1.082   .     S
C779   C781    1.467   .     S
C779   O838    1.295   .     A
C779   O696    1.296   1_655 S
C780   O839    1.294   .     A
C780   C783    1.466   .     S
C781   C788    1.396   .     A
C781   C786    1.397   .     A
C782   O835    1.291   .     A
C783   C787    1.397   .     A
C783   C789    1.395   .     A
C784   C792    1.413   .     A
C784   C786    1.398   .     A
C784   O700    1.383   1_655 S
C785   C794    1.413   .     A
C785   C787    1.400   .     A
C786   H685    1.083   1_655 S
C788   C790    1.405   .     A
C788   H823    1.075   .     S
C789   H822    1.076   .     S
C789   C791    1.404   .     A
C790   C792    1.421   .     A
C790   C795    1.427   .     A
C791   C796    1.427   .     A
C791   C794    1.420   .     A
C792   C170    1.394   1_556 S
C793   H826    1.077   .     S
C793   C800    1.386   .     A
C793   C796    1.415   .     A
C795   C799    1.416   .     A
C795   C166    1.422   1_556 S
C797   O840    1.409   .     S
C797   H817    1.112   .     S
C797   H816    1.109   .     S
C798   H819    1.109   .     S
C798   H821    1.112   .     S
C798   O832    1.409   .     S
C798   H680    1.114   1_655 S
C799   C801    1.387   .     A
C799   H827    1.077   .     S
C800   H807    1.084   .     S
C801   H818    1.084   .     S
C801   C164    1.395   1_556 S
C802   H828    1.083   .     S
C802   C1224   1.383   1_545 S
C803   H808    1.083   .     S
C803   C982    1.383   .     S
C804   H809    1.083   .     S
C804   C633    1.401   1_655 S
C804   C1012   1.383   .     S
Cu805  N829    2.012   .     S
Cu805  O836    1.956   .     S
Cu805  O839    1.943   .     S
Cu805  O831    1.965   .     S
Cu805  O835    1.965   .     S
Cu806  O838    1.943   .     S
Cu806  O833    1.965   .     S
Cu806  O837    1.956   .     S
Cu806  O834    1.965   .     S
Cu806  N830    2.012   .     S
Cu806  Cu665   2.677   1_655 S
H815   C657    1.114   1_655 S
H824   C647    1.083   1_655 S
O832   C645    1.384   1_655 S
O833   C642    1.291   1_655 S
O837   C640    1.296   1_655 S
C841   C844    1.450   .     S
C841   O904    1.291   .     A
C841   O971    1.291   .     S
C842   H880    1.083   .     S
C842   C984    1.401   1_455 S
C843   C873    1.401   .     A
C843   C852    1.450   .     S
C843   C1014   1.401   1_455 S
C844   C872    1.401   .     A
C844   C912    1.401   .     S
C845   N900    1.367   .     A
C845   C847    1.416   .     A
C845   H881    1.082   .     S
C846   C848    1.417   .     A
C846   H882    1.082   .     S
C846   N899    1.367   .     A
C847   N899    1.367   .     A
C847   H883    1.082   .     S
C848   N900    1.367   .     A
C848   H884    1.082   .     S
C849   C851    1.467   .     S
C849   O908    1.295   .     A
C849   O976    1.296   .     S
C850   O909    1.294   .     A
C850   C853    1.466   .     S
C850   O1047   1.296   1_455 S
C851   C858    1.396   .     A
C851   C856    1.397   .     A
C852   O905    1.291   .     A
C852   O1043   1.291   1_455 S
C853   C857    1.397   .     A
C853   C859    1.395   .     A
C854   C862    1.413   .     A
C854   C856    1.398   .     A
C854   O980    1.383   .     S
C855   C864    1.413   .     A
C855   C857    1.400   .     A
C855   O1042   1.384   1_455 S
C856   H965    1.083   .     S
C857   H1034   1.083   1_455 S
C858   C860    1.405   .     A
C858   H893    1.075   .     S
C859   H892    1.076   .     S
C859   C861    1.404   .     A
C860   C862    1.421   .     A
C860   C865    1.427   .     A
C861   C866    1.427   .     A
C861   C864    1.420   .     A
C862   C240    1.394   1_556 S
C863   H896    1.077   .     S
C863   C870    1.386   .     A
C863   C866    1.415   .     A
C865   C869    1.416   .     A
C865   C236    1.422   1_556 S
C867   O910    1.409   .     S
C867   H887    1.112   .     S
C867   H886    1.109   .     S
C867   H1025   1.114   1_455 S
C868   H889    1.109   .     S
C868   H891    1.112   .     S
C868   O902    1.409   .     S
C868   H960    1.114   .     S
C869   C871    1.387   .     A
C869   H897    1.077   .     S
C870   H877    1.084   .     S
C871   H888    1.084   .     S
C871   C234    1.395   1_556 S
C872   H898    1.083   .     S
C873   H878    1.083   .     S
C873   C1052   1.383   .     S
C874   H879    1.083   .     S
C874   C913    1.401   .     S
C874   C1082   1.383   .     S
Cu875  N899    2.012   .     S
Cu875  O906    1.956   .     S
Cu875  O909    1.943   .     S
Cu875  O901    1.965   .     S
Cu875  O905    1.965   .     S
Cu875  Cu1016  2.677   1_455 S
Cu876  O908    1.943   .     S
Cu876  O903    1.965   .     S
Cu876  O907    1.956   .     S
Cu876  O904    1.965   .     S
Cu876  N900    2.012   .     S
Cu876  Cu945   2.677   .     S
H885   C937    1.114   .     S
H890   C1008   1.114   1_455 S
H894   C927    1.083   .     S
H895   C996    1.083   1_455 S
O901   C981    1.291   1_455 S
O902   C925    1.384   .     S
O903   C922    1.291   .     S
O906   C989    1.296   1_455 S
O907   C920    1.296   .     S
O910   C994    1.383   1_455 S
C911   C914    1.450   .     S
C911   O974    1.291   .     A
C911   O1041   1.291   .     S
C912   H950    1.083   .     S
C913   C943    1.401   .     A
C913   C922    1.450   .     S
C914   C942    1.401   .     A
C914   C982    1.401   .     S
C915   N970    1.367   .     A
C915   C917    1.416   .     A
C915   H951    1.082   .     S
C916   C918    1.417   .     A
C916   H952    1.082   .     S
C916   N969    1.367   .     A
C917   N969    1.367   .     A
C917   H953    1.082   .     S
C918   N970    1.367   .     A
C918   H954    1.082   .     S
C919   C921    1.467   .     S
C919   O978    1.295   .     A
C919   O1046   1.296   .     S
C920   O979    1.294   .     A
C920   C923    1.466   .     S
C921   C928    1.396   .     A
C921   C926    1.397   .     A
C922   O975    1.291   .     A
C923   C927    1.397   .     A
C923   C929    1.395   .     A
C924   C932    1.413   .     A
C924   C926    1.398   .     A
C924   O1050   1.383   .     S
C925   C934    1.413   .     A
C925   C927    1.400   .     A
C926   H1035   1.083   .     S
C928   C930    1.405   .     A
C928   H963    1.075   .     S
C929   H962    1.076   .     S
C929   C931    1.404   .     A
C930   C932    1.421   .     A
C930   C935    1.427   .     A
C931   C936    1.427   .     A
C931   C934    1.420   .     A
C932   C310    1.394   1_556 S
C933   H966    1.077   .     S
C933   C940    1.386   .     A
C933   C936    1.415   .     A
C935   C939    1.416   .     A
C935   C306    1.422   1_556 S
C937   O980    1.409   .     S
C937   H957    1.112   .     S
C937   H956    1.109   .     S
C938   H959    1.109   .     S
C938   H961    1.112   .     S
C938   O972    1.409   .     S
C938   H1030   1.114   .     S
C939   C941    1.387   .     A
C939   H967    1.077   .     S
C940   H947    1.084   .     S
C941   H958    1.084   .     S
C941   C304    1.395   1_556 S
C942   H968    1.083   .     S
C943   H948    1.083   .     S
C943   C1122   1.383   .     S
C944   H949    1.083   .     S
C944   C983    1.401   .     S
C944   C1152   1.383   .     S
Cu945  N969    2.012   .     S
Cu945  O976    1.956   .     S
Cu945  O979    1.943   .     S
Cu945  O971    1.965   .     S
Cu945  O975    1.965   .     S
Cu946  O978    1.943   .     S
Cu946  O973    1.965   .     S
Cu946  O977    1.956   .     S
Cu946  O974    1.965   .     S
Cu946  N970    2.012   .     S
Cu946  Cu1015  2.677   .     S
H955   C1007   1.114   .     S
H964   C997    1.083   .     S
O972   C995    1.384   .     S
O973   C992    1.291   .     S
O977   C990    1.296   .     S
C981   C984    1.450   .     S
C981   O1044   1.291   .     A
C981   O901    1.291   1_655 S
C982   H1020   1.083   .     S
C983   C1013   1.401   .     A
C983   C992    1.450   .     S
C984   C1012   1.401   .     A
C984   C842    1.401   1_655 S
C985   N1040   1.367   .     A
C985   C987    1.416   .     A
C985   H1021   1.082   .     S
C986   C988    1.417   .     A
C986   H1022   1.082   .     S
C986   N1039   1.367   .     A
C987   N1039   1.367   .     A
C987   H1023   1.082   .     S
C988   N1040   1.367   .     A
C988   H1024   1.082   .     S
C989   C991    1.467   .     S
C989   O1048   1.295   .     A
C989   O906    1.296   1_655 S
C990   O1049   1.294   .     A
C990   C993    1.466   .     S
C991   C998    1.396   .     A
C991   C996    1.397   .     A
C992   O1045   1.291   .     A
C993   C997    1.397   .     A
C993   C999    1.395   .     A
C994   C1002   1.413   .     A
C994   C996    1.398   .     A
C994   O910    1.383   1_655 S
C995   C1004   1.413   .     A
C995   C997    1.400   .     A
C996   H895    1.083   1_655 S
C998   C1000   1.405   .     A
C998   H1033   1.075   .     S
C999   H1032   1.076   .     S
C999   C1001   1.404   .     A
C1000  C1002   1.421   .     A
C1000  C1005   1.427   .     A
C1001  C1006   1.427   .     A
C1001  C1004   1.420   .     A
C1002  C380    1.394   1_556 S
C1003  H1036   1.077   .     S
C1003  C1010   1.386   .     A
C1003  C1006   1.415   .     A
C1005  C1009   1.416   .     A
C1005  C376    1.422   1_556 S
C1007  O1050   1.409   .     S
C1007  H1027   1.112   .     S
C1007  H1026   1.109   .     S
C1008  H1029   1.109   .     S
C1008  H1031   1.112   .     S
C1008  O1042   1.409   .     S
C1008  H890    1.114   1_655 S
C1009  C1011   1.387   .     A
C1009  H1037   1.077   .     S
C1010  H1017   1.084   .     S
C1011  H1028   1.084   .     S
C1011  C374    1.395   1_556 S
C1012  H1038   1.083   .     S
C1013  H1018   1.083   .     S
C1013  C1192   1.383   .     S
C1014  H1019   1.083   .     S
C1014  C843    1.401   1_655 S
C1014  C1222   1.383   .     S
Cu1015 N1039   2.012   .     S
Cu1015 O1046   1.956   .     S
Cu1015 O1049   1.943   .     S
Cu1015 O1041   1.965   .     S
Cu1015 O1045   1.965   .     S
Cu1016 O1048   1.943   .     S
Cu1016 O1043   1.965   .     S
Cu1016 O1047   1.956   .     S
Cu1016 O1044   1.965   .     S
Cu1016 N1040   2.012   .     S
Cu1016 Cu875   2.677   1_655 S
H1025  C867    1.114   1_655 S
H1034  C857    1.083   1_655 S
O1042  C855    1.384   1_655 S
O1043  C852    1.291   1_655 S
O1047  C850    1.296   1_655 S
C1051  C1054   1.450   .     S
C1051  O1114   1.291   .     A
C1051  O1181   1.291   .     S
C1052  H1090   1.083   .     S
C1052  C1194   1.401   1_455 S
C1053  C1083   1.401   .     A
C1053  C1062   1.450   .     S
C1053  C1224   1.401   1_455 S
C1054  C1082   1.401   .     A
C1054  C1122   1.401   .     S
C1055  N1110   1.367   .     A
C1055  C1057   1.416   .     A
C1055  H1091   1.082   .     S
C1056  C1058   1.417   .     A
C1056  H1092   1.082   .     S
C1056  N1109   1.367   .     A
C1057  N1109   1.367   .     A
C1057  H1093   1.082   .     S
C1058  N1110   1.367   .     A
C1058  H1094   1.082   .     S
C1059  C1061   1.467   .     S
C1059  O1118   1.295   .     A
C1059  O1186   1.296   .     S
C1060  O1119   1.294   .     A
C1060  C1063   1.466   .     S
C1060  O1257   1.296   1_455 S
C1061  C1068   1.396   .     A
C1061  C1066   1.397   .     A
C1062  O1115   1.291   .     A
C1062  O1253   1.291   1_455 S
C1063  C1067   1.397   .     A
C1063  C1069   1.395   .     A
C1064  C1072   1.413   .     A
C1064  C1066   1.398   .     A
C1064  O1190   1.383   .     S
C1065  C1074   1.413   .     A
C1065  C1067   1.400   .     A
C1065  O1252   1.384   1_455 S
C1066  H1175   1.083   .     S
C1067  H1244   1.083   1_455 S
C1068  C1070   1.405   .     A
C1068  H1103   1.075   .     S
C1069  H1102   1.076   .     S
C1069  C1071   1.404   .     A
C1070  C1072   1.421   .     A
C1070  C1075   1.427   .     A
C1071  C1076   1.427   .     A
C1071  C1074   1.420   .     A
C1072  C450    1.394   1_556 S
C1073  H1106   1.077   .     S
C1073  C1080   1.386   .     A
C1073  C1076   1.415   .     A
C1075  C1079   1.416   .     A
C1075  C446    1.422   1_556 S
C1077  O1120   1.409   .     S
C1077  H1097   1.112   .     S
C1077  H1096   1.109   .     S
C1077  H1235   1.114   1_455 S
C1078  H1099   1.109   .     S
C1078  H1101   1.112   .     S
C1078  O1112   1.409   .     S
C1078  H1170   1.114   .     S
C1079  C1081   1.387   .     A
C1079  H1107   1.077   .     S
C1080  H1087   1.084   .     S
C1081  H1098   1.084   .     S
C1081  C444    1.395   1_556 S
C1082  H1108   1.083   .     S
C1083  H1088   1.083   .     S
C1083  C632    1.383   1_565 S
C1084  H1089   1.083   .     S
C1084  C1123   1.401   .     S
C1084  C662    1.383   1_565 S
Cu1085 N1109   2.012   .     S
Cu1085 O1116   1.956   .     S
Cu1085 O1119   1.943   .     S
Cu1085 O1111   1.965   .     S
Cu1085 O1115   1.965   .     S
Cu1085 Cu1226  2.677   1_455 S
Cu1086 O1118   1.943   .     S
Cu1086 O1113   1.965   .     S
Cu1086 O1117   1.956   .     S
Cu1086 O1114   1.965   .     S
Cu1086 N1110   2.012   .     S
Cu1086 Cu1155  2.677   .     S
H1095  C1147   1.114   .     S
H1100  C1218   1.114   1_455 S
H1104  C1137   1.083   .     S
H1105  C1206   1.083   1_455 S
O1111  C1191   1.291   1_455 S
O1112  C1135   1.384   .     S
O1113  C1132   1.291   .     S
O1116  C1199   1.296   1_455 S
O1117  C1130   1.296   .     S
O1120  C1204   1.383   1_455 S
C1121  C1124   1.450   .     S
C1121  O1184   1.291   .     A
C1121  O1251   1.291   .     S
C1122  H1160   1.083   .     S
C1123  C1153   1.401   .     A
C1123  C1132   1.450   .     S
C1124  C1152   1.401   .     A
C1124  C1192   1.401   .     S
C1125  N1180   1.367   .     A
C1125  C1127   1.416   .     A
C1125  H1161   1.082   .     S
C1126  C1128   1.417   .     A
C1126  H1162   1.082   .     S
C1126  N1179   1.367   .     A
C1127  N1179   1.367   .     A
C1127  H1163   1.082   .     S
C1128  N1180   1.367   .     A
C1128  H1164   1.082   .     S
C1129  C1131   1.467   .     S
C1129  O1188   1.295   .     A
C1129  O1256   1.296   .     S
C1130  O1189   1.294   .     A
C1130  C1133   1.466   .     S
C1131  C1138   1.396   .     A
C1131  C1136   1.397   .     A
C1132  O1185   1.291   .     A
C1133  C1137   1.397   .     A
C1133  C1139   1.395   .     A
C1134  C1142   1.413   .     A
C1134  C1136   1.398   .     A
C1134  O1260   1.383   .     S
C1135  C1144   1.413   .     A
C1135  C1137   1.400   .     A
C1136  H1245   1.083   .     S
C1138  C1140   1.405   .     A
C1138  H1173   1.075   .     S
C1139  H1172   1.076   .     S
C1139  C1141   1.404   .     A
C1140  C1142   1.421   .     A
C1140  C1145   1.427   .     A
C1141  C1146   1.427   .     A
C1141  C1144   1.420   .     A
C1142  C520    1.394   1_556 S
C1143  H1176   1.077   .     S
C1143  C1150   1.386   .     A
C1143  C1146   1.415   .     A
C1145  C1149   1.416   .     A
C1145  C516    1.422   1_556 S
C1147  O1190   1.409   .     S
C1147  H1167   1.112   .     S
C1147  H1166   1.109   .     S
C1148  H1169   1.109   .     S
C1148  H1171   1.112   .     S
C1148  O1182   1.409   .     S
C1148  H1240   1.114   .     S
C1149  C1151   1.387   .     A
C1149  H1177   1.077   .     S
C1150  H1157   1.084   .     S
C1151  H1168   1.084   .     S
C1151  C514    1.395   1_556 S
C1152  H1178   1.083   .     S
C1153  H1158   1.083   .     S
C1153  C702    1.383   1_565 S
C1154  H1159   1.083   .     S
C1154  C1193   1.401   .     S
C1154  C732    1.383   1_565 S
Cu1155 N1179   2.012   .     S
Cu1155 O1186   1.956   .     S
Cu1155 O1189   1.943   .     S
Cu1155 O1181   1.965   .     S
Cu1155 O1185   1.965   .     S
Cu1156 O1188   1.943   .     S
Cu1156 O1183   1.965   .     S
Cu1156 O1187   1.956   .     S
Cu1156 O1184   1.965   .     S
Cu1156 N1180   2.012   .     S
Cu1156 Cu1225  2.677   .     S
H1165  C1217   1.114   .     S
H1174  C1207   1.083   .     S
O1182  C1205   1.384   .     S
O1183  C1202   1.291   .     S
O1187  C1200   1.296   .     S
C1191  C1194   1.450   .     S
C1191  O1254   1.291   .     A
C1191  O1111   1.291   1_655 S
C1192  H1230   1.083   .     S
C1193  C1223   1.401   .     A
C1193  C1202   1.450   .     S
C1194  C1222   1.401   .     A
C1194  C1052   1.401   1_655 S
C1195  N1250   1.367   .     A
C1195  C1197   1.416   .     A
C1195  H1231   1.082   .     S
C1196  C1198   1.417   .     A
C1196  H1232   1.082   .     S
C1196  N1249   1.367   .     A
C1197  N1249   1.367   .     A
C1197  H1233   1.082   .     S
C1198  N1250   1.367   .     A
C1198  H1234   1.082   .     S
C1199  C1201   1.467   .     S
C1199  O1258   1.295   .     A
C1199  O1116   1.296   1_655 S
C1200  O1259   1.294   .     A
C1200  C1203   1.466   .     S
C1201  C1208   1.396   .     A
C1201  C1206   1.397   .     A
C1202  O1255   1.291   .     A
C1203  C1207   1.397   .     A
C1203  C1209   1.395   .     A
C1204  C1212   1.413   .     A
C1204  C1206   1.398   .     A
C1204  O1120   1.383   1_655 S
C1205  C1214   1.413   .     A
C1205  C1207   1.400   .     A
C1206  H1105   1.083   1_655 S
C1208  C1210   1.405   .     A
C1208  H1243   1.075   .     S
C1209  H1242   1.076   .     S
C1209  C1211   1.404   .     A
C1210  C1212   1.421   .     A
C1210  C1215   1.427   .     A
C1211  C1216   1.427   .     A
C1211  C1214   1.420   .     A
C1212  C590    1.394   1_556 S
C1213  H1246   1.077   .     S
C1213  C1220   1.386   .     A
C1213  C1216   1.415   .     A
C1215  C1219   1.416   .     A
C1215  C586    1.422   1_556 S
C1217  O1260   1.409   .     S
C1217  H1237   1.112   .     S
C1217  H1236   1.109   .     S
C1218  H1239   1.109   .     S
C1218  H1241   1.112   .     S
C1218  O1252   1.409   .     S
C1218  H1100   1.114   1_655 S
C1219  C1221   1.387   .     A
C1219  H1247   1.077   .     S
C1220  H1227   1.084   .     S
C1221  H1238   1.084   .     S
C1221  C584    1.395   1_556 S
C1222  H1248   1.083   .     S
C1223  H1228   1.083   .     S
C1223  C772    1.383   1_565 S
C1224  H1229   1.083   .     S
C1224  C1053   1.401   1_655 S
C1224  C802    1.383   1_565 S
Cu1225 N1249   2.012   .     S
Cu1225 O1256   1.956   .     S
Cu1225 O1259   1.943   .     S
Cu1225 O1251   1.965   .     S
Cu1225 O1255   1.965   .     S
Cu1226 O1258   1.943   .     S
Cu1226 O1253   1.965   .     S
Cu1226 O1257   1.956   .     S
Cu1226 O1254   1.965   .     S
Cu1226 N1250   2.012   .     S
Cu1226 Cu1085  2.677   1_655 S
H1235  C1077   1.114   1_655 S
H1244  C1067   1.083   1_655 S
O1252  C1065   1.384   1_655 S
O1253  C1062   1.291   1_655 S
O1257  C1060   1.296   1_655 S
