data_str_m2_o1_o18_pcu_sym.77
_audit_creation_date              2020-01-03
_audit_creation_method            'Materials Studio'
_symmetry_space_group_name_H-M    'P1'
_symmetry_Int_Tables_number       1
_symmetry_cell_setting            triclinic
loop_
_symmetry_equiv_pos_as_xyz
  x,y,z
_cell_length_a                    28.6397
_cell_length_b                    32.2909
_cell_length_c                    30.6817
_cell_angle_alpha                 89.0962
_cell_angle_beta                  74.6380
_cell_angle_gamma                 89.5283
loop_
_atom_site_label
_atom_site_type_symbol
_atom_site_fract_x
_atom_site_fract_y
_atom_site_fract_z
_atom_site_U_iso_or_equiv
_atom_site_adp_type
_atom_site_occupancy
C1     C     0.00029   0.08747   0.24953   0.00000  Uiso   1.00
C2     C     0.03852   0.02120   0.21874   0.00000  Uiso   1.00
C3     C     0.33273   0.29047   0.25087   0.00000  Uiso   1.00
C4     C     0.00079   0.04284   0.24885   0.00000  Uiso   1.00
C5     C     0.18354   0.14177   0.27921   0.00000  Uiso   1.00
C6     C     0.14960   0.19172   0.22097   0.00000  Uiso   1.00
C7     C     0.13396   0.14121   0.27893   0.00000  Uiso   1.00
C8     C     0.19941   0.19205   0.22074   0.00000  Uiso   1.00
C9     C     0.30619   0.16744   0.33617   0.00000  Uiso   1.00
C10    C     0.02716   0.16589   0.16383   0.00000  Uiso   1.00
C11    C     0.29122   0.17253   0.38528   0.00000  Uiso   1.00
C12    C     0.33296   0.24585   0.25078   0.00000  Uiso   1.00
C13    C     0.04222   0.16062   0.11477   0.00000  Uiso   1.00
C14    C     0.30280   0.20169   0.45394   0.00000  Uiso   1.00
C15    C     0.03066   0.13121   0.04623   0.00000  Uiso   1.00
C16    C     0.32020   0.19356   0.40775   0.00000  Uiso   1.00
C17    C     0.01318   0.13962   0.09234   0.00000  Uiso   1.00
C18    C     0.24475   0.16026   0.40884   0.00000  Uiso   1.00
C19    C     0.08887   0.17253   0.09127   0.00000  Uiso   1.00
C20    C     0.22411   0.17232   0.45354   0.00000  Uiso   1.00
C21    C     0.10948   0.16031   0.04663   0.00000  Uiso   1.00
C22    C     0.25520   0.18984   0.47727   0.00000  Uiso   1.00
C23    C     0.19485   0.17643   0.04783   0.00000  Uiso   1.00
C24    C     0.07833   0.14286   0.02292   0.00000  Uiso   1.00
C25    C     0.17434   0.16513   0.47598   0.00000  Uiso   1.00
C26    C     0.15928   0.16734   0.02420   0.00000  Uiso   1.00
C27    C     0.21361   0.28806   0.30850   0.00000  Uiso   1.00
C28    C     0.11779   0.02189   0.15977   0.00000  Uiso   1.00
C29    C     0.11078   0.07068   0.30154   0.00000  Uiso   1.00
C30    C     0.21705   0.25813   0.17868   0.00000  Uiso   1.00
C31    C     0.13877   0.15599   0.45236   0.00000  Uiso   1.00
C32    C     0.23976   0.19187   0.02423   0.00000  Uiso   1.00
C33    C     0.09380   0.14070   0.47598   0.00000  Uiso   1.00
C34    C     0.29678   0.02197   0.27982   0.00000  Uiso   1.00
C35    C     0.03727   0.31124   0.22036   0.00000  Uiso   1.00
C36    C     0.29588   0.31231   0.28131   0.00000  Uiso   1.00
Cu37   Cu    0.04689   0.16667   0.25000   0.00000  Uiso   1.00
Cu38   Cu    0.28645   0.16666   0.25000   0.00000  Uiso   1.00
H39    H     0.26482   0.20087   0.04335   0.00000  Uiso   1.00
H40    H     0.13665   0.21117   0.19760   0.00000  Uiso   1.00
H41    H     0.03176   0.20606   0.47261   0.00000  Uiso   1.00
H42    H     0.00853   0.25172   0.46085   0.00000  Uiso   1.00
H43    H     0.32482   0.08117   0.03956   0.00000  Uiso   1.00
H44    H     0.30176   0.12678   0.02746   0.00000  Uiso   1.00
H45    H     0.18152   0.18939   0.11499   0.00000  Uiso   1.00
H46    H     0.16640   0.13943   0.10417   0.00000  Uiso   1.00
H47    H     0.16696   0.19296   0.39598   0.00000  Uiso   1.00
H48    H     0.15273   0.14269   0.38528   0.00000  Uiso   1.00
H49    H     0.25914   0.30280   0.34788   0.00000  Uiso   1.00
H50    H     0.06872   0.13172   0.45687   0.00000  Uiso   1.00
H51    H     0.19766   0.31933   0.30662   0.00000  Uiso   1.00
H52    H     0.18943   0.27022   0.33670   0.00000  Uiso   1.00
H53    H     0.21593   0.27138   0.27677   0.00000  Uiso   1.00
H54    H     0.06419   0.06813   0.17062   0.00000  Uiso   1.00
H55    H     0.10709   0.00183   0.13498   0.00000  Uiso   1.00
H56    H     0.13531   0.00315   0.18176   0.00000  Uiso   1.00
H57    H     0.14462   0.04479   0.14088   0.00000  Uiso   1.00
H58    H     0.09618   0.12213   0.34249   0.00000  Uiso   1.00
H59    H     0.14407   0.06134   0.31134   0.00000  Uiso   1.00
H60    H     0.11514   0.06324   0.26544   0.00000  Uiso   1.00
H61    H     0.10829   0.19223   0.10832   0.00000  Uiso   1.00
H62    H     0.07985   0.05257   0.32237   0.00000  Uiso   1.00
H63    H     0.25003   0.20139   0.16002   0.00000  Uiso   1.00
H64    H     0.24927   0.27779   0.16452   0.00000  Uiso   1.00
H65    H     0.19453   0.27303   0.20957   0.00000  Uiso   1.00
H66    H     0.19593   0.25630   0.15318   0.00000  Uiso   1.00
H67    H     0.22556   0.14039   0.39179   0.00000  Uiso   1.00
H68    H     0.31056   0.12948   0.11052   0.00000  Uiso   1.00
H69    H     0.02274   0.20390   0.38956   0.00000  Uiso   1.00
H70    H     0.26894   0.03917   0.30369   0.00000  Uiso   1.00
H71    H     0.06492   0.29320   0.19742   0.00000  Uiso   1.00
H72    H     0.19608   0.12192   0.30254   0.00000  Uiso   1.00
N73    N     0.11736   0.16668   0.24999   0.00000  Uiso   1.00
N74    N     0.23287   0.21719   0.18880   0.00000  Uiso   1.00
N75    N     0.21597   0.16666   0.25001   0.00000  Uiso   1.00
N76    N     0.33299   0.22291   0.47678   0.00000  Uiso   1.00
N77    N     0.00048   0.10990   0.02346   0.00000  Uiso   1.00
N78    N     0.19066   0.16389   0.09386   0.00000  Uiso   1.00
N79    N     0.14307   0.16824   0.40625   0.00000  Uiso   1.00
N80    N     0.26106   0.29130   0.31626   0.00000  Uiso   1.00
N81    N     0.07590   0.04353   0.18689   0.00000  Uiso   1.00
N82    N     0.10117   0.11444   0.30909   0.00000  Uiso   1.00
O83    O     0.03958   0.10655   0.25000   0.00000  Uiso   1.00
O84    O     0.29375   0.22678   0.25000   0.00000  Uiso   1.00
O85    O     0.29372   0.10654   0.25001   0.00000  Uiso   1.00
O86    O     0.03961   0.22679   0.24999   0.00000  Uiso   1.00
O87    O     0.01852   0.16668   0.31492   0.00000  Uiso   1.00
O88    O     0.31481   0.16666   0.18509   0.00000  Uiso   1.00
O89    O     0.27267   0.16667   0.31492   0.00000  Uiso   1.00
O90    O     0.06067   0.16667   0.18508   0.00000  Uiso   1.00
C91    C     0.33362   0.08747   0.24953   0.00000  Uiso   1.00
C92    C     0.37185   0.02120   0.21874   0.00000  Uiso   1.00
C93    C     0.66607   0.29047   0.25087   0.00000  Uiso   1.00
C94    C     0.33412   0.04284   0.24885   0.00000  Uiso   1.00
C95    C     0.51688   0.14177   0.27921   0.00000  Uiso   1.00
C96    C     0.48293   0.19172   0.22097   0.00000  Uiso   1.00
C97    C     0.46730   0.14121   0.27893   0.00000  Uiso   1.00
C98    C     0.53274   0.19205   0.22074   0.00000  Uiso   1.00
C99    C     0.63953   0.16744   0.33617   0.00000  Uiso   1.00
C100   C     0.36049   0.16589   0.16383   0.00000  Uiso   1.00
C101   C     0.62456   0.17253   0.38528   0.00000  Uiso   1.00
C102   C     0.66630   0.24585   0.25078   0.00000  Uiso   1.00
C103   C     0.37555   0.16062   0.11477   0.00000  Uiso   1.00
C104   C     0.63613   0.20169   0.45394   0.00000  Uiso   1.00
C105   C     0.36400   0.13121   0.04623   0.00000  Uiso   1.00
C106   C     0.65353   0.19356   0.40775   0.00000  Uiso   1.00
C107   C     0.34652   0.13962   0.09234   0.00000  Uiso   1.00
C108   C     0.57808   0.16026   0.40884   0.00000  Uiso   1.00
C109   C     0.42221   0.17253   0.09127   0.00000  Uiso   1.00
C110   C     0.55744   0.17232   0.45354   0.00000  Uiso   1.00
C111   C     0.44282   0.16031   0.04663   0.00000  Uiso   1.00
C112   C     0.58854   0.18984   0.47727   0.00000  Uiso   1.00
C113   C     0.52819   0.17643   0.04783   0.00000  Uiso   1.00
C114   C     0.41166   0.14286   0.02292   0.00000  Uiso   1.00
C115   C     0.50768   0.16513   0.47598   0.00000  Uiso   1.00
C116   C     0.49262   0.16734   0.02420   0.00000  Uiso   1.00
C117   C     0.54694   0.28806   0.30850   0.00000  Uiso   1.00
C118   C     0.45112   0.02189   0.15977   0.00000  Uiso   1.00
C119   C     0.44412   0.07068   0.30154   0.00000  Uiso   1.00
C120   C     0.55038   0.25813   0.17868   0.00000  Uiso   1.00
C121   C     0.47210   0.15599   0.45236   0.00000  Uiso   1.00
C122   C     0.57309   0.19187   0.02423   0.00000  Uiso   1.00
C123   C     0.42714   0.14070   0.47598   0.00000  Uiso   1.00
C124   C     0.63011   0.02197   0.27982   0.00000  Uiso   1.00
C125   C     0.37060   0.31124   0.22036   0.00000  Uiso   1.00
C126   C     0.62921   0.31231   0.28131   0.00000  Uiso   1.00
Cu127  Cu    0.38022   0.16667   0.25000   0.00000  Uiso   1.00
Cu128  Cu    0.61978   0.16666   0.25000   0.00000  Uiso   1.00
H129   H     0.59816   0.20087   0.04335   0.00000  Uiso   1.00
H130   H     0.46999   0.21117   0.19760   0.00000  Uiso   1.00
H131   H     0.36510   0.20606   0.47261   0.00000  Uiso   1.00
H132   H     0.34187   0.25172   0.46085   0.00000  Uiso   1.00
H133   H     0.65816   0.08117   0.03956   0.00000  Uiso   1.00
H134   H     0.63510   0.12678   0.02746   0.00000  Uiso   1.00
H135   H     0.51485   0.18939   0.11499   0.00000  Uiso   1.00
H136   H     0.49973   0.13943   0.10417   0.00000  Uiso   1.00
H137   H     0.50030   0.19296   0.39598   0.00000  Uiso   1.00
H138   H     0.48606   0.14269   0.38528   0.00000  Uiso   1.00
H139   H     0.59247   0.30280   0.34788   0.00000  Uiso   1.00
H140   H     0.40205   0.13172   0.45687   0.00000  Uiso   1.00
H141   H     0.53099   0.31933   0.30662   0.00000  Uiso   1.00
H142   H     0.52277   0.27022   0.33670   0.00000  Uiso   1.00
H143   H     0.54926   0.27138   0.27677   0.00000  Uiso   1.00
H144   H     0.39752   0.06813   0.17062   0.00000  Uiso   1.00
H145   H     0.44042   0.00183   0.13498   0.00000  Uiso   1.00
H146   H     0.46864   0.00315   0.18176   0.00000  Uiso   1.00
H147   H     0.47795   0.04479   0.14088   0.00000  Uiso   1.00
H148   H     0.42951   0.12213   0.34249   0.00000  Uiso   1.00
H149   H     0.47741   0.06134   0.31134   0.00000  Uiso   1.00
H150   H     0.44847   0.06324   0.26544   0.00000  Uiso   1.00
H151   H     0.44163   0.19223   0.10832   0.00000  Uiso   1.00
H152   H     0.41318   0.05257   0.32237   0.00000  Uiso   1.00
H153   H     0.58337   0.20139   0.16002   0.00000  Uiso   1.00
H154   H     0.58260   0.27779   0.16452   0.00000  Uiso   1.00
H155   H     0.52786   0.27303   0.20957   0.00000  Uiso   1.00
H156   H     0.52926   0.25630   0.15318   0.00000  Uiso   1.00
H157   H     0.55889   0.14039   0.39179   0.00000  Uiso   1.00
H158   H     0.64389   0.12948   0.11052   0.00000  Uiso   1.00
H159   H     0.35607   0.20390   0.38956   0.00000  Uiso   1.00
H160   H     0.60227   0.03917   0.30369   0.00000  Uiso   1.00
H161   H     0.39825   0.29320   0.19742   0.00000  Uiso   1.00
H162   H     0.52942   0.12192   0.30254   0.00000  Uiso   1.00
N163   N     0.45069   0.16668   0.24999   0.00000  Uiso   1.00
N164   N     0.56621   0.21719   0.18880   0.00000  Uiso   1.00
N165   N     0.54931   0.16666   0.25001   0.00000  Uiso   1.00
N166   N     0.66632   0.22291   0.47678   0.00000  Uiso   1.00
N167   N     0.33381   0.10990   0.02346   0.00000  Uiso   1.00
N168   N     0.52399   0.16389   0.09386   0.00000  Uiso   1.00
N169   N     0.47641   0.16824   0.40625   0.00000  Uiso   1.00
N170   N     0.59439   0.29130   0.31626   0.00000  Uiso   1.00
N171   N     0.40923   0.04353   0.18689   0.00000  Uiso   1.00
N172   N     0.43450   0.11444   0.30909   0.00000  Uiso   1.00
O173   O     0.37291   0.10655   0.25000   0.00000  Uiso   1.00
O174   O     0.62709   0.22678   0.25000   0.00000  Uiso   1.00
O175   O     0.62706   0.10654   0.25001   0.00000  Uiso   1.00
O176   O     0.37294   0.22679   0.24999   0.00000  Uiso   1.00
O177   O     0.35186   0.16668   0.31492   0.00000  Uiso   1.00
O178   O     0.64814   0.16666   0.18509   0.00000  Uiso   1.00
O179   O     0.60600   0.16667   0.31492   0.00000  Uiso   1.00
O180   O     0.39400   0.16667   0.18508   0.00000  Uiso   1.00
C181   C     0.66696   0.08747   0.24953   0.00000  Uiso   1.00
C182   C     0.70518   0.02120   0.21874   0.00000  Uiso   1.00
C183   C     0.99940   0.29047   0.25087   0.00000  Uiso   1.00
C184   C     0.66745   0.04284   0.24885   0.00000  Uiso   1.00
C185   C     0.85021   0.14177   0.27921   0.00000  Uiso   1.00
C186   C     0.81626   0.19172   0.22097   0.00000  Uiso   1.00
C187   C     0.80063   0.14121   0.27893   0.00000  Uiso   1.00
C188   C     0.86608   0.19205   0.22074   0.00000  Uiso   1.00
C189   C     0.97286   0.16744   0.33617   0.00000  Uiso   1.00
C190   C     0.69382   0.16589   0.16383   0.00000  Uiso   1.00
C191   C     0.95789   0.17253   0.38528   0.00000  Uiso   1.00
C192   C     0.99963   0.24585   0.25078   0.00000  Uiso   1.00
C193   C     0.70888   0.16062   0.11477   0.00000  Uiso   1.00
C194   C     0.96946   0.20169   0.45394   0.00000  Uiso   1.00
C195   C     0.69733   0.13121   0.04623   0.00000  Uiso   1.00
C196   C     0.98687   0.19356   0.40775   0.00000  Uiso   1.00
C197   C     0.67985   0.13962   0.09234   0.00000  Uiso   1.00
C198   C     0.91142   0.16026   0.40884   0.00000  Uiso   1.00
C199   C     0.75554   0.17253   0.09127   0.00000  Uiso   1.00
C200   C     0.89078   0.17232   0.45354   0.00000  Uiso   1.00
C201   C     0.77615   0.16031   0.04663   0.00000  Uiso   1.00
C202   C     0.92187   0.18984   0.47727   0.00000  Uiso   1.00
C203   C     0.86152   0.17643   0.04783   0.00000  Uiso   1.00
C204   C     0.74500   0.14286   0.02292   0.00000  Uiso   1.00
C205   C     0.84101   0.16513   0.47598   0.00000  Uiso   1.00
C206   C     0.82595   0.16734   0.02420   0.00000  Uiso   1.00
C207   C     0.88027   0.28806   0.30850   0.00000  Uiso   1.00
C208   C     0.78445   0.02189   0.15977   0.00000  Uiso   1.00
C209   C     0.77745   0.07068   0.30154   0.00000  Uiso   1.00
C210   C     0.88372   0.25813   0.17868   0.00000  Uiso   1.00
C211   C     0.80544   0.15599   0.45236   0.00000  Uiso   1.00
C212   C     0.90642   0.19187   0.02423   0.00000  Uiso   1.00
C213   C     0.76047   0.14070   0.47598   0.00000  Uiso   1.00
C214   C     0.96345   0.02197   0.27982   0.00000  Uiso   1.00
C215   C     0.70394   0.31124   0.22036   0.00000  Uiso   1.00
C216   C     0.96255   0.31231   0.28131   0.00000  Uiso   1.00
Cu217  Cu    0.71355   0.16667   0.25000   0.00000  Uiso   1.00
Cu218  Cu    0.95311   0.16666   0.25000   0.00000  Uiso   1.00
H219   H     0.93149   0.20087   0.04335   0.00000  Uiso   1.00
H220   H     0.80332   0.21117   0.19760   0.00000  Uiso   1.00
H221   H     0.69843   0.20606   0.47261   0.00000  Uiso   1.00
H222   H     0.67520   0.25172   0.46085   0.00000  Uiso   1.00
H223   H     0.99149   0.08117   0.03956   0.00000  Uiso   1.00
H224   H     0.96843   0.12678   0.02746   0.00000  Uiso   1.00
H225   H     0.84819   0.18939   0.11499   0.00000  Uiso   1.00
H226   H     0.83307   0.13943   0.10417   0.00000  Uiso   1.00
H227   H     0.83363   0.19296   0.39598   0.00000  Uiso   1.00
H228   H     0.81940   0.14269   0.38528   0.00000  Uiso   1.00
H229   H     0.92581   0.30280   0.34788   0.00000  Uiso   1.00
H230   H     0.73539   0.13172   0.45687   0.00000  Uiso   1.00
H231   H     0.86432   0.31933   0.30662   0.00000  Uiso   1.00
H232   H     0.85610   0.27022   0.33670   0.00000  Uiso   1.00
H233   H     0.88260   0.27138   0.27677   0.00000  Uiso   1.00
H234   H     0.73085   0.06813   0.17062   0.00000  Uiso   1.00
H235   H     0.77375   0.00183   0.13498   0.00000  Uiso   1.00
H236   H     0.80197   0.00315   0.18176   0.00000  Uiso   1.00
H237   H     0.81129   0.04479   0.14088   0.00000  Uiso   1.00
H238   H     0.76284   0.12213   0.34249   0.00000  Uiso   1.00
H239   H     0.81074   0.06134   0.31134   0.00000  Uiso   1.00
H240   H     0.78181   0.06324   0.26544   0.00000  Uiso   1.00
H241   H     0.77496   0.19223   0.10832   0.00000  Uiso   1.00
H242   H     0.74651   0.05257   0.32237   0.00000  Uiso   1.00
H243   H     0.91670   0.20139   0.16002   0.00000  Uiso   1.00
H244   H     0.91594   0.27779   0.16452   0.00000  Uiso   1.00
H245   H     0.86119   0.27303   0.20957   0.00000  Uiso   1.00
H246   H     0.86260   0.25630   0.15318   0.00000  Uiso   1.00
H247   H     0.89222   0.14039   0.39179   0.00000  Uiso   1.00
H248   H     0.97722   0.12948   0.11052   0.00000  Uiso   1.00
H249   H     0.68941   0.20390   0.38956   0.00000  Uiso   1.00
H250   H     0.93560   0.03917   0.30369   0.00000  Uiso   1.00
H251   H     0.73158   0.29320   0.19742   0.00000  Uiso   1.00
H252   H     0.86275   0.12192   0.30254   0.00000  Uiso   1.00
N253   N     0.78403   0.16668   0.24999   0.00000  Uiso   1.00
N254   N     0.89954   0.21719   0.18880   0.00000  Uiso   1.00
N255   N     0.88264   0.16666   0.25001   0.00000  Uiso   1.00
N256   N     0.99966   0.22291   0.47678   0.00000  Uiso   1.00
N257   N     0.66715   0.10990   0.02346   0.00000  Uiso   1.00
N258   N     0.85732   0.16389   0.09386   0.00000  Uiso   1.00
N259   N     0.80974   0.16824   0.40625   0.00000  Uiso   1.00
N260   N     0.92772   0.29130   0.31626   0.00000  Uiso   1.00
N261   N     0.74257   0.04353   0.18689   0.00000  Uiso   1.00
N262   N     0.76783   0.11444   0.30909   0.00000  Uiso   1.00
O263   O     0.70625   0.10655   0.25000   0.00000  Uiso   1.00
O264   O     0.96042   0.22678   0.25000   0.00000  Uiso   1.00
O265   O     0.96039   0.10654   0.25001   0.00000  Uiso   1.00
O266   O     0.70628   0.22679   0.24999   0.00000  Uiso   1.00
O267   O     0.68519   0.16668   0.31492   0.00000  Uiso   1.00
O268   O     0.98148   0.16666   0.18509   0.00000  Uiso   1.00
O269   O     0.93933   0.16667   0.31492   0.00000  Uiso   1.00
O270   O     0.72733   0.16667   0.18508   0.00000  Uiso   1.00
C271   C     0.00029   0.42081   0.24953   0.00000  Uiso   1.00
C272   C     0.03852   0.35453   0.21874   0.00000  Uiso   1.00
C273   C     0.33273   0.62381   0.25087   0.00000  Uiso   1.00
C274   C     0.00079   0.37618   0.24885   0.00000  Uiso   1.00
C275   C     0.18354   0.47510   0.27921   0.00000  Uiso   1.00
C276   C     0.14960   0.52506   0.22097   0.00000  Uiso   1.00
C277   C     0.13396   0.47454   0.27893   0.00000  Uiso   1.00
C278   C     0.19941   0.52539   0.22074   0.00000  Uiso   1.00
C279   C     0.30619   0.50077   0.33617   0.00000  Uiso   1.00
C280   C     0.02716   0.49922   0.16383   0.00000  Uiso   1.00
C281   C     0.29122   0.50587   0.38528   0.00000  Uiso   1.00
C282   C     0.33296   0.57918   0.25078   0.00000  Uiso   1.00
C283   C     0.04222   0.49396   0.11477   0.00000  Uiso   1.00
C284   C     0.30280   0.53502   0.45394   0.00000  Uiso   1.00
C285   C     0.03066   0.46455   0.04623   0.00000  Uiso   1.00
C286   C     0.32020   0.52689   0.40775   0.00000  Uiso   1.00
C287   C     0.01318   0.47296   0.09234   0.00000  Uiso   1.00
C288   C     0.24475   0.49360   0.40884   0.00000  Uiso   1.00
C289   C     0.08887   0.50587   0.09127   0.00000  Uiso   1.00
C290   C     0.22411   0.50565   0.45354   0.00000  Uiso   1.00
C291   C     0.10948   0.49365   0.04663   0.00000  Uiso   1.00
C292   C     0.25520   0.52318   0.47727   0.00000  Uiso   1.00
C293   C     0.19485   0.50976   0.04783   0.00000  Uiso   1.00
C294   C     0.07833   0.47619   0.02292   0.00000  Uiso   1.00
C295   C     0.17434   0.49846   0.47598   0.00000  Uiso   1.00
C296   C     0.15928   0.50068   0.02420   0.00000  Uiso   1.00
C297   C     0.21361   0.62140   0.30850   0.00000  Uiso   1.00
C298   C     0.11779   0.35522   0.15977   0.00000  Uiso   1.00
C299   C     0.11078   0.40402   0.30154   0.00000  Uiso   1.00
C300   C     0.21705   0.59146   0.17868   0.00000  Uiso   1.00
C301   C     0.13877   0.48932   0.45236   0.00000  Uiso   1.00
C302   C     0.23976   0.52521   0.02423   0.00000  Uiso   1.00
C303   C     0.09380   0.47404   0.47598   0.00000  Uiso   1.00
C304   C     0.29678   0.35530   0.27982   0.00000  Uiso   1.00
C305   C     0.03727   0.64457   0.22036   0.00000  Uiso   1.00
C306   C     0.29588   0.64564   0.28131   0.00000  Uiso   1.00
Cu307  Cu    0.04689   0.50001   0.25000   0.00000  Uiso   1.00
Cu308  Cu    0.28645   0.49999   0.25000   0.00000  Uiso   1.00
H309   H     0.26482   0.53420   0.04335   0.00000  Uiso   1.00
H310   H     0.13665   0.54450   0.19760   0.00000  Uiso   1.00
H311   H     0.03176   0.53940   0.47261   0.00000  Uiso   1.00
H312   H     0.00853   0.58506   0.46085   0.00000  Uiso   1.00
H313   H     0.32482   0.41451   0.03956   0.00000  Uiso   1.00
H314   H     0.30176   0.46012   0.02746   0.00000  Uiso   1.00
H315   H     0.18152   0.52272   0.11499   0.00000  Uiso   1.00
H316   H     0.16640   0.47276   0.10417   0.00000  Uiso   1.00
H317   H     0.16696   0.52630   0.39598   0.00000  Uiso   1.00
H318   H     0.15273   0.47602   0.38528   0.00000  Uiso   1.00
H319   H     0.25914   0.63613   0.34788   0.00000  Uiso   1.00
H320   H     0.06872   0.46505   0.45687   0.00000  Uiso   1.00
H321   H     0.19766   0.65266   0.30662   0.00000  Uiso   1.00
H322   H     0.18943   0.60355   0.33670   0.00000  Uiso   1.00
H323   H     0.21593   0.60471   0.27677   0.00000  Uiso   1.00
H324   H     0.06419   0.40146   0.17062   0.00000  Uiso   1.00
H325   H     0.10709   0.33517   0.13498   0.00000  Uiso   1.00
H326   H     0.13531   0.33648   0.18176   0.00000  Uiso   1.00
H327   H     0.14462   0.37813   0.14088   0.00000  Uiso   1.00
H328   H     0.09618   0.45546   0.34249   0.00000  Uiso   1.00
H329   H     0.14407   0.39468   0.31134   0.00000  Uiso   1.00
H330   H     0.11514   0.39657   0.26544   0.00000  Uiso   1.00
H331   H     0.10829   0.52556   0.10832   0.00000  Uiso   1.00
H332   H     0.07985   0.38590   0.32237   0.00000  Uiso   1.00
H333   H     0.25003   0.53473   0.16002   0.00000  Uiso   1.00
H334   H     0.24927   0.61113   0.16452   0.00000  Uiso   1.00
H335   H     0.19453   0.60637   0.20957   0.00000  Uiso   1.00
H336   H     0.19593   0.58963   0.15318   0.00000  Uiso   1.00
H337   H     0.22556   0.47372   0.39179   0.00000  Uiso   1.00
H338   H     0.31056   0.46281   0.11052   0.00000  Uiso   1.00
H339   H     0.02274   0.53723   0.38956   0.00000  Uiso   1.00
H340   H     0.26894   0.37250   0.30369   0.00000  Uiso   1.00
H341   H     0.06492   0.62654   0.19742   0.00000  Uiso   1.00
H342   H     0.19608   0.45526   0.30254   0.00000  Uiso   1.00
N343   N     0.11736   0.50001   0.24999   0.00000  Uiso   1.00
N344   N     0.23287   0.55053   0.18880   0.00000  Uiso   1.00
N345   N     0.21597   0.49999   0.25001   0.00000  Uiso   1.00
N346   N     0.33299   0.55624   0.47678   0.00000  Uiso   1.00
N347   N     0.00048   0.44323   0.02346   0.00000  Uiso   1.00
N348   N     0.19066   0.49722   0.09386   0.00000  Uiso   1.00
N349   N     0.14307   0.50158   0.40625   0.00000  Uiso   1.00
N350   N     0.26106   0.62464   0.31626   0.00000  Uiso   1.00
N351   N     0.07590   0.37687   0.18689   0.00000  Uiso   1.00
N352   N     0.10117   0.44777   0.30909   0.00000  Uiso   1.00
O353   O     0.03958   0.43989   0.25000   0.00000  Uiso   1.00
O354   O     0.29375   0.56011   0.25000   0.00000  Uiso   1.00
O355   O     0.29372   0.43988   0.25001   0.00000  Uiso   1.00
O356   O     0.03961   0.56012   0.24999   0.00000  Uiso   1.00
O357   O     0.01852   0.50001   0.31492   0.00000  Uiso   1.00
O358   O     0.31481   0.49999   0.18509   0.00000  Uiso   1.00
O359   O     0.27267   0.50000   0.31492   0.00000  Uiso   1.00
O360   O     0.06067   0.50000   0.18508   0.00000  Uiso   1.00
C361   C     0.33362   0.42081   0.24953   0.00000  Uiso   1.00
C362   C     0.37185   0.35453   0.21874   0.00000  Uiso   1.00
C363   C     0.66607   0.62381   0.25087   0.00000  Uiso   1.00
C364   C     0.33412   0.37618   0.24885   0.00000  Uiso   1.00
C365   C     0.51688   0.47510   0.27921   0.00000  Uiso   1.00
C366   C     0.48293   0.52506   0.22097   0.00000  Uiso   1.00
C367   C     0.46730   0.47454   0.27893   0.00000  Uiso   1.00
C368   C     0.53274   0.52539   0.22074   0.00000  Uiso   1.00
C369   C     0.63953   0.50077   0.33617   0.00000  Uiso   1.00
C370   C     0.36049   0.49922   0.16383   0.00000  Uiso   1.00
C371   C     0.62456   0.50587   0.38528   0.00000  Uiso   1.00
C372   C     0.66630   0.57918   0.25078   0.00000  Uiso   1.00
C373   C     0.37555   0.49396   0.11477   0.00000  Uiso   1.00
C374   C     0.63613   0.53502   0.45394   0.00000  Uiso   1.00
C375   C     0.36400   0.46455   0.04623   0.00000  Uiso   1.00
C376   C     0.65353   0.52689   0.40775   0.00000  Uiso   1.00
C377   C     0.34652   0.47296   0.09234   0.00000  Uiso   1.00
C378   C     0.57808   0.49360   0.40884   0.00000  Uiso   1.00
C379   C     0.42221   0.50587   0.09127   0.00000  Uiso   1.00
C380   C     0.55744   0.50565   0.45354   0.00000  Uiso   1.00
C381   C     0.44282   0.49365   0.04663   0.00000  Uiso   1.00
C382   C     0.58854   0.52318   0.47727   0.00000  Uiso   1.00
C383   C     0.52819   0.50976   0.04783   0.00000  Uiso   1.00
C384   C     0.41166   0.47619   0.02292   0.00000  Uiso   1.00
C385   C     0.50768   0.49846   0.47598   0.00000  Uiso   1.00
C386   C     0.49262   0.50068   0.02420   0.00000  Uiso   1.00
C387   C     0.54694   0.62140   0.30850   0.00000  Uiso   1.00
C388   C     0.45112   0.35522   0.15977   0.00000  Uiso   1.00
C389   C     0.44412   0.40402   0.30154   0.00000  Uiso   1.00
C390   C     0.55038   0.59146   0.17868   0.00000  Uiso   1.00
C391   C     0.47210   0.48932   0.45236   0.00000  Uiso   1.00
C392   C     0.57309   0.52521   0.02423   0.00000  Uiso   1.00
C393   C     0.42714   0.47404   0.47598   0.00000  Uiso   1.00
C394   C     0.63011   0.35530   0.27982   0.00000  Uiso   1.00
C395   C     0.37060   0.64457   0.22036   0.00000  Uiso   1.00
C396   C     0.62921   0.64564   0.28131   0.00000  Uiso   1.00
Cu397  Cu    0.38022   0.50001   0.25000   0.00000  Uiso   1.00
Cu398  Cu    0.61978   0.49999   0.25000   0.00000  Uiso   1.00
H399   H     0.59816   0.53420   0.04335   0.00000  Uiso   1.00
H400   H     0.46999   0.54450   0.19760   0.00000  Uiso   1.00
H401   H     0.36510   0.53940   0.47261   0.00000  Uiso   1.00
H402   H     0.34187   0.58506   0.46085   0.00000  Uiso   1.00
H403   H     0.65816   0.41451   0.03956   0.00000  Uiso   1.00
H404   H     0.63510   0.46012   0.02746   0.00000  Uiso   1.00
H405   H     0.51485   0.52272   0.11499   0.00000  Uiso   1.00
H406   H     0.49973   0.47276   0.10417   0.00000  Uiso   1.00
H407   H     0.50030   0.52630   0.39598   0.00000  Uiso   1.00
H408   H     0.48606   0.47602   0.38528   0.00000  Uiso   1.00
H409   H     0.59247   0.63613   0.34788   0.00000  Uiso   1.00
H410   H     0.40205   0.46505   0.45687   0.00000  Uiso   1.00
H411   H     0.53099   0.65266   0.30662   0.00000  Uiso   1.00
H412   H     0.52277   0.60355   0.33670   0.00000  Uiso   1.00
H413   H     0.54926   0.60471   0.27677   0.00000  Uiso   1.00
H414   H     0.39752   0.40146   0.17062   0.00000  Uiso   1.00
H415   H     0.44042   0.33517   0.13498   0.00000  Uiso   1.00
H416   H     0.46864   0.33648   0.18176   0.00000  Uiso   1.00
H417   H     0.47795   0.37813   0.14088   0.00000  Uiso   1.00
H418   H     0.42951   0.45546   0.34249   0.00000  Uiso   1.00
H419   H     0.47741   0.39468   0.31134   0.00000  Uiso   1.00
H420   H     0.44847   0.39657   0.26544   0.00000  Uiso   1.00
H421   H     0.44163   0.52556   0.10832   0.00000  Uiso   1.00
H422   H     0.41318   0.38590   0.32237   0.00000  Uiso   1.00
H423   H     0.58337   0.53473   0.16002   0.00000  Uiso   1.00
H424   H     0.58260   0.61113   0.16452   0.00000  Uiso   1.00
H425   H     0.52786   0.60637   0.20957   0.00000  Uiso   1.00
H426   H     0.52926   0.58963   0.15318   0.00000  Uiso   1.00
H427   H     0.55889   0.47372   0.39179   0.00000  Uiso   1.00
H428   H     0.64389   0.46281   0.11052   0.00000  Uiso   1.00
H429   H     0.35607   0.53723   0.38956   0.00000  Uiso   1.00
H430   H     0.60227   0.37250   0.30369   0.00000  Uiso   1.00
H431   H     0.39825   0.62654   0.19742   0.00000  Uiso   1.00
H432   H     0.52942   0.45526   0.30254   0.00000  Uiso   1.00
N433   N     0.45069   0.50001   0.24999   0.00000  Uiso   1.00
N434   N     0.56621   0.55053   0.18880   0.00000  Uiso   1.00
N435   N     0.54931   0.49999   0.25001   0.00000  Uiso   1.00
N436   N     0.66632   0.55624   0.47678   0.00000  Uiso   1.00
N437   N     0.33381   0.44323   0.02346   0.00000  Uiso   1.00
N438   N     0.52399   0.49722   0.09386   0.00000  Uiso   1.00
N439   N     0.47641   0.50158   0.40625   0.00000  Uiso   1.00
N440   N     0.59439   0.62464   0.31626   0.00000  Uiso   1.00
N441   N     0.40923   0.37687   0.18689   0.00000  Uiso   1.00
N442   N     0.43450   0.44777   0.30909   0.00000  Uiso   1.00
O443   O     0.37291   0.43989   0.25000   0.00000  Uiso   1.00
O444   O     0.62709   0.56011   0.25000   0.00000  Uiso   1.00
O445   O     0.62706   0.43988   0.25001   0.00000  Uiso   1.00
O446   O     0.37294   0.56012   0.24999   0.00000  Uiso   1.00
O447   O     0.35186   0.50001   0.31492   0.00000  Uiso   1.00
O448   O     0.64814   0.49999   0.18509   0.00000  Uiso   1.00
O449   O     0.60600   0.50000   0.31492   0.00000  Uiso   1.00
O450   O     0.39400   0.50000   0.18508   0.00000  Uiso   1.00
C451   C     0.66696   0.42081   0.24953   0.00000  Uiso   1.00
C452   C     0.70518   0.35453   0.21874   0.00000  Uiso   1.00
C453   C     0.99940   0.62381   0.25087   0.00000  Uiso   1.00
C454   C     0.66745   0.37618   0.24885   0.00000  Uiso   1.00
C455   C     0.85021   0.47510   0.27921   0.00000  Uiso   1.00
C456   C     0.81626   0.52506   0.22097   0.00000  Uiso   1.00
C457   C     0.80063   0.47454   0.27893   0.00000  Uiso   1.00
C458   C     0.86608   0.52539   0.22074   0.00000  Uiso   1.00
C459   C     0.97286   0.50077   0.33617   0.00000  Uiso   1.00
C460   C     0.69382   0.49922   0.16383   0.00000  Uiso   1.00
C461   C     0.95789   0.50587   0.38528   0.00000  Uiso   1.00
C462   C     0.99963   0.57918   0.25078   0.00000  Uiso   1.00
C463   C     0.70888   0.49396   0.11477   0.00000  Uiso   1.00
C464   C     0.96946   0.53502   0.45394   0.00000  Uiso   1.00
C465   C     0.69733   0.46455   0.04623   0.00000  Uiso   1.00
C466   C     0.98687   0.52689   0.40775   0.00000  Uiso   1.00
C467   C     0.67985   0.47296   0.09234   0.00000  Uiso   1.00
C468   C     0.91142   0.49360   0.40884   0.00000  Uiso   1.00
C469   C     0.75554   0.50587   0.09127   0.00000  Uiso   1.00
C470   C     0.89078   0.50565   0.45354   0.00000  Uiso   1.00
C471   C     0.77615   0.49365   0.04663   0.00000  Uiso   1.00
C472   C     0.92187   0.52318   0.47727   0.00000  Uiso   1.00
C473   C     0.86152   0.50976   0.04783   0.00000  Uiso   1.00
C474   C     0.74500   0.47619   0.02292   0.00000  Uiso   1.00
C475   C     0.84101   0.49846   0.47598   0.00000  Uiso   1.00
C476   C     0.82595   0.50068   0.02420   0.00000  Uiso   1.00
C477   C     0.88027   0.62140   0.30850   0.00000  Uiso   1.00
C478   C     0.78445   0.35522   0.15977   0.00000  Uiso   1.00
C479   C     0.77745   0.40402   0.30154   0.00000  Uiso   1.00
C480   C     0.88372   0.59146   0.17868   0.00000  Uiso   1.00
C481   C     0.80544   0.48932   0.45236   0.00000  Uiso   1.00
C482   C     0.90642   0.52521   0.02423   0.00000  Uiso   1.00
C483   C     0.76047   0.47404   0.47598   0.00000  Uiso   1.00
C484   C     0.96345   0.35530   0.27982   0.00000  Uiso   1.00
C485   C     0.70394   0.64457   0.22036   0.00000  Uiso   1.00
C486   C     0.96255   0.64564   0.28131   0.00000  Uiso   1.00
Cu487  Cu    0.71355   0.50001   0.25000   0.00000  Uiso   1.00
Cu488  Cu    0.95311   0.49999   0.25000   0.00000  Uiso   1.00
H489   H     0.93149   0.53420   0.04335   0.00000  Uiso   1.00
H490   H     0.80332   0.54450   0.19760   0.00000  Uiso   1.00
H491   H     0.69843   0.53940   0.47261   0.00000  Uiso   1.00
H492   H     0.67520   0.58506   0.46085   0.00000  Uiso   1.00
H493   H     0.99149   0.41451   0.03956   0.00000  Uiso   1.00
H494   H     0.96843   0.46012   0.02746   0.00000  Uiso   1.00
H495   H     0.84819   0.52272   0.11499   0.00000  Uiso   1.00
H496   H     0.83307   0.47276   0.10417   0.00000  Uiso   1.00
H497   H     0.83363   0.52630   0.39598   0.00000  Uiso   1.00
H498   H     0.81940   0.47602   0.38528   0.00000  Uiso   1.00
H499   H     0.92581   0.63613   0.34788   0.00000  Uiso   1.00
H500   H     0.73539   0.46505   0.45687   0.00000  Uiso   1.00
H501   H     0.86432   0.65266   0.30662   0.00000  Uiso   1.00
H502   H     0.85610   0.60355   0.33670   0.00000  Uiso   1.00
H503   H     0.88260   0.60471   0.27677   0.00000  Uiso   1.00
H504   H     0.73085   0.40146   0.17062   0.00000  Uiso   1.00
H505   H     0.77375   0.33517   0.13498   0.00000  Uiso   1.00
H506   H     0.80197   0.33648   0.18176   0.00000  Uiso   1.00
H507   H     0.81129   0.37813   0.14088   0.00000  Uiso   1.00
H508   H     0.76284   0.45546   0.34249   0.00000  Uiso   1.00
H509   H     0.81074   0.39468   0.31134   0.00000  Uiso   1.00
H510   H     0.78181   0.39657   0.26544   0.00000  Uiso   1.00
H511   H     0.77496   0.52556   0.10832   0.00000  Uiso   1.00
H512   H     0.74651   0.38590   0.32237   0.00000  Uiso   1.00
H513   H     0.91670   0.53473   0.16002   0.00000  Uiso   1.00
H514   H     0.91594   0.61113   0.16452   0.00000  Uiso   1.00
H515   H     0.86119   0.60637   0.20957   0.00000  Uiso   1.00
H516   H     0.86260   0.58963   0.15318   0.00000  Uiso   1.00
H517   H     0.89222   0.47372   0.39179   0.00000  Uiso   1.00
H518   H     0.97722   0.46281   0.11052   0.00000  Uiso   1.00
H519   H     0.68941   0.53723   0.38956   0.00000  Uiso   1.00
H520   H     0.93560   0.37250   0.30369   0.00000  Uiso   1.00
H521   H     0.73158   0.62654   0.19742   0.00000  Uiso   1.00
H522   H     0.86275   0.45526   0.30254   0.00000  Uiso   1.00
N523   N     0.78403   0.50001   0.24999   0.00000  Uiso   1.00
N524   N     0.89954   0.55053   0.18880   0.00000  Uiso   1.00
N525   N     0.88264   0.49999   0.25001   0.00000  Uiso   1.00
N526   N     0.99966   0.55624   0.47678   0.00000  Uiso   1.00
N527   N     0.66715   0.44323   0.02346   0.00000  Uiso   1.00
N528   N     0.85732   0.49722   0.09386   0.00000  Uiso   1.00
N529   N     0.80974   0.50158   0.40625   0.00000  Uiso   1.00
N530   N     0.92772   0.62464   0.31626   0.00000  Uiso   1.00
N531   N     0.74257   0.37687   0.18689   0.00000  Uiso   1.00
N532   N     0.76783   0.44777   0.30909   0.00000  Uiso   1.00
O533   O     0.70625   0.43989   0.25000   0.00000  Uiso   1.00
O534   O     0.96042   0.56011   0.25000   0.00000  Uiso   1.00
O535   O     0.96039   0.43988   0.25001   0.00000  Uiso   1.00
O536   O     0.70628   0.56012   0.24999   0.00000  Uiso   1.00
O537   O     0.68519   0.50001   0.31492   0.00000  Uiso   1.00
O538   O     0.98148   0.49999   0.18509   0.00000  Uiso   1.00
O539   O     0.93933   0.50000   0.31492   0.00000  Uiso   1.00
O540   O     0.72733   0.50000   0.18508   0.00000  Uiso   1.00
C541   C     0.00029   0.75414   0.24953   0.00000  Uiso   1.00
C542   C     0.03852   0.68787   0.21874   0.00000  Uiso   1.00
C543   C     0.33273   0.95714   0.25087   0.00000  Uiso   1.00
C544   C     0.00079   0.70951   0.24885   0.00000  Uiso   1.00
C545   C     0.18354   0.80844   0.27921   0.00000  Uiso   1.00
C546   C     0.14960   0.85839   0.22097   0.00000  Uiso   1.00
C547   C     0.13396   0.80788   0.27893   0.00000  Uiso   1.00
C548   C     0.19941   0.85872   0.22074   0.00000  Uiso   1.00
C549   C     0.30619   0.83410   0.33617   0.00000  Uiso   1.00
C550   C     0.02716   0.83255   0.16383   0.00000  Uiso   1.00
C551   C     0.29122   0.83920   0.38528   0.00000  Uiso   1.00
C552   C     0.33296   0.91252   0.25078   0.00000  Uiso   1.00
C553   C     0.04222   0.82729   0.11477   0.00000  Uiso   1.00
C554   C     0.30280   0.86836   0.45394   0.00000  Uiso   1.00
C555   C     0.03066   0.79788   0.04623   0.00000  Uiso   1.00
C556   C     0.32020   0.86023   0.40775   0.00000  Uiso   1.00
C557   C     0.01318   0.80629   0.09234   0.00000  Uiso   1.00
C558   C     0.24475   0.82693   0.40884   0.00000  Uiso   1.00
C559   C     0.08887   0.83920   0.09127   0.00000  Uiso   1.00
C560   C     0.22411   0.83898   0.45354   0.00000  Uiso   1.00
C561   C     0.10948   0.82698   0.04663   0.00000  Uiso   1.00
C562   C     0.25520   0.85651   0.47727   0.00000  Uiso   1.00
C563   C     0.19485   0.84310   0.04783   0.00000  Uiso   1.00
C564   C     0.07833   0.80953   0.02292   0.00000  Uiso   1.00
C565   C     0.17434   0.83179   0.47598   0.00000  Uiso   1.00
C566   C     0.15928   0.83401   0.02420   0.00000  Uiso   1.00
C567   C     0.21361   0.95473   0.30850   0.00000  Uiso   1.00
C568   C     0.11779   0.68856   0.15977   0.00000  Uiso   1.00
C569   C     0.11078   0.73735   0.30154   0.00000  Uiso   1.00
C570   C     0.21705   0.92480   0.17868   0.00000  Uiso   1.00
C571   C     0.13877   0.82266   0.45236   0.00000  Uiso   1.00
C572   C     0.23976   0.85854   0.02423   0.00000  Uiso   1.00
C573   C     0.09380   0.80737   0.47598   0.00000  Uiso   1.00
C574   C     0.29678   0.68864   0.27982   0.00000  Uiso   1.00
C575   C     0.03727   0.97790   0.22036   0.00000  Uiso   1.00
C576   C     0.29588   0.97898   0.28131   0.00000  Uiso   1.00
Cu577  Cu    0.04689   0.83334   0.25000   0.00000  Uiso   1.00
Cu578  Cu    0.28645   0.83333   0.25000   0.00000  Uiso   1.00
H579   H     0.26482   0.86754   0.04335   0.00000  Uiso   1.00
H580   H     0.13665   0.87783   0.19760   0.00000  Uiso   1.00
H581   H     0.03176   0.87273   0.47261   0.00000  Uiso   1.00
H582   H     0.00853   0.91839   0.46085   0.00000  Uiso   1.00
H583   H     0.32482   0.74784   0.03956   0.00000  Uiso   1.00
H584   H     0.30176   0.79345   0.02746   0.00000  Uiso   1.00
H585   H     0.18152   0.85606   0.11499   0.00000  Uiso   1.00
H586   H     0.16640   0.80609   0.10417   0.00000  Uiso   1.00
H587   H     0.16696   0.85963   0.39598   0.00000  Uiso   1.00
H588   H     0.15273   0.80935   0.38528   0.00000  Uiso   1.00
H589   H     0.25914   0.96946   0.34788   0.00000  Uiso   1.00
H590   H     0.06872   0.79839   0.45687   0.00000  Uiso   1.00
H591   H     0.19766   0.98600   0.30662   0.00000  Uiso   1.00
H592   H     0.18943   0.93689   0.33670   0.00000  Uiso   1.00
H593   H     0.21593   0.93804   0.27677   0.00000  Uiso   1.00
H594   H     0.06419   0.73480   0.17062   0.00000  Uiso   1.00
H595   H     0.10709   0.66850   0.13498   0.00000  Uiso   1.00
H596   H     0.13531   0.66982   0.18176   0.00000  Uiso   1.00
H597   H     0.14462   0.71146   0.14088   0.00000  Uiso   1.00
H598   H     0.09618   0.78879   0.34249   0.00000  Uiso   1.00
H599   H     0.14407   0.72801   0.31134   0.00000  Uiso   1.00
H600   H     0.11514   0.72990   0.26544   0.00000  Uiso   1.00
H601   H     0.10829   0.85889   0.10832   0.00000  Uiso   1.00
H602   H     0.07985   0.71923   0.32237   0.00000  Uiso   1.00
H603   H     0.25003   0.86806   0.16002   0.00000  Uiso   1.00
H604   H     0.24927   0.94446   0.16452   0.00000  Uiso   1.00
H605   H     0.19453   0.93970   0.20957   0.00000  Uiso   1.00
H606   H     0.19593   0.92296   0.15318   0.00000  Uiso   1.00
H607   H     0.22556   0.80706   0.39179   0.00000  Uiso   1.00
H608   H     0.31056   0.79615   0.11052   0.00000  Uiso   1.00
H609   H     0.02274   0.87056   0.38956   0.00000  Uiso   1.00
H610   H     0.26894   0.70583   0.30369   0.00000  Uiso   1.00
H611   H     0.06492   0.95987   0.19742   0.00000  Uiso   1.00
H612   H     0.19608   0.78859   0.30254   0.00000  Uiso   1.00
N613   N     0.11736   0.83334   0.24999   0.00000  Uiso   1.00
N614   N     0.23287   0.88386   0.18880   0.00000  Uiso   1.00
N615   N     0.21597   0.83332   0.25001   0.00000  Uiso   1.00
N616   N     0.33299   0.88957   0.47678   0.00000  Uiso   1.00
N617   N     0.00048   0.77657   0.02346   0.00000  Uiso   1.00
N618   N     0.19066   0.83056   0.09386   0.00000  Uiso   1.00
N619   N     0.14307   0.83491   0.40625   0.00000  Uiso   1.00
N620   N     0.26106   0.95797   0.31626   0.00000  Uiso   1.00
N621   N     0.07590   0.71020   0.18689   0.00000  Uiso   1.00
N622   N     0.10117   0.78111   0.30909   0.00000  Uiso   1.00
O623   O     0.03958   0.77322   0.25000   0.00000  Uiso   1.00
O624   O     0.29375   0.89345   0.25000   0.00000  Uiso   1.00
O625   O     0.29372   0.77321   0.25001   0.00000  Uiso   1.00
O626   O     0.03961   0.89346   0.24999   0.00000  Uiso   1.00
O627   O     0.01852   0.83334   0.31492   0.00000  Uiso   1.00
O628   O     0.31481   0.83332   0.18509   0.00000  Uiso   1.00
O629   O     0.27267   0.83333   0.31492   0.00000  Uiso   1.00
O630   O     0.06067   0.83333   0.18508   0.00000  Uiso   1.00
C631   C     0.33362   0.75414   0.24953   0.00000  Uiso   1.00
C632   C     0.37185   0.68787   0.21874   0.00000  Uiso   1.00
C633   C     0.66607   0.95714   0.25087   0.00000  Uiso   1.00
C634   C     0.33412   0.70951   0.24885   0.00000  Uiso   1.00
C635   C     0.51688   0.80844   0.27921   0.00000  Uiso   1.00
C636   C     0.48293   0.85839   0.22097   0.00000  Uiso   1.00
C637   C     0.46730   0.80788   0.27893   0.00000  Uiso   1.00
C638   C     0.53274   0.85872   0.22074   0.00000  Uiso   1.00
C639   C     0.63953   0.83410   0.33617   0.00000  Uiso   1.00
C640   C     0.36049   0.83255   0.16383   0.00000  Uiso   1.00
C641   C     0.62456   0.83920   0.38528   0.00000  Uiso   1.00
C642   C     0.66630   0.91252   0.25078   0.00000  Uiso   1.00
C643   C     0.37555   0.82729   0.11477   0.00000  Uiso   1.00
C644   C     0.63613   0.86836   0.45394   0.00000  Uiso   1.00
C645   C     0.36400   0.79788   0.04623   0.00000  Uiso   1.00
C646   C     0.65353   0.86023   0.40775   0.00000  Uiso   1.00
C647   C     0.34652   0.80629   0.09234   0.00000  Uiso   1.00
C648   C     0.57808   0.82693   0.40884   0.00000  Uiso   1.00
C649   C     0.42221   0.83920   0.09127   0.00000  Uiso   1.00
C650   C     0.55744   0.83898   0.45354   0.00000  Uiso   1.00
C651   C     0.44282   0.82698   0.04663   0.00000  Uiso   1.00
C652   C     0.58854   0.85651   0.47727   0.00000  Uiso   1.00
C653   C     0.52819   0.84310   0.04783   0.00000  Uiso   1.00
C654   C     0.41166   0.80953   0.02292   0.00000  Uiso   1.00
C655   C     0.50768   0.83179   0.47598   0.00000  Uiso   1.00
C656   C     0.49262   0.83401   0.02420   0.00000  Uiso   1.00
C657   C     0.54694   0.95473   0.30850   0.00000  Uiso   1.00
C658   C     0.45112   0.68856   0.15977   0.00000  Uiso   1.00
C659   C     0.44412   0.73735   0.30154   0.00000  Uiso   1.00
C660   C     0.55038   0.92480   0.17868   0.00000  Uiso   1.00
C661   C     0.47210   0.82266   0.45236   0.00000  Uiso   1.00
C662   C     0.57309   0.85854   0.02423   0.00000  Uiso   1.00
C663   C     0.42714   0.80737   0.47598   0.00000  Uiso   1.00
C664   C     0.63011   0.68864   0.27982   0.00000  Uiso   1.00
C665   C     0.37060   0.97790   0.22036   0.00000  Uiso   1.00
C666   C     0.62921   0.97898   0.28131   0.00000  Uiso   1.00
Cu667  Cu    0.38022   0.83334   0.25000   0.00000  Uiso   1.00
Cu668  Cu    0.61978   0.83333   0.25000   0.00000  Uiso   1.00
H669   H     0.59816   0.86754   0.04335   0.00000  Uiso   1.00
H670   H     0.46999   0.87783   0.19760   0.00000  Uiso   1.00
H671   H     0.36510   0.87273   0.47261   0.00000  Uiso   1.00
H672   H     0.34187   0.91839   0.46085   0.00000  Uiso   1.00
H673   H     0.65816   0.74784   0.03956   0.00000  Uiso   1.00
H674   H     0.63510   0.79345   0.02746   0.00000  Uiso   1.00
H675   H     0.51485   0.85606   0.11499   0.00000  Uiso   1.00
H676   H     0.49973   0.80609   0.10417   0.00000  Uiso   1.00
H677   H     0.50030   0.85963   0.39598   0.00000  Uiso   1.00
H678   H     0.48606   0.80935   0.38528   0.00000  Uiso   1.00
H679   H     0.59247   0.96946   0.34788   0.00000  Uiso   1.00
H680   H     0.40205   0.79839   0.45687   0.00000  Uiso   1.00
H681   H     0.53099   0.98600   0.30662   0.00000  Uiso   1.00
H682   H     0.52277   0.93689   0.33670   0.00000  Uiso   1.00
H683   H     0.54926   0.93804   0.27677   0.00000  Uiso   1.00
H684   H     0.39752   0.73480   0.17062   0.00000  Uiso   1.00
H685   H     0.44042   0.66850   0.13498   0.00000  Uiso   1.00
H686   H     0.46864   0.66982   0.18176   0.00000  Uiso   1.00
H687   H     0.47795   0.71146   0.14088   0.00000  Uiso   1.00
H688   H     0.42951   0.78879   0.34249   0.00000  Uiso   1.00
H689   H     0.47741   0.72801   0.31134   0.00000  Uiso   1.00
H690   H     0.44847   0.72990   0.26544   0.00000  Uiso   1.00
H691   H     0.44163   0.85889   0.10832   0.00000  Uiso   1.00
H692   H     0.41318   0.71923   0.32237   0.00000  Uiso   1.00
H693   H     0.58337   0.86806   0.16002   0.00000  Uiso   1.00
H694   H     0.58260   0.94446   0.16452   0.00000  Uiso   1.00
H695   H     0.52786   0.93970   0.20957   0.00000  Uiso   1.00
H696   H     0.52926   0.92296   0.15318   0.00000  Uiso   1.00
H697   H     0.55889   0.80706   0.39179   0.00000  Uiso   1.00
H698   H     0.64389   0.79615   0.11052   0.00000  Uiso   1.00
H699   H     0.35607   0.87056   0.38956   0.00000  Uiso   1.00
H700   H     0.60227   0.70583   0.30369   0.00000  Uiso   1.00
H701   H     0.39825   0.95987   0.19742   0.00000  Uiso   1.00
H702   H     0.52942   0.78859   0.30254   0.00000  Uiso   1.00
N703   N     0.45069   0.83334   0.24999   0.00000  Uiso   1.00
N704   N     0.56621   0.88386   0.18880   0.00000  Uiso   1.00
N705   N     0.54931   0.83332   0.25001   0.00000  Uiso   1.00
N706   N     0.66632   0.88957   0.47678   0.00000  Uiso   1.00
N707   N     0.33381   0.77657   0.02346   0.00000  Uiso   1.00
N708   N     0.52399   0.83056   0.09386   0.00000  Uiso   1.00
N709   N     0.47641   0.83491   0.40625   0.00000  Uiso   1.00
N710   N     0.59439   0.95797   0.31626   0.00000  Uiso   1.00
N711   N     0.40923   0.71020   0.18689   0.00000  Uiso   1.00
N712   N     0.43450   0.78111   0.30909   0.00000  Uiso   1.00
O713   O     0.37291   0.77322   0.25000   0.00000  Uiso   1.00
O714   O     0.62709   0.89345   0.25000   0.00000  Uiso   1.00
O715   O     0.62706   0.77321   0.25001   0.00000  Uiso   1.00
O716   O     0.37294   0.89346   0.24999   0.00000  Uiso   1.00
O717   O     0.35186   0.83334   0.31492   0.00000  Uiso   1.00
O718   O     0.64814   0.83332   0.18509   0.00000  Uiso   1.00
O719   O     0.60600   0.83333   0.31492   0.00000  Uiso   1.00
O720   O     0.39400   0.83333   0.18508   0.00000  Uiso   1.00
C721   C     0.66696   0.75414   0.24953   0.00000  Uiso   1.00
C722   C     0.70518   0.68787   0.21874   0.00000  Uiso   1.00
C723   C     0.99940   0.95714   0.25087   0.00000  Uiso   1.00
C724   C     0.66745   0.70951   0.24885   0.00000  Uiso   1.00
C725   C     0.85021   0.80844   0.27921   0.00000  Uiso   1.00
C726   C     0.81626   0.85839   0.22097   0.00000  Uiso   1.00
C727   C     0.80063   0.80788   0.27893   0.00000  Uiso   1.00
C728   C     0.86608   0.85872   0.22074   0.00000  Uiso   1.00
C729   C     0.97286   0.83410   0.33617   0.00000  Uiso   1.00
C730   C     0.69382   0.83255   0.16383   0.00000  Uiso   1.00
C731   C     0.95789   0.83920   0.38528   0.00000  Uiso   1.00
C732   C     0.99963   0.91252   0.25078   0.00000  Uiso   1.00
C733   C     0.70888   0.82729   0.11477   0.00000  Uiso   1.00
C734   C     0.96946   0.86836   0.45394   0.00000  Uiso   1.00
C735   C     0.69733   0.79788   0.04623   0.00000  Uiso   1.00
C736   C     0.98687   0.86023   0.40775   0.00000  Uiso   1.00
C737   C     0.67985   0.80629   0.09234   0.00000  Uiso   1.00
C738   C     0.91142   0.82693   0.40884   0.00000  Uiso   1.00
C739   C     0.75554   0.83920   0.09127   0.00000  Uiso   1.00
C740   C     0.89078   0.83898   0.45354   0.00000  Uiso   1.00
C741   C     0.77615   0.82698   0.04663   0.00000  Uiso   1.00
C742   C     0.92187   0.85651   0.47727   0.00000  Uiso   1.00
C743   C     0.86152   0.84310   0.04783   0.00000  Uiso   1.00
C744   C     0.74500   0.80953   0.02292   0.00000  Uiso   1.00
C745   C     0.84101   0.83179   0.47598   0.00000  Uiso   1.00
C746   C     0.82595   0.83401   0.02420   0.00000  Uiso   1.00
C747   C     0.88027   0.95473   0.30850   0.00000  Uiso   1.00
C748   C     0.78445   0.68856   0.15977   0.00000  Uiso   1.00
C749   C     0.77745   0.73735   0.30154   0.00000  Uiso   1.00
C750   C     0.88372   0.92480   0.17868   0.00000  Uiso   1.00
C751   C     0.80544   0.82266   0.45236   0.00000  Uiso   1.00
C752   C     0.90642   0.85854   0.02423   0.00000  Uiso   1.00
C753   C     0.76047   0.80737   0.47598   0.00000  Uiso   1.00
C754   C     0.96345   0.68864   0.27982   0.00000  Uiso   1.00
C755   C     0.70394   0.97790   0.22036   0.00000  Uiso   1.00
C756   C     0.96255   0.97898   0.28131   0.00000  Uiso   1.00
Cu757  Cu    0.71355   0.83334   0.25000   0.00000  Uiso   1.00
Cu758  Cu    0.95311   0.83333   0.25000   0.00000  Uiso   1.00
H759   H     0.93149   0.86754   0.04335   0.00000  Uiso   1.00
H760   H     0.80332   0.87783   0.19760   0.00000  Uiso   1.00
H761   H     0.69843   0.87273   0.47261   0.00000  Uiso   1.00
H762   H     0.67520   0.91839   0.46085   0.00000  Uiso   1.00
H763   H     0.99149   0.74784   0.03956   0.00000  Uiso   1.00
H764   H     0.96843   0.79345   0.02746   0.00000  Uiso   1.00
H765   H     0.84819   0.85606   0.11499   0.00000  Uiso   1.00
H766   H     0.83307   0.80609   0.10417   0.00000  Uiso   1.00
H767   H     0.83363   0.85963   0.39598   0.00000  Uiso   1.00
H768   H     0.81940   0.80935   0.38528   0.00000  Uiso   1.00
H769   H     0.92581   0.96946   0.34788   0.00000  Uiso   1.00
H770   H     0.73539   0.79839   0.45687   0.00000  Uiso   1.00
H771   H     0.86432   0.98600   0.30662   0.00000  Uiso   1.00
H772   H     0.85610   0.93689   0.33670   0.00000  Uiso   1.00
H773   H     0.88260   0.93804   0.27677   0.00000  Uiso   1.00
H774   H     0.73085   0.73480   0.17062   0.00000  Uiso   1.00
H775   H     0.77375   0.66850   0.13498   0.00000  Uiso   1.00
H776   H     0.80197   0.66982   0.18176   0.00000  Uiso   1.00
H777   H     0.81129   0.71146   0.14088   0.00000  Uiso   1.00
H778   H     0.76284   0.78879   0.34249   0.00000  Uiso   1.00
H779   H     0.81074   0.72801   0.31134   0.00000  Uiso   1.00
H780   H     0.78181   0.72990   0.26544   0.00000  Uiso   1.00
H781   H     0.77496   0.85889   0.10832   0.00000  Uiso   1.00
H782   H     0.74651   0.71923   0.32237   0.00000  Uiso   1.00
H783   H     0.91670   0.86806   0.16002   0.00000  Uiso   1.00
H784   H     0.91594   0.94446   0.16452   0.00000  Uiso   1.00
H785   H     0.86119   0.93970   0.20957   0.00000  Uiso   1.00
H786   H     0.86260   0.92296   0.15318   0.00000  Uiso   1.00
H787   H     0.89222   0.80706   0.39179   0.00000  Uiso   1.00
H788   H     0.97722   0.79615   0.11052   0.00000  Uiso   1.00
H789   H     0.68941   0.87056   0.38956   0.00000  Uiso   1.00
H790   H     0.93560   0.70583   0.30369   0.00000  Uiso   1.00
H791   H     0.73158   0.95987   0.19742   0.00000  Uiso   1.00
H792   H     0.86275   0.78859   0.30254   0.00000  Uiso   1.00
N793   N     0.78403   0.83334   0.24999   0.00000  Uiso   1.00
N794   N     0.89954   0.88386   0.18880   0.00000  Uiso   1.00
N795   N     0.88264   0.83332   0.25001   0.00000  Uiso   1.00
N796   N     0.99966   0.88957   0.47678   0.00000  Uiso   1.00
N797   N     0.66715   0.77657   0.02346   0.00000  Uiso   1.00
N798   N     0.85732   0.83056   0.09386   0.00000  Uiso   1.00
N799   N     0.80974   0.83491   0.40625   0.00000  Uiso   1.00
N800   N     0.92772   0.95797   0.31626   0.00000  Uiso   1.00
N801   N     0.74257   0.71020   0.18689   0.00000  Uiso   1.00
N802   N     0.76783   0.78111   0.30909   0.00000  Uiso   1.00
O803   O     0.70625   0.77322   0.25000   0.00000  Uiso   1.00
O804   O     0.96042   0.89345   0.25000   0.00000  Uiso   1.00
O805   O     0.96039   0.77321   0.25001   0.00000  Uiso   1.00
O806   O     0.70628   0.89346   0.24999   0.00000  Uiso   1.00
O807   O     0.68519   0.83334   0.31492   0.00000  Uiso   1.00
O808   O     0.98148   0.83332   0.18509   0.00000  Uiso   1.00
O809   O     0.93933   0.83333   0.31492   0.00000  Uiso   1.00
O810   O     0.72733   0.83333   0.18508   0.00000  Uiso   1.00
C811   C     0.00029   0.08747   0.74953   0.00000  Uiso   1.00
C812   C     0.03852   0.02120   0.71874   0.00000  Uiso   1.00
C813   C     0.33273   0.29047   0.75087   0.00000  Uiso   1.00
C814   C     0.00079   0.04284   0.74885   0.00000  Uiso   1.00
C815   C     0.18354   0.14177   0.77921   0.00000  Uiso   1.00
C816   C     0.14960   0.19172   0.72097   0.00000  Uiso   1.00
C817   C     0.13396   0.14121   0.77893   0.00000  Uiso   1.00
C818   C     0.19941   0.19205   0.72074   0.00000  Uiso   1.00
C819   C     0.30619   0.16744   0.83617   0.00000  Uiso   1.00
C820   C     0.02716   0.16589   0.66383   0.00000  Uiso   1.00
C821   C     0.29122   0.17253   0.88528   0.00000  Uiso   1.00
C822   C     0.33296   0.24585   0.75078   0.00000  Uiso   1.00
C823   C     0.04222   0.16062   0.61477   0.00000  Uiso   1.00
C824   C     0.30280   0.20169   0.95394   0.00000  Uiso   1.00
C825   C     0.03066   0.13121   0.54623   0.00000  Uiso   1.00
C826   C     0.32020   0.19356   0.90775   0.00000  Uiso   1.00
C827   C     0.01318   0.13962   0.59234   0.00000  Uiso   1.00
C828   C     0.24475   0.16026   0.90884   0.00000  Uiso   1.00
C829   C     0.08887   0.17253   0.59127   0.00000  Uiso   1.00
C830   C     0.22411   0.17232   0.95354   0.00000  Uiso   1.00
C831   C     0.10948   0.16031   0.54663   0.00000  Uiso   1.00
C832   C     0.25520   0.18984   0.97727   0.00000  Uiso   1.00
C833   C     0.19485   0.17643   0.54783   0.00000  Uiso   1.00
C834   C     0.07833   0.14286   0.52292   0.00000  Uiso   1.00
C835   C     0.17434   0.16513   0.97598   0.00000  Uiso   1.00
C836   C     0.15928   0.16734   0.52420   0.00000  Uiso   1.00
C837   C     0.21361   0.28806   0.80850   0.00000  Uiso   1.00
C838   C     0.11779   0.02189   0.65977   0.00000  Uiso   1.00
C839   C     0.11078   0.07068   0.80154   0.00000  Uiso   1.00
C840   C     0.21705   0.25813   0.67868   0.00000  Uiso   1.00
C841   C     0.13877   0.15599   0.95236   0.00000  Uiso   1.00
C842   C     0.23976   0.19187   0.52423   0.00000  Uiso   1.00
C843   C     0.09380   0.14070   0.97598   0.00000  Uiso   1.00
C844   C     0.29678   0.02197   0.77982   0.00000  Uiso   1.00
C845   C     0.03727   0.31124   0.72036   0.00000  Uiso   1.00
C846   C     0.29588   0.31231   0.78131   0.00000  Uiso   1.00
Cu847  Cu    0.04689   0.16667   0.75000   0.00000  Uiso   1.00
Cu848  Cu    0.28645   0.16666   0.75000   0.00000  Uiso   1.00
H849   H     0.26482   0.20087   0.54335   0.00000  Uiso   1.00
H850   H     0.13665   0.21117   0.69760   0.00000  Uiso   1.00
H851   H     0.03176   0.20606   0.97261   0.00000  Uiso   1.00
H852   H     0.00853   0.25172   0.96085   0.00000  Uiso   1.00
H853   H     0.32482   0.08117   0.53956   0.00000  Uiso   1.00
H854   H     0.30176   0.12678   0.52746   0.00000  Uiso   1.00
H855   H     0.18152   0.18939   0.61499   0.00000  Uiso   1.00
H856   H     0.16640   0.13943   0.60417   0.00000  Uiso   1.00
H857   H     0.16696   0.19296   0.89598   0.00000  Uiso   1.00
H858   H     0.15273   0.14269   0.88528   0.00000  Uiso   1.00
H859   H     0.25914   0.30280   0.84788   0.00000  Uiso   1.00
H860   H     0.06872   0.13172   0.95687   0.00000  Uiso   1.00
H861   H     0.19766   0.31933   0.80662   0.00000  Uiso   1.00
H862   H     0.18943   0.27022   0.83670   0.00000  Uiso   1.00
H863   H     0.21593   0.27138   0.77677   0.00000  Uiso   1.00
H864   H     0.06419   0.06813   0.67062   0.00000  Uiso   1.00
H865   H     0.10709   0.00183   0.63498   0.00000  Uiso   1.00
H866   H     0.13531   0.00315   0.68176   0.00000  Uiso   1.00
H867   H     0.14462   0.04479   0.64088   0.00000  Uiso   1.00
H868   H     0.09618   0.12213   0.84249   0.00000  Uiso   1.00
H869   H     0.14407   0.06134   0.81134   0.00000  Uiso   1.00
H870   H     0.11514   0.06324   0.76544   0.00000  Uiso   1.00
H871   H     0.10829   0.19223   0.60832   0.00000  Uiso   1.00
H872   H     0.07985   0.05257   0.82237   0.00000  Uiso   1.00
H873   H     0.25003   0.20139   0.66002   0.00000  Uiso   1.00
H874   H     0.24927   0.27779   0.66452   0.00000  Uiso   1.00
H875   H     0.19453   0.27303   0.70957   0.00000  Uiso   1.00
H876   H     0.19593   0.25630   0.65318   0.00000  Uiso   1.00
H877   H     0.22556   0.14039   0.89179   0.00000  Uiso   1.00
H878   H     0.31056   0.12948   0.61052   0.00000  Uiso   1.00
H879   H     0.02274   0.20390   0.88956   0.00000  Uiso   1.00
H880   H     0.26894   0.03917   0.80369   0.00000  Uiso   1.00
H881   H     0.06492   0.29320   0.69742   0.00000  Uiso   1.00
H882   H     0.19608   0.12192   0.80254   0.00000  Uiso   1.00
N883   N     0.11736   0.16668   0.74999   0.00000  Uiso   1.00
N884   N     0.23287   0.21719   0.68880   0.00000  Uiso   1.00
N885   N     0.21597   0.16666   0.75001   0.00000  Uiso   1.00
N886   N     0.33299   0.22291   0.97678   0.00000  Uiso   1.00
N887   N     0.00048   0.10990   0.52346   0.00000  Uiso   1.00
N888   N     0.19066   0.16389   0.59386   0.00000  Uiso   1.00
N889   N     0.14307   0.16824   0.90625   0.00000  Uiso   1.00
N890   N     0.26106   0.29130   0.81626   0.00000  Uiso   1.00
N891   N     0.07590   0.04353   0.68689   0.00000  Uiso   1.00
N892   N     0.10117   0.11444   0.80909   0.00000  Uiso   1.00
O893   O     0.03958   0.10655   0.75000   0.00000  Uiso   1.00
O894   O     0.29375   0.22678   0.75000   0.00000  Uiso   1.00
O895   O     0.29372   0.10654   0.75001   0.00000  Uiso   1.00
O896   O     0.03961   0.22679   0.74999   0.00000  Uiso   1.00
O897   O     0.01852   0.16668   0.81492   0.00000  Uiso   1.00
O898   O     0.31481   0.16666   0.68509   0.00000  Uiso   1.00
O899   O     0.27267   0.16667   0.81492   0.00000  Uiso   1.00
O900   O     0.06067   0.16667   0.68508   0.00000  Uiso   1.00
C901   C     0.33362   0.08747   0.74953   0.00000  Uiso   1.00
C902   C     0.37185   0.02120   0.71874   0.00000  Uiso   1.00
C903   C     0.66607   0.29047   0.75087   0.00000  Uiso   1.00
C904   C     0.33412   0.04284   0.74885   0.00000  Uiso   1.00
C905   C     0.51688   0.14177   0.77921   0.00000  Uiso   1.00
C906   C     0.48293   0.19172   0.72097   0.00000  Uiso   1.00
C907   C     0.46730   0.14121   0.77893   0.00000  Uiso   1.00
C908   C     0.53274   0.19205   0.72074   0.00000  Uiso   1.00
C909   C     0.63953   0.16744   0.83617   0.00000  Uiso   1.00
C910   C     0.36049   0.16589   0.66383   0.00000  Uiso   1.00
C911   C     0.62456   0.17253   0.88528   0.00000  Uiso   1.00
C912   C     0.66630   0.24585   0.75078   0.00000  Uiso   1.00
C913   C     0.37555   0.16062   0.61477   0.00000  Uiso   1.00
C914   C     0.63613   0.20169   0.95394   0.00000  Uiso   1.00
C915   C     0.36400   0.13121   0.54623   0.00000  Uiso   1.00
C916   C     0.65353   0.19356   0.90775   0.00000  Uiso   1.00
C917   C     0.34652   0.13962   0.59234   0.00000  Uiso   1.00
C918   C     0.57808   0.16026   0.90884   0.00000  Uiso   1.00
C919   C     0.42221   0.17253   0.59127   0.00000  Uiso   1.00
C920   C     0.55744   0.17232   0.95354   0.00000  Uiso   1.00
C921   C     0.44282   0.16031   0.54663   0.00000  Uiso   1.00
C922   C     0.58854   0.18984   0.97727   0.00000  Uiso   1.00
C923   C     0.52819   0.17643   0.54783   0.00000  Uiso   1.00
C924   C     0.41166   0.14286   0.52292   0.00000  Uiso   1.00
C925   C     0.50768   0.16513   0.97598   0.00000  Uiso   1.00
C926   C     0.49262   0.16734   0.52420   0.00000  Uiso   1.00
C927   C     0.54694   0.28806   0.80850   0.00000  Uiso   1.00
C928   C     0.45112   0.02189   0.65977   0.00000  Uiso   1.00
C929   C     0.44412   0.07068   0.80154   0.00000  Uiso   1.00
C930   C     0.55038   0.25813   0.67868   0.00000  Uiso   1.00
C931   C     0.47210   0.15599   0.95236   0.00000  Uiso   1.00
C932   C     0.57309   0.19187   0.52423   0.00000  Uiso   1.00
C933   C     0.42714   0.14070   0.97598   0.00000  Uiso   1.00
C934   C     0.63011   0.02197   0.77982   0.00000  Uiso   1.00
C935   C     0.37060   0.31124   0.72036   0.00000  Uiso   1.00
C936   C     0.62921   0.31231   0.78131   0.00000  Uiso   1.00
Cu937  Cu    0.38022   0.16667   0.75000   0.00000  Uiso   1.00
Cu938  Cu    0.61978   0.16666   0.75000   0.00000  Uiso   1.00
H939   H     0.59816   0.20087   0.54335   0.00000  Uiso   1.00
H940   H     0.46999   0.21117   0.69760   0.00000  Uiso   1.00
H941   H     0.36510   0.20606   0.97261   0.00000  Uiso   1.00
H942   H     0.34187   0.25172   0.96085   0.00000  Uiso   1.00
H943   H     0.65816   0.08117   0.53956   0.00000  Uiso   1.00
H944   H     0.63510   0.12678   0.52746   0.00000  Uiso   1.00
H945   H     0.51485   0.18939   0.61499   0.00000  Uiso   1.00
H946   H     0.49973   0.13943   0.60417   0.00000  Uiso   1.00
H947   H     0.50030   0.19296   0.89598   0.00000  Uiso   1.00
H948   H     0.48606   0.14269   0.88528   0.00000  Uiso   1.00
H949   H     0.59247   0.30280   0.84788   0.00000  Uiso   1.00
H950   H     0.40205   0.13172   0.95687   0.00000  Uiso   1.00
H951   H     0.53099   0.31933   0.80662   0.00000  Uiso   1.00
H952   H     0.52277   0.27022   0.83670   0.00000  Uiso   1.00
H953   H     0.54926   0.27138   0.77677   0.00000  Uiso   1.00
H954   H     0.39752   0.06813   0.67062   0.00000  Uiso   1.00
H955   H     0.44042   0.00183   0.63498   0.00000  Uiso   1.00
H956   H     0.46864   0.00315   0.68176   0.00000  Uiso   1.00
H957   H     0.47795   0.04479   0.64088   0.00000  Uiso   1.00
H958   H     0.42951   0.12213   0.84249   0.00000  Uiso   1.00
H959   H     0.47741   0.06134   0.81134   0.00000  Uiso   1.00
H960   H     0.44847   0.06324   0.76544   0.00000  Uiso   1.00
H961   H     0.44163   0.19223   0.60832   0.00000  Uiso   1.00
H962   H     0.41318   0.05257   0.82237   0.00000  Uiso   1.00
H963   H     0.58337   0.20139   0.66002   0.00000  Uiso   1.00
H964   H     0.58260   0.27779   0.66452   0.00000  Uiso   1.00
H965   H     0.52786   0.27303   0.70957   0.00000  Uiso   1.00
H966   H     0.52926   0.25630   0.65318   0.00000  Uiso   1.00
H967   H     0.55889   0.14039   0.89179   0.00000  Uiso   1.00
H968   H     0.64389   0.12948   0.61052   0.00000  Uiso   1.00
H969   H     0.35607   0.20390   0.88956   0.00000  Uiso   1.00
H970   H     0.60227   0.03917   0.80369   0.00000  Uiso   1.00
H971   H     0.39825   0.29320   0.69742   0.00000  Uiso   1.00
H972   H     0.52942   0.12192   0.80254   0.00000  Uiso   1.00
N973   N     0.45069   0.16668   0.74999   0.00000  Uiso   1.00
N974   N     0.56621   0.21719   0.68880   0.00000  Uiso   1.00
N975   N     0.54931   0.16666   0.75001   0.00000  Uiso   1.00
N976   N     0.66632   0.22291   0.97678   0.00000  Uiso   1.00
N977   N     0.33381   0.10990   0.52346   0.00000  Uiso   1.00
N978   N     0.52399   0.16389   0.59386   0.00000  Uiso   1.00
N979   N     0.47641   0.16824   0.90625   0.00000  Uiso   1.00
N980   N     0.59439   0.29130   0.81626   0.00000  Uiso   1.00
N981   N     0.40923   0.04353   0.68689   0.00000  Uiso   1.00
N982   N     0.43450   0.11444   0.80909   0.00000  Uiso   1.00
O983   O     0.37291   0.10655   0.75000   0.00000  Uiso   1.00
O984   O     0.62709   0.22678   0.75000   0.00000  Uiso   1.00
O985   O     0.62706   0.10654   0.75001   0.00000  Uiso   1.00
O986   O     0.37294   0.22679   0.74999   0.00000  Uiso   1.00
O987   O     0.35186   0.16668   0.81492   0.00000  Uiso   1.00
O988   O     0.64814   0.16666   0.68509   0.00000  Uiso   1.00
O989   O     0.60600   0.16667   0.81492   0.00000  Uiso   1.00
O990   O     0.39400   0.16667   0.68508   0.00000  Uiso   1.00
C991   C     0.66696   0.08747   0.74953   0.00000  Uiso   1.00
C992   C     0.70518   0.02120   0.71874   0.00000  Uiso   1.00
C993   C     0.99940   0.29047   0.75087   0.00000  Uiso   1.00
C994   C     0.66745   0.04284   0.74885   0.00000  Uiso   1.00
C995   C     0.85021   0.14177   0.77921   0.00000  Uiso   1.00
C996   C     0.81626   0.19172   0.72097   0.00000  Uiso   1.00
C997   C     0.80063   0.14121   0.77893   0.00000  Uiso   1.00
C998   C     0.86608   0.19205   0.72074   0.00000  Uiso   1.00
C999   C     0.97286   0.16744   0.83617   0.00000  Uiso   1.00
C1000  C     0.69382   0.16589   0.66383   0.00000  Uiso   1.00
C1001  C     0.95789   0.17253   0.88528   0.00000  Uiso   1.00
C1002  C     0.99963   0.24585   0.75078   0.00000  Uiso   1.00
C1003  C     0.70888   0.16062   0.61477   0.00000  Uiso   1.00
C1004  C     0.96946   0.20169   0.95394   0.00000  Uiso   1.00
C1005  C     0.69733   0.13121   0.54623   0.00000  Uiso   1.00
C1006  C     0.98687   0.19356   0.90775   0.00000  Uiso   1.00
C1007  C     0.67985   0.13962   0.59234   0.00000  Uiso   1.00
C1008  C     0.91142   0.16026   0.90884   0.00000  Uiso   1.00
C1009  C     0.75554   0.17253   0.59127   0.00000  Uiso   1.00
C1010  C     0.89078   0.17232   0.95354   0.00000  Uiso   1.00
C1011  C     0.77615   0.16031   0.54663   0.00000  Uiso   1.00
C1012  C     0.92187   0.18984   0.97727   0.00000  Uiso   1.00
C1013  C     0.86152   0.17643   0.54783   0.00000  Uiso   1.00
C1014  C     0.74500   0.14286   0.52292   0.00000  Uiso   1.00
C1015  C     0.84101   0.16513   0.97598   0.00000  Uiso   1.00
C1016  C     0.82595   0.16734   0.52420   0.00000  Uiso   1.00
C1017  C     0.88027   0.28806   0.80850   0.00000  Uiso   1.00
C1018  C     0.78445   0.02189   0.65977   0.00000  Uiso   1.00
C1019  C     0.77745   0.07068   0.80154   0.00000  Uiso   1.00
C1020  C     0.88372   0.25813   0.67868   0.00000  Uiso   1.00
C1021  C     0.80544   0.15599   0.95236   0.00000  Uiso   1.00
C1022  C     0.90642   0.19187   0.52423   0.00000  Uiso   1.00
C1023  C     0.76047   0.14070   0.97598   0.00000  Uiso   1.00
C1024  C     0.96345   0.02197   0.77982   0.00000  Uiso   1.00
C1025  C     0.70394   0.31124   0.72036   0.00000  Uiso   1.00
C1026  C     0.96255   0.31231   0.78131   0.00000  Uiso   1.00
Cu1027 Cu    0.71355   0.16667   0.75000   0.00000  Uiso   1.00
Cu1028 Cu    0.95311   0.16666   0.75000   0.00000  Uiso   1.00
H1029  H     0.93149   0.20087   0.54335   0.00000  Uiso   1.00
H1030  H     0.80332   0.21117   0.69760   0.00000  Uiso   1.00
H1031  H     0.69843   0.20606   0.97261   0.00000  Uiso   1.00
H1032  H     0.67520   0.25172   0.96085   0.00000  Uiso   1.00
H1033  H     0.99149   0.08117   0.53956   0.00000  Uiso   1.00
H1034  H     0.96843   0.12678   0.52746   0.00000  Uiso   1.00
H1035  H     0.84819   0.18939   0.61499   0.00000  Uiso   1.00
H1036  H     0.83307   0.13943   0.60417   0.00000  Uiso   1.00
H1037  H     0.83363   0.19296   0.89598   0.00000  Uiso   1.00
H1038  H     0.81940   0.14269   0.88528   0.00000  Uiso   1.00
H1039  H     0.92581   0.30280   0.84788   0.00000  Uiso   1.00
H1040  H     0.73539   0.13172   0.95687   0.00000  Uiso   1.00
H1041  H     0.86432   0.31933   0.80662   0.00000  Uiso   1.00
H1042  H     0.85610   0.27022   0.83670   0.00000  Uiso   1.00
H1043  H     0.88260   0.27138   0.77677   0.00000  Uiso   1.00
H1044  H     0.73085   0.06813   0.67062   0.00000  Uiso   1.00
H1045  H     0.77375   0.00183   0.63498   0.00000  Uiso   1.00
H1046  H     0.80197   0.00315   0.68176   0.00000  Uiso   1.00
H1047  H     0.81129   0.04479   0.64088   0.00000  Uiso   1.00
H1048  H     0.76284   0.12213   0.84249   0.00000  Uiso   1.00
H1049  H     0.81074   0.06134   0.81134   0.00000  Uiso   1.00
H1050  H     0.78181   0.06324   0.76544   0.00000  Uiso   1.00
H1051  H     0.77496   0.19223   0.60832   0.00000  Uiso   1.00
H1052  H     0.74651   0.05257   0.82237   0.00000  Uiso   1.00
H1053  H     0.91670   0.20139   0.66002   0.00000  Uiso   1.00
H1054  H     0.91594   0.27779   0.66452   0.00000  Uiso   1.00
H1055  H     0.86119   0.27303   0.70957   0.00000  Uiso   1.00
H1056  H     0.86260   0.25630   0.65318   0.00000  Uiso   1.00
H1057  H     0.89222   0.14039   0.89179   0.00000  Uiso   1.00
H1058  H     0.97722   0.12948   0.61052   0.00000  Uiso   1.00
H1059  H     0.68941   0.20390   0.88956   0.00000  Uiso   1.00
H1060  H     0.93560   0.03917   0.80369   0.00000  Uiso   1.00
H1061  H     0.73158   0.29320   0.69742   0.00000  Uiso   1.00
H1062  H     0.86275   0.12192   0.80254   0.00000  Uiso   1.00
N1063  N     0.78403   0.16668   0.74999   0.00000  Uiso   1.00
N1064  N     0.89954   0.21719   0.68880   0.00000  Uiso   1.00
N1065  N     0.88264   0.16666   0.75001   0.00000  Uiso   1.00
N1066  N     0.99966   0.22291   0.97678   0.00000  Uiso   1.00
N1067  N     0.66715   0.10990   0.52346   0.00000  Uiso   1.00
N1068  N     0.85732   0.16389   0.59386   0.00000  Uiso   1.00
N1069  N     0.80974   0.16824   0.90625   0.00000  Uiso   1.00
N1070  N     0.92772   0.29130   0.81626   0.00000  Uiso   1.00
N1071  N     0.74257   0.04353   0.68689   0.00000  Uiso   1.00
N1072  N     0.76783   0.11444   0.80909   0.00000  Uiso   1.00
O1073  O     0.70625   0.10655   0.75000   0.00000  Uiso   1.00
O1074  O     0.96042   0.22678   0.75000   0.00000  Uiso   1.00
O1075  O     0.96039   0.10654   0.75001   0.00000  Uiso   1.00
O1076  O     0.70628   0.22679   0.74999   0.00000  Uiso   1.00
O1077  O     0.68519   0.16668   0.81492   0.00000  Uiso   1.00
O1078  O     0.98148   0.16666   0.68509   0.00000  Uiso   1.00
O1079  O     0.93933   0.16667   0.81492   0.00000  Uiso   1.00
O1080  O     0.72733   0.16667   0.68508   0.00000  Uiso   1.00
C1081  C     0.00029   0.42081   0.74953   0.00000  Uiso   1.00
C1082  C     0.03852   0.35453   0.71874   0.00000  Uiso   1.00
C1083  C     0.33273   0.62381   0.75087   0.00000  Uiso   1.00
C1084  C     0.00079   0.37618   0.74885   0.00000  Uiso   1.00
C1085  C     0.18354   0.47510   0.77921   0.00000  Uiso   1.00
C1086  C     0.14960   0.52506   0.72097   0.00000  Uiso   1.00
C1087  C     0.13396   0.47454   0.77893   0.00000  Uiso   1.00
C1088  C     0.19941   0.52539   0.72074   0.00000  Uiso   1.00
C1089  C     0.30619   0.50077   0.83617   0.00000  Uiso   1.00
C1090  C     0.02716   0.49922   0.66383   0.00000  Uiso   1.00
C1091  C     0.29122   0.50587   0.88528   0.00000  Uiso   1.00
C1092  C     0.33296   0.57918   0.75078   0.00000  Uiso   1.00
C1093  C     0.04222   0.49396   0.61477   0.00000  Uiso   1.00
C1094  C     0.30280   0.53502   0.95394   0.00000  Uiso   1.00
C1095  C     0.03066   0.46455   0.54623   0.00000  Uiso   1.00
C1096  C     0.32020   0.52689   0.90775   0.00000  Uiso   1.00
C1097  C     0.01318   0.47296   0.59234   0.00000  Uiso   1.00
C1098  C     0.24475   0.49360   0.90884   0.00000  Uiso   1.00
C1099  C     0.08887   0.50587   0.59127   0.00000  Uiso   1.00
C1100  C     0.22411   0.50565   0.95354   0.00000  Uiso   1.00
C1101  C     0.10948   0.49365   0.54663   0.00000  Uiso   1.00
C1102  C     0.25520   0.52318   0.97727   0.00000  Uiso   1.00
C1103  C     0.19485   0.50976   0.54783   0.00000  Uiso   1.00
C1104  C     0.07833   0.47619   0.52292   0.00000  Uiso   1.00
C1105  C     0.17434   0.49846   0.97598   0.00000  Uiso   1.00
C1106  C     0.15928   0.50068   0.52420   0.00000  Uiso   1.00
C1107  C     0.21361   0.62140   0.80850   0.00000  Uiso   1.00
C1108  C     0.11779   0.35522   0.65977   0.00000  Uiso   1.00
C1109  C     0.11078   0.40402   0.80154   0.00000  Uiso   1.00
C1110  C     0.21705   0.59146   0.67868   0.00000  Uiso   1.00
C1111  C     0.13877   0.48932   0.95236   0.00000  Uiso   1.00
C1112  C     0.23976   0.52521   0.52423   0.00000  Uiso   1.00
C1113  C     0.09380   0.47404   0.97598   0.00000  Uiso   1.00
C1114  C     0.29678   0.35530   0.77982   0.00000  Uiso   1.00
C1115  C     0.03727   0.64457   0.72036   0.00000  Uiso   1.00
C1116  C     0.29588   0.64564   0.78131   0.00000  Uiso   1.00
Cu1117 Cu    0.04689   0.50001   0.75000   0.00000  Uiso   1.00
Cu1118 Cu    0.28645   0.49999   0.75000   0.00000  Uiso   1.00
H1119  H     0.26482   0.53420   0.54335   0.00000  Uiso   1.00
H1120  H     0.13665   0.54450   0.69760   0.00000  Uiso   1.00
H1121  H     0.03176   0.53940   0.97261   0.00000  Uiso   1.00
H1122  H     0.00853   0.58506   0.96085   0.00000  Uiso   1.00
H1123  H     0.32482   0.41451   0.53956   0.00000  Uiso   1.00
H1124  H     0.30176   0.46012   0.52746   0.00000  Uiso   1.00
H1125  H     0.18152   0.52272   0.61499   0.00000  Uiso   1.00
H1126  H     0.16640   0.47276   0.60417   0.00000  Uiso   1.00
H1127  H     0.16696   0.52630   0.89598   0.00000  Uiso   1.00
H1128  H     0.15273   0.47602   0.88528   0.00000  Uiso   1.00
H1129  H     0.25914   0.63613   0.84788   0.00000  Uiso   1.00
H1130  H     0.06872   0.46505   0.95687   0.00000  Uiso   1.00
H1131  H     0.19766   0.65266   0.80662   0.00000  Uiso   1.00
H1132  H     0.18943   0.60355   0.83670   0.00000  Uiso   1.00
H1133  H     0.21593   0.60471   0.77677   0.00000  Uiso   1.00
H1134  H     0.06419   0.40146   0.67062   0.00000  Uiso   1.00
H1135  H     0.10709   0.33517   0.63498   0.00000  Uiso   1.00
H1136  H     0.13531   0.33648   0.68176   0.00000  Uiso   1.00
H1137  H     0.14462   0.37813   0.64088   0.00000  Uiso   1.00
H1138  H     0.09618   0.45546   0.84249   0.00000  Uiso   1.00
H1139  H     0.14407   0.39468   0.81134   0.00000  Uiso   1.00
H1140  H     0.11514   0.39657   0.76544   0.00000  Uiso   1.00
H1141  H     0.10829   0.52556   0.60832   0.00000  Uiso   1.00
H1142  H     0.07985   0.38590   0.82237   0.00000  Uiso   1.00
H1143  H     0.25003   0.53473   0.66002   0.00000  Uiso   1.00
H1144  H     0.24927   0.61113   0.66452   0.00000  Uiso   1.00
H1145  H     0.19453   0.60637   0.70957   0.00000  Uiso   1.00
H1146  H     0.19593   0.58963   0.65318   0.00000  Uiso   1.00
H1147  H     0.22556   0.47372   0.89179   0.00000  Uiso   1.00
H1148  H     0.31056   0.46281   0.61052   0.00000  Uiso   1.00
H1149  H     0.02274   0.53723   0.88956   0.00000  Uiso   1.00
H1150  H     0.26894   0.37250   0.80369   0.00000  Uiso   1.00
H1151  H     0.06492   0.62654   0.69742   0.00000  Uiso   1.00
H1152  H     0.19608   0.45526   0.80254   0.00000  Uiso   1.00
N1153  N     0.11736   0.50001   0.74999   0.00000  Uiso   1.00
N1154  N     0.23287   0.55053   0.68880   0.00000  Uiso   1.00
N1155  N     0.21597   0.49999   0.75001   0.00000  Uiso   1.00
N1156  N     0.33299   0.55624   0.97678   0.00000  Uiso   1.00
N1157  N     0.00048   0.44323   0.52346   0.00000  Uiso   1.00
N1158  N     0.19066   0.49722   0.59386   0.00000  Uiso   1.00
N1159  N     0.14307   0.50158   0.90625   0.00000  Uiso   1.00
N1160  N     0.26106   0.62464   0.81626   0.00000  Uiso   1.00
N1161  N     0.07590   0.37687   0.68689   0.00000  Uiso   1.00
N1162  N     0.10117   0.44777   0.80909   0.00000  Uiso   1.00
O1163  O     0.03958   0.43989   0.75000   0.00000  Uiso   1.00
O1164  O     0.29375   0.56011   0.75000   0.00000  Uiso   1.00
O1165  O     0.29372   0.43988   0.75001   0.00000  Uiso   1.00
O1166  O     0.03961   0.56012   0.74999   0.00000  Uiso   1.00
O1167  O     0.01852   0.50001   0.81492   0.00000  Uiso   1.00
O1168  O     0.31481   0.49999   0.68509   0.00000  Uiso   1.00
O1169  O     0.27267   0.50000   0.81492   0.00000  Uiso   1.00
O1170  O     0.06067   0.50000   0.68508   0.00000  Uiso   1.00
C1171  C     0.33362   0.42081   0.74953   0.00000  Uiso   1.00
C1172  C     0.37185   0.35453   0.71874   0.00000  Uiso   1.00
C1173  C     0.66607   0.62381   0.75087   0.00000  Uiso   1.00
C1174  C     0.33412   0.37618   0.74885   0.00000  Uiso   1.00
C1175  C     0.51688   0.47510   0.77921   0.00000  Uiso   1.00
C1176  C     0.48293   0.52506   0.72097   0.00000  Uiso   1.00
C1177  C     0.46730   0.47454   0.77893   0.00000  Uiso   1.00
C1178  C     0.53274   0.52539   0.72074   0.00000  Uiso   1.00
C1179  C     0.63953   0.50077   0.83617   0.00000  Uiso   1.00
C1180  C     0.36049   0.49922   0.66383   0.00000  Uiso   1.00
C1181  C     0.62456   0.50587   0.88528   0.00000  Uiso   1.00
C1182  C     0.66630   0.57918   0.75078   0.00000  Uiso   1.00
C1183  C     0.37555   0.49396   0.61477   0.00000  Uiso   1.00
C1184  C     0.63613   0.53502   0.95394   0.00000  Uiso   1.00
C1185  C     0.36400   0.46455   0.54623   0.00000  Uiso   1.00
C1186  C     0.65353   0.52689   0.90775   0.00000  Uiso   1.00
C1187  C     0.34652   0.47296   0.59234   0.00000  Uiso   1.00
C1188  C     0.57808   0.49360   0.90884   0.00000  Uiso   1.00
C1189  C     0.42221   0.50587   0.59127   0.00000  Uiso   1.00
C1190  C     0.55744   0.50565   0.95354   0.00000  Uiso   1.00
C1191  C     0.44282   0.49365   0.54663   0.00000  Uiso   1.00
C1192  C     0.58854   0.52318   0.97727   0.00000  Uiso   1.00
C1193  C     0.52819   0.50976   0.54783   0.00000  Uiso   1.00
C1194  C     0.41166   0.47619   0.52292   0.00000  Uiso   1.00
C1195  C     0.50768   0.49846   0.97598   0.00000  Uiso   1.00
C1196  C     0.49262   0.50068   0.52420   0.00000  Uiso   1.00
C1197  C     0.54694   0.62140   0.80850   0.00000  Uiso   1.00
C1198  C     0.45112   0.35522   0.65977   0.00000  Uiso   1.00
C1199  C     0.44412   0.40402   0.80154   0.00000  Uiso   1.00
C1200  C     0.55038   0.59146   0.67868   0.00000  Uiso   1.00
C1201  C     0.47210   0.48932   0.95236   0.00000  Uiso   1.00
C1202  C     0.57309   0.52521   0.52423   0.00000  Uiso   1.00
C1203  C     0.42714   0.47404   0.97598   0.00000  Uiso   1.00
C1204  C     0.63011   0.35530   0.77982   0.00000  Uiso   1.00
C1205  C     0.37060   0.64457   0.72036   0.00000  Uiso   1.00
C1206  C     0.62921   0.64564   0.78131   0.00000  Uiso   1.00
Cu1207 Cu    0.38022   0.50001   0.75000   0.00000  Uiso   1.00
Cu1208 Cu    0.61978   0.49999   0.75000   0.00000  Uiso   1.00
H1209  H     0.59816   0.53420   0.54335   0.00000  Uiso   1.00
H1210  H     0.46999   0.54450   0.69760   0.00000  Uiso   1.00
H1211  H     0.36510   0.53940   0.97261   0.00000  Uiso   1.00
H1212  H     0.34187   0.58506   0.96085   0.00000  Uiso   1.00
H1213  H     0.65816   0.41451   0.53956   0.00000  Uiso   1.00
H1214  H     0.63510   0.46012   0.52746   0.00000  Uiso   1.00
H1215  H     0.51485   0.52272   0.61499   0.00000  Uiso   1.00
H1216  H     0.49973   0.47276   0.60417   0.00000  Uiso   1.00
H1217  H     0.50030   0.52630   0.89598   0.00000  Uiso   1.00
H1218  H     0.48606   0.47602   0.88528   0.00000  Uiso   1.00
H1219  H     0.59247   0.63613   0.84788   0.00000  Uiso   1.00
H1220  H     0.40205   0.46505   0.95687   0.00000  Uiso   1.00
H1221  H     0.53099   0.65266   0.80662   0.00000  Uiso   1.00
H1222  H     0.52277   0.60355   0.83670   0.00000  Uiso   1.00
H1223  H     0.54926   0.60471   0.77677   0.00000  Uiso   1.00
H1224  H     0.39752   0.40146   0.67062   0.00000  Uiso   1.00
H1225  H     0.44042   0.33517   0.63498   0.00000  Uiso   1.00
H1226  H     0.46864   0.33648   0.68176   0.00000  Uiso   1.00
H1227  H     0.47795   0.37813   0.64088   0.00000  Uiso   1.00
H1228  H     0.42951   0.45546   0.84249   0.00000  Uiso   1.00
H1229  H     0.47741   0.39468   0.81134   0.00000  Uiso   1.00
H1230  H     0.44847   0.39657   0.76544   0.00000  Uiso   1.00
H1231  H     0.44163   0.52556   0.60832   0.00000  Uiso   1.00
H1232  H     0.41318   0.38590   0.82237   0.00000  Uiso   1.00
H1233  H     0.58337   0.53473   0.66002   0.00000  Uiso   1.00
H1234  H     0.58260   0.61113   0.66452   0.00000  Uiso   1.00
H1235  H     0.52786   0.60637   0.70957   0.00000  Uiso   1.00
H1236  H     0.52926   0.58963   0.65318   0.00000  Uiso   1.00
H1237  H     0.55889   0.47372   0.89179   0.00000  Uiso   1.00
H1238  H     0.64389   0.46281   0.61052   0.00000  Uiso   1.00
H1239  H     0.35607   0.53723   0.88956   0.00000  Uiso   1.00
H1240  H     0.60227   0.37250   0.80369   0.00000  Uiso   1.00
H1241  H     0.39825   0.62654   0.69742   0.00000  Uiso   1.00
H1242  H     0.52942   0.45526   0.80254   0.00000  Uiso   1.00
N1243  N     0.45069   0.50001   0.74999   0.00000  Uiso   1.00
N1244  N     0.56621   0.55053   0.68880   0.00000  Uiso   1.00
N1245  N     0.54931   0.49999   0.75001   0.00000  Uiso   1.00
N1246  N     0.66632   0.55624   0.97678   0.00000  Uiso   1.00
N1247  N     0.33381   0.44323   0.52346   0.00000  Uiso   1.00
N1248  N     0.52399   0.49722   0.59386   0.00000  Uiso   1.00
N1249  N     0.47641   0.50158   0.90625   0.00000  Uiso   1.00
N1250  N     0.59439   0.62464   0.81626   0.00000  Uiso   1.00
N1251  N     0.40923   0.37687   0.68689   0.00000  Uiso   1.00
N1252  N     0.43450   0.44777   0.80909   0.00000  Uiso   1.00
O1253  O     0.37291   0.43989   0.75000   0.00000  Uiso   1.00
O1254  O     0.62709   0.56011   0.75000   0.00000  Uiso   1.00
O1255  O     0.62706   0.43988   0.75001   0.00000  Uiso   1.00
O1256  O     0.37294   0.56012   0.74999   0.00000  Uiso   1.00
O1257  O     0.35186   0.50001   0.81492   0.00000  Uiso   1.00
O1258  O     0.64814   0.49999   0.68509   0.00000  Uiso   1.00
O1259  O     0.60600   0.50000   0.81492   0.00000  Uiso   1.00
O1260  O     0.39400   0.50000   0.68508   0.00000  Uiso   1.00
C1261  C     0.66696   0.42081   0.74953   0.00000  Uiso   1.00
C1262  C     0.70518   0.35453   0.71874   0.00000  Uiso   1.00
C1263  C     0.99940   0.62381   0.75087   0.00000  Uiso   1.00
C1264  C     0.66745   0.37618   0.74885   0.00000  Uiso   1.00
C1265  C     0.85021   0.47510   0.77921   0.00000  Uiso   1.00
C1266  C     0.81626   0.52506   0.72097   0.00000  Uiso   1.00
C1267  C     0.80063   0.47454   0.77893   0.00000  Uiso   1.00
C1268  C     0.86608   0.52539   0.72074   0.00000  Uiso   1.00
C1269  C     0.97286   0.50077   0.83617   0.00000  Uiso   1.00
C1270  C     0.69382   0.49922   0.66383   0.00000  Uiso   1.00
C1271  C     0.95789   0.50587   0.88528   0.00000  Uiso   1.00
C1272  C     0.99963   0.57918   0.75078   0.00000  Uiso   1.00
C1273  C     0.70888   0.49396   0.61477   0.00000  Uiso   1.00
C1274  C     0.96946   0.53502   0.95394   0.00000  Uiso   1.00
C1275  C     0.69733   0.46455   0.54623   0.00000  Uiso   1.00
C1276  C     0.98687   0.52689   0.90775   0.00000  Uiso   1.00
C1277  C     0.67985   0.47296   0.59234   0.00000  Uiso   1.00
C1278  C     0.91142   0.49360   0.90884   0.00000  Uiso   1.00
C1279  C     0.75554   0.50587   0.59127   0.00000  Uiso   1.00
C1280  C     0.89078   0.50565   0.95354   0.00000  Uiso   1.00
C1281  C     0.77615   0.49365   0.54663   0.00000  Uiso   1.00
C1282  C     0.92187   0.52318   0.97727   0.00000  Uiso   1.00
C1283  C     0.86152   0.50976   0.54783   0.00000  Uiso   1.00
C1284  C     0.74500   0.47619   0.52292   0.00000  Uiso   1.00
C1285  C     0.84101   0.49846   0.97598   0.00000  Uiso   1.00
C1286  C     0.82595   0.50068   0.52420   0.00000  Uiso   1.00
C1287  C     0.88027   0.62140   0.80850   0.00000  Uiso   1.00
C1288  C     0.78445   0.35522   0.65977   0.00000  Uiso   1.00
C1289  C     0.77745   0.40402   0.80154   0.00000  Uiso   1.00
C1290  C     0.88372   0.59146   0.67868   0.00000  Uiso   1.00
C1291  C     0.80544   0.48932   0.95236   0.00000  Uiso   1.00
C1292  C     0.90642   0.52521   0.52423   0.00000  Uiso   1.00
C1293  C     0.76047   0.47404   0.97598   0.00000  Uiso   1.00
C1294  C     0.96345   0.35530   0.77982   0.00000  Uiso   1.00
C1295  C     0.70394   0.64457   0.72036   0.00000  Uiso   1.00
C1296  C     0.96255   0.64564   0.78131   0.00000  Uiso   1.00
Cu1297 Cu    0.71355   0.50001   0.75000   0.00000  Uiso   1.00
Cu1298 Cu    0.95311   0.49999   0.75000   0.00000  Uiso   1.00
H1299  H     0.93149   0.53420   0.54335   0.00000  Uiso   1.00
H1300  H     0.80332   0.54450   0.69760   0.00000  Uiso   1.00
H1301  H     0.69843   0.53940   0.97261   0.00000  Uiso   1.00
H1302  H     0.67520   0.58506   0.96085   0.00000  Uiso   1.00
H1303  H     0.99149   0.41451   0.53956   0.00000  Uiso   1.00
H1304  H     0.96843   0.46012   0.52746   0.00000  Uiso   1.00
H1305  H     0.84819   0.52272   0.61499   0.00000  Uiso   1.00
H1306  H     0.83307   0.47276   0.60417   0.00000  Uiso   1.00
H1307  H     0.83363   0.52630   0.89598   0.00000  Uiso   1.00
H1308  H     0.81940   0.47602   0.88528   0.00000  Uiso   1.00
H1309  H     0.92581   0.63613   0.84788   0.00000  Uiso   1.00
H1310  H     0.73539   0.46505   0.95687   0.00000  Uiso   1.00
H1311  H     0.86432   0.65266   0.80662   0.00000  Uiso   1.00
H1312  H     0.85610   0.60355   0.83670   0.00000  Uiso   1.00
H1313  H     0.88260   0.60471   0.77677   0.00000  Uiso   1.00
H1314  H     0.73085   0.40146   0.67062   0.00000  Uiso   1.00
H1315  H     0.77375   0.33517   0.63498   0.00000  Uiso   1.00
H1316  H     0.80197   0.33648   0.68176   0.00000  Uiso   1.00
H1317  H     0.81129   0.37813   0.64088   0.00000  Uiso   1.00
H1318  H     0.76284   0.45546   0.84249   0.00000  Uiso   1.00
H1319  H     0.81074   0.39468   0.81134   0.00000  Uiso   1.00
H1320  H     0.78181   0.39657   0.76544   0.00000  Uiso   1.00
H1321  H     0.77496   0.52556   0.60832   0.00000  Uiso   1.00
H1322  H     0.74651   0.38590   0.82237   0.00000  Uiso   1.00
H1323  H     0.91670   0.53473   0.66002   0.00000  Uiso   1.00
H1324  H     0.91594   0.61113   0.66452   0.00000  Uiso   1.00
H1325  H     0.86119   0.60637   0.70957   0.00000  Uiso   1.00
H1326  H     0.86260   0.58963   0.65318   0.00000  Uiso   1.00
H1327  H     0.89222   0.47372   0.89179   0.00000  Uiso   1.00
H1328  H     0.97722   0.46281   0.61052   0.00000  Uiso   1.00
H1329  H     0.68941   0.53723   0.88956   0.00000  Uiso   1.00
H1330  H     0.93560   0.37250   0.80369   0.00000  Uiso   1.00
H1331  H     0.73158   0.62654   0.69742   0.00000  Uiso   1.00
H1332  H     0.86275   0.45526   0.80254   0.00000  Uiso   1.00
N1333  N     0.78403   0.50001   0.74999   0.00000  Uiso   1.00
N1334  N     0.89954   0.55053   0.68880   0.00000  Uiso   1.00
N1335  N     0.88264   0.49999   0.75001   0.00000  Uiso   1.00
N1336  N     0.99966   0.55624   0.97678   0.00000  Uiso   1.00
N1337  N     0.66715   0.44323   0.52346   0.00000  Uiso   1.00
N1338  N     0.85732   0.49722   0.59386   0.00000  Uiso   1.00
N1339  N     0.80974   0.50158   0.90625   0.00000  Uiso   1.00
N1340  N     0.92772   0.62464   0.81626   0.00000  Uiso   1.00
N1341  N     0.74257   0.37687   0.68689   0.00000  Uiso   1.00
N1342  N     0.76783   0.44777   0.80909   0.00000  Uiso   1.00
O1343  O     0.70625   0.43989   0.75000   0.00000  Uiso   1.00
O1344  O     0.96042   0.56011   0.75000   0.00000  Uiso   1.00
O1345  O     0.96039   0.43988   0.75001   0.00000  Uiso   1.00
O1346  O     0.70628   0.56012   0.74999   0.00000  Uiso   1.00
O1347  O     0.68519   0.50001   0.81492   0.00000  Uiso   1.00
O1348  O     0.98148   0.49999   0.68509   0.00000  Uiso   1.00
O1349  O     0.93933   0.50000   0.81492   0.00000  Uiso   1.00
O1350  O     0.72733   0.50000   0.68508   0.00000  Uiso   1.00
C1351  C     0.00029   0.75414   0.74953   0.00000  Uiso   1.00
C1352  C     0.03852   0.68787   0.71874   0.00000  Uiso   1.00
C1353  C     0.33273   0.95714   0.75087   0.00000  Uiso   1.00
C1354  C     0.00079   0.70951   0.74885   0.00000  Uiso   1.00
C1355  C     0.18354   0.80844   0.77921   0.00000  Uiso   1.00
C1356  C     0.14960   0.85839   0.72097   0.00000  Uiso   1.00
C1357  C     0.13396   0.80788   0.77893   0.00000  Uiso   1.00
C1358  C     0.19941   0.85872   0.72074   0.00000  Uiso   1.00
C1359  C     0.30619   0.83410   0.83617   0.00000  Uiso   1.00
C1360  C     0.02716   0.83255   0.66383   0.00000  Uiso   1.00
C1361  C     0.29122   0.83920   0.88528   0.00000  Uiso   1.00
C1362  C     0.33296   0.91252   0.75078   0.00000  Uiso   1.00
C1363  C     0.04222   0.82729   0.61477   0.00000  Uiso   1.00
C1364  C     0.30280   0.86836   0.95394   0.00000  Uiso   1.00
C1365  C     0.03066   0.79788   0.54623   0.00000  Uiso   1.00
C1366  C     0.32020   0.86023   0.90775   0.00000  Uiso   1.00
C1367  C     0.01318   0.80629   0.59234   0.00000  Uiso   1.00
C1368  C     0.24475   0.82693   0.90884   0.00000  Uiso   1.00
C1369  C     0.08887   0.83920   0.59127   0.00000  Uiso   1.00
C1370  C     0.22411   0.83898   0.95354   0.00000  Uiso   1.00
C1371  C     0.10948   0.82698   0.54663   0.00000  Uiso   1.00
C1372  C     0.25520   0.85651   0.97727   0.00000  Uiso   1.00
C1373  C     0.19485   0.84310   0.54783   0.00000  Uiso   1.00
C1374  C     0.07833   0.80953   0.52292   0.00000  Uiso   1.00
C1375  C     0.17434   0.83179   0.97598   0.00000  Uiso   1.00
C1376  C     0.15928   0.83401   0.52420   0.00000  Uiso   1.00
C1377  C     0.21361   0.95473   0.80850   0.00000  Uiso   1.00
C1378  C     0.11779   0.68856   0.65977   0.00000  Uiso   1.00
C1379  C     0.11078   0.73735   0.80154   0.00000  Uiso   1.00
C1380  C     0.21705   0.92480   0.67868   0.00000  Uiso   1.00
C1381  C     0.13877   0.82266   0.95236   0.00000  Uiso   1.00
C1382  C     0.23976   0.85854   0.52423   0.00000  Uiso   1.00
C1383  C     0.09380   0.80737   0.97598   0.00000  Uiso   1.00
C1384  C     0.29678   0.68864   0.77982   0.00000  Uiso   1.00
C1385  C     0.03727   0.97790   0.72036   0.00000  Uiso   1.00
C1386  C     0.29588   0.97898   0.78131   0.00000  Uiso   1.00
Cu1387 Cu    0.04689   0.83334   0.75000   0.00000  Uiso   1.00
Cu1388 Cu    0.28645   0.83333   0.75000   0.00000  Uiso   1.00
H1389  H     0.26482   0.86754   0.54335   0.00000  Uiso   1.00
H1390  H     0.13665   0.87783   0.69760   0.00000  Uiso   1.00
H1391  H     0.03176   0.87273   0.97261   0.00000  Uiso   1.00
H1392  H     0.00853   0.91839   0.96085   0.00000  Uiso   1.00
H1393  H     0.32482   0.74784   0.53956   0.00000  Uiso   1.00
H1394  H     0.30176   0.79345   0.52746   0.00000  Uiso   1.00
H1395  H     0.18152   0.85606   0.61499   0.00000  Uiso   1.00
H1396  H     0.16640   0.80609   0.60417   0.00000  Uiso   1.00
H1397  H     0.16696   0.85963   0.89598   0.00000  Uiso   1.00
H1398  H     0.15273   0.80935   0.88528   0.00000  Uiso   1.00
H1399  H     0.25914   0.96946   0.84788   0.00000  Uiso   1.00
H1400  H     0.06872   0.79839   0.95687   0.00000  Uiso   1.00
H1401  H     0.19766   0.98600   0.80662   0.00000  Uiso   1.00
H1402  H     0.18943   0.93689   0.83670   0.00000  Uiso   1.00
H1403  H     0.21593   0.93804   0.77677   0.00000  Uiso   1.00
H1404  H     0.06419   0.73480   0.67062   0.00000  Uiso   1.00
H1405  H     0.10709   0.66850   0.63498   0.00000  Uiso   1.00
H1406  H     0.13531   0.66982   0.68176   0.00000  Uiso   1.00
H1407  H     0.14462   0.71146   0.64088   0.00000  Uiso   1.00
H1408  H     0.09618   0.78879   0.84249   0.00000  Uiso   1.00
H1409  H     0.14407   0.72801   0.81134   0.00000  Uiso   1.00
H1410  H     0.11514   0.72990   0.76544   0.00000  Uiso   1.00
H1411  H     0.10829   0.85889   0.60832   0.00000  Uiso   1.00
H1412  H     0.07985   0.71923   0.82237   0.00000  Uiso   1.00
H1413  H     0.25003   0.86806   0.66002   0.00000  Uiso   1.00
H1414  H     0.24927   0.94446   0.66452   0.00000  Uiso   1.00
H1415  H     0.19453   0.93970   0.70957   0.00000  Uiso   1.00
H1416  H     0.19593   0.92296   0.65318   0.00000  Uiso   1.00
H1417  H     0.22556   0.80706   0.89179   0.00000  Uiso   1.00
H1418  H     0.31056   0.79615   0.61052   0.00000  Uiso   1.00
H1419  H     0.02274   0.87056   0.88956   0.00000  Uiso   1.00
H1420  H     0.26894   0.70583   0.80369   0.00000  Uiso   1.00
H1421  H     0.06492   0.95987   0.69742   0.00000  Uiso   1.00
H1422  H     0.19608   0.78859   0.80254   0.00000  Uiso   1.00
N1423  N     0.11736   0.83334   0.74999   0.00000  Uiso   1.00
N1424  N     0.23287   0.88386   0.68880   0.00000  Uiso   1.00
N1425  N     0.21597   0.83332   0.75001   0.00000  Uiso   1.00
N1426  N     0.33299   0.88957   0.97678   0.00000  Uiso   1.00
N1427  N     0.00048   0.77657   0.52346   0.00000  Uiso   1.00
N1428  N     0.19066   0.83056   0.59386   0.00000  Uiso   1.00
N1429  N     0.14307   0.83491   0.90625   0.00000  Uiso   1.00
N1430  N     0.26106   0.95797   0.81626   0.00000  Uiso   1.00
N1431  N     0.07590   0.71020   0.68689   0.00000  Uiso   1.00
N1432  N     0.10117   0.78111   0.80909   0.00000  Uiso   1.00
O1433  O     0.03958   0.77322   0.75000   0.00000  Uiso   1.00
O1434  O     0.29375   0.89345   0.75000   0.00000  Uiso   1.00
O1435  O     0.29372   0.77321   0.75001   0.00000  Uiso   1.00
O1436  O     0.03961   0.89346   0.74999   0.00000  Uiso   1.00
O1437  O     0.01852   0.83334   0.81492   0.00000  Uiso   1.00
O1438  O     0.31481   0.83332   0.68509   0.00000  Uiso   1.00
O1439  O     0.27267   0.83333   0.81492   0.00000  Uiso   1.00
O1440  O     0.06067   0.83333   0.68508   0.00000  Uiso   1.00
C1441  C     0.33362   0.75414   0.74953   0.00000  Uiso   1.00
C1442  C     0.37185   0.68787   0.71874   0.00000  Uiso   1.00
C1443  C     0.66607   0.95714   0.75087   0.00000  Uiso   1.00
C1444  C     0.33412   0.70951   0.74885   0.00000  Uiso   1.00
C1445  C     0.51688   0.80844   0.77921   0.00000  Uiso   1.00
C1446  C     0.48293   0.85839   0.72097   0.00000  Uiso   1.00
C1447  C     0.46730   0.80788   0.77893   0.00000  Uiso   1.00
C1448  C     0.53274   0.85872   0.72074   0.00000  Uiso   1.00
C1449  C     0.63953   0.83410   0.83617   0.00000  Uiso   1.00
C1450  C     0.36049   0.83255   0.66383   0.00000  Uiso   1.00
C1451  C     0.62456   0.83920   0.88528   0.00000  Uiso   1.00
C1452  C     0.66630   0.91252   0.75078   0.00000  Uiso   1.00
C1453  C     0.37555   0.82729   0.61477   0.00000  Uiso   1.00
C1454  C     0.63613   0.86836   0.95394   0.00000  Uiso   1.00
C1455  C     0.36400   0.79788   0.54623   0.00000  Uiso   1.00
C1456  C     0.65353   0.86023   0.90775   0.00000  Uiso   1.00
C1457  C     0.34652   0.80629   0.59234   0.00000  Uiso   1.00
C1458  C     0.57808   0.82693   0.90884   0.00000  Uiso   1.00
C1459  C     0.42221   0.83920   0.59127   0.00000  Uiso   1.00
C1460  C     0.55744   0.83898   0.95354   0.00000  Uiso   1.00
C1461  C     0.44282   0.82698   0.54663   0.00000  Uiso   1.00
C1462  C     0.58854   0.85651   0.97727   0.00000  Uiso   1.00
C1463  C     0.52819   0.84310   0.54783   0.00000  Uiso   1.00
C1464  C     0.41166   0.80953   0.52292   0.00000  Uiso   1.00
C1465  C     0.50768   0.83179   0.97598   0.00000  Uiso   1.00
C1466  C     0.49262   0.83401   0.52420   0.00000  Uiso   1.00
C1467  C     0.54694   0.95473   0.80850   0.00000  Uiso   1.00
C1468  C     0.45112   0.68856   0.65977   0.00000  Uiso   1.00
C1469  C     0.44412   0.73735   0.80154   0.00000  Uiso   1.00
C1470  C     0.55038   0.92480   0.67868   0.00000  Uiso   1.00
C1471  C     0.47210   0.82266   0.95236   0.00000  Uiso   1.00
C1472  C     0.57309   0.85854   0.52423   0.00000  Uiso   1.00
C1473  C     0.42714   0.80737   0.97598   0.00000  Uiso   1.00
C1474  C     0.63011   0.68864   0.77982   0.00000  Uiso   1.00
C1475  C     0.37060   0.97790   0.72036   0.00000  Uiso   1.00
C1476  C     0.62921   0.97898   0.78131   0.00000  Uiso   1.00
Cu1477 Cu    0.38022   0.83334   0.75000   0.00000  Uiso   1.00
Cu1478 Cu    0.61978   0.83333   0.75000   0.00000  Uiso   1.00
H1479  H     0.59816   0.86754   0.54335   0.00000  Uiso   1.00
H1480  H     0.46999   0.87783   0.69760   0.00000  Uiso   1.00
H1481  H     0.36510   0.87273   0.97261   0.00000  Uiso   1.00
H1482  H     0.34187   0.91839   0.96085   0.00000  Uiso   1.00
H1483  H     0.65816   0.74784   0.53956   0.00000  Uiso   1.00
H1484  H     0.63510   0.79345   0.52746   0.00000  Uiso   1.00
H1485  H     0.51485   0.85606   0.61499   0.00000  Uiso   1.00
H1486  H     0.49973   0.80609   0.60417   0.00000  Uiso   1.00
H1487  H     0.50030   0.85963   0.89598   0.00000  Uiso   1.00
H1488  H     0.48606   0.80935   0.88528   0.00000  Uiso   1.00
H1489  H     0.59247   0.96946   0.84788   0.00000  Uiso   1.00
H1490  H     0.40205   0.79839   0.95687   0.00000  Uiso   1.00
H1491  H     0.53099   0.98600   0.80662   0.00000  Uiso   1.00
H1492  H     0.52277   0.93689   0.83670   0.00000  Uiso   1.00
H1493  H     0.54926   0.93804   0.77677   0.00000  Uiso   1.00
H1494  H     0.39752   0.73480   0.67062   0.00000  Uiso   1.00
H1495  H     0.44042   0.66850   0.63498   0.00000  Uiso   1.00
H1496  H     0.46864   0.66982   0.68176   0.00000  Uiso   1.00
H1497  H     0.47795   0.71146   0.64088   0.00000  Uiso   1.00
H1498  H     0.42951   0.78879   0.84249   0.00000  Uiso   1.00
H1499  H     0.47741   0.72801   0.81134   0.00000  Uiso   1.00
H1500  H     0.44847   0.72990   0.76544   0.00000  Uiso   1.00
H1501  H     0.44163   0.85889   0.60832   0.00000  Uiso   1.00
H1502  H     0.41318   0.71923   0.82237   0.00000  Uiso   1.00
H1503  H     0.58337   0.86806   0.66002   0.00000  Uiso   1.00
H1504  H     0.58260   0.94446   0.66452   0.00000  Uiso   1.00
H1505  H     0.52786   0.93970   0.70957   0.00000  Uiso   1.00
H1506  H     0.52926   0.92296   0.65318   0.00000  Uiso   1.00
H1507  H     0.55889   0.80706   0.89179   0.00000  Uiso   1.00
H1508  H     0.64389   0.79615   0.61052   0.00000  Uiso   1.00
H1509  H     0.35607   0.87056   0.88956   0.00000  Uiso   1.00
H1510  H     0.60227   0.70583   0.80369   0.00000  Uiso   1.00
H1511  H     0.39825   0.95987   0.69742   0.00000  Uiso   1.00
H1512  H     0.52942   0.78859   0.80254   0.00000  Uiso   1.00
N1513  N     0.45069   0.83334   0.74999   0.00000  Uiso   1.00
N1514  N     0.56621   0.88386   0.68880   0.00000  Uiso   1.00
N1515  N     0.54931   0.83332   0.75001   0.00000  Uiso   1.00
N1516  N     0.66632   0.88957   0.97678   0.00000  Uiso   1.00
N1517  N     0.33381   0.77657   0.52346   0.00000  Uiso   1.00
N1518  N     0.52399   0.83056   0.59386   0.00000  Uiso   1.00
N1519  N     0.47641   0.83491   0.90625   0.00000  Uiso   1.00
N1520  N     0.59439   0.95797   0.81626   0.00000  Uiso   1.00
N1521  N     0.40923   0.71020   0.68689   0.00000  Uiso   1.00
N1522  N     0.43450   0.78111   0.80909   0.00000  Uiso   1.00
O1523  O     0.37291   0.77322   0.75000   0.00000  Uiso   1.00
O1524  O     0.62709   0.89345   0.75000   0.00000  Uiso   1.00
O1525  O     0.62706   0.77321   0.75001   0.00000  Uiso   1.00
O1526  O     0.37294   0.89346   0.74999   0.00000  Uiso   1.00
O1527  O     0.35186   0.83334   0.81492   0.00000  Uiso   1.00
O1528  O     0.64814   0.83332   0.68509   0.00000  Uiso   1.00
O1529  O     0.60600   0.83333   0.81492   0.00000  Uiso   1.00
O1530  O     0.39400   0.83333   0.68508   0.00000  Uiso   1.00
C1531  C     0.66696   0.75414   0.74953   0.00000  Uiso   1.00
C1532  C     0.70518   0.68787   0.71874   0.00000  Uiso   1.00
C1533  C     0.99940   0.95714   0.75087   0.00000  Uiso   1.00
C1534  C     0.66745   0.70951   0.74885   0.00000  Uiso   1.00
C1535  C     0.85021   0.80844   0.77921   0.00000  Uiso   1.00
C1536  C     0.81626   0.85839   0.72097   0.00000  Uiso   1.00
C1537  C     0.80063   0.80788   0.77893   0.00000  Uiso   1.00
C1538  C     0.86608   0.85872   0.72074   0.00000  Uiso   1.00
C1539  C     0.97286   0.83410   0.83617   0.00000  Uiso   1.00
C1540  C     0.69382   0.83255   0.66383   0.00000  Uiso   1.00
C1541  C     0.95789   0.83920   0.88528   0.00000  Uiso   1.00
C1542  C     0.99963   0.91252   0.75078   0.00000  Uiso   1.00
C1543  C     0.70888   0.82729   0.61477   0.00000  Uiso   1.00
C1544  C     0.96946   0.86836   0.95394   0.00000  Uiso   1.00
C1545  C     0.69733   0.79788   0.54623   0.00000  Uiso   1.00
C1546  C     0.98687   0.86023   0.90775   0.00000  Uiso   1.00
C1547  C     0.67985   0.80629   0.59234   0.00000  Uiso   1.00
C1548  C     0.91142   0.82693   0.90884   0.00000  Uiso   1.00
C1549  C     0.75554   0.83920   0.59127   0.00000  Uiso   1.00
C1550  C     0.89078   0.83898   0.95354   0.00000  Uiso   1.00
C1551  C     0.77615   0.82698   0.54663   0.00000  Uiso   1.00
C1552  C     0.92187   0.85651   0.97727   0.00000  Uiso   1.00
C1553  C     0.86152   0.84310   0.54783   0.00000  Uiso   1.00
C1554  C     0.74500   0.80953   0.52292   0.00000  Uiso   1.00
C1555  C     0.84101   0.83179   0.97598   0.00000  Uiso   1.00
C1556  C     0.82595   0.83401   0.52420   0.00000  Uiso   1.00
C1557  C     0.88027   0.95473   0.80850   0.00000  Uiso   1.00
C1558  C     0.78445   0.68856   0.65977   0.00000  Uiso   1.00
C1559  C     0.77745   0.73735   0.80154   0.00000  Uiso   1.00
C1560  C     0.88372   0.92480   0.67868   0.00000  Uiso   1.00
C1561  C     0.80544   0.82266   0.95236   0.00000  Uiso   1.00
C1562  C     0.90642   0.85854   0.52423   0.00000  Uiso   1.00
C1563  C     0.76047   0.80737   0.97598   0.00000  Uiso   1.00
C1564  C     0.96345   0.68864   0.77982   0.00000  Uiso   1.00
C1565  C     0.70394   0.97790   0.72036   0.00000  Uiso   1.00
C1566  C     0.96255   0.97898   0.78131   0.00000  Uiso   1.00
Cu1567 Cu    0.71355   0.83334   0.75000   0.00000  Uiso   1.00
Cu1568 Cu    0.95311   0.83333   0.75000   0.00000  Uiso   1.00
H1569  H     0.93149   0.86754   0.54335   0.00000  Uiso   1.00
H1570  H     0.80332   0.87783   0.69760   0.00000  Uiso   1.00
H1571  H     0.69843   0.87273   0.97261   0.00000  Uiso   1.00
H1572  H     0.67520   0.91839   0.96085   0.00000  Uiso   1.00
H1573  H     0.99149   0.74784   0.53956   0.00000  Uiso   1.00
H1574  H     0.96843   0.79345   0.52746   0.00000  Uiso   1.00
H1575  H     0.84819   0.85606   0.61499   0.00000  Uiso   1.00
H1576  H     0.83307   0.80609   0.60417   0.00000  Uiso   1.00
H1577  H     0.83363   0.85963   0.89598   0.00000  Uiso   1.00
H1578  H     0.81940   0.80935   0.88528   0.00000  Uiso   1.00
H1579  H     0.92581   0.96946   0.84788   0.00000  Uiso   1.00
H1580  H     0.73539   0.79839   0.95687   0.00000  Uiso   1.00
H1581  H     0.86432   0.98600   0.80662   0.00000  Uiso   1.00
H1582  H     0.85610   0.93689   0.83670   0.00000  Uiso   1.00
H1583  H     0.88260   0.93804   0.77677   0.00000  Uiso   1.00
H1584  H     0.73085   0.73480   0.67062   0.00000  Uiso   1.00
H1585  H     0.77375   0.66850   0.63498   0.00000  Uiso   1.00
H1586  H     0.80197   0.66982   0.68176   0.00000  Uiso   1.00
H1587  H     0.81129   0.71146   0.64088   0.00000  Uiso   1.00
H1588  H     0.76284   0.78879   0.84249   0.00000  Uiso   1.00
H1589  H     0.81074   0.72801   0.81134   0.00000  Uiso   1.00
H1590  H     0.78181   0.72990   0.76544   0.00000  Uiso   1.00
H1591  H     0.77496   0.85889   0.60832   0.00000  Uiso   1.00
H1592  H     0.74651   0.71923   0.82237   0.00000  Uiso   1.00
H1593  H     0.91670   0.86806   0.66002   0.00000  Uiso   1.00
H1594  H     0.91594   0.94446   0.66452   0.00000  Uiso   1.00
H1595  H     0.86119   0.93970   0.70957   0.00000  Uiso   1.00
H1596  H     0.86260   0.92296   0.65318   0.00000  Uiso   1.00
H1597  H     0.89222   0.80706   0.89179   0.00000  Uiso   1.00
H1598  H     0.97722   0.79615   0.61052   0.00000  Uiso   1.00
H1599  H     0.68941   0.87056   0.88956   0.00000  Uiso   1.00
H1600  H     0.93560   0.70583   0.80369   0.00000  Uiso   1.00
H1601  H     0.73158   0.95987   0.69742   0.00000  Uiso   1.00
H1602  H     0.86275   0.78859   0.80254   0.00000  Uiso   1.00
N1603  N     0.78403   0.83334   0.74999   0.00000  Uiso   1.00
N1604  N     0.89954   0.88386   0.68880   0.00000  Uiso   1.00
N1605  N     0.88264   0.83332   0.75001   0.00000  Uiso   1.00
N1606  N     0.99966   0.88957   0.97678   0.00000  Uiso   1.00
N1607  N     0.66715   0.77657   0.52346   0.00000  Uiso   1.00
N1608  N     0.85732   0.83056   0.59386   0.00000  Uiso   1.00
N1609  N     0.80974   0.83491   0.90625   0.00000  Uiso   1.00
N1610  N     0.92772   0.95797   0.81626   0.00000  Uiso   1.00
N1611  N     0.74257   0.71020   0.68689   0.00000  Uiso   1.00
N1612  N     0.76783   0.78111   0.80909   0.00000  Uiso   1.00
O1613  O     0.70625   0.77322   0.75000   0.00000  Uiso   1.00
O1614  O     0.96042   0.89345   0.75000   0.00000  Uiso   1.00
O1615  O     0.96039   0.77321   0.75001   0.00000  Uiso   1.00
O1616  O     0.70628   0.89346   0.74999   0.00000  Uiso   1.00
O1617  O     0.68519   0.83334   0.81492   0.00000  Uiso   1.00
O1618  O     0.98148   0.83332   0.68509   0.00000  Uiso   1.00
O1619  O     0.93933   0.83333   0.81492   0.00000  Uiso   1.00
O1620  O     0.72733   0.83333   0.68508   0.00000  Uiso   1.00
loop_
_geom_bond_atom_site_label_1
_geom_bond_atom_site_label_2
_geom_bond_distance
_geom_bond_site_symmetry_2
_ccdc_geom_bond_type
C1     O83     1.291   .     A
C1     C4      1.442   .     S
C1     O265    1.290   1_455 S
C2     C4      1.410   .     A
C2     N81     1.434   .     S
C2     C575    1.399   1_545 S
C3     C12     1.441   .     S
C3     C36     1.403   .     A
C3     C125    1.399   .     S
C4     C214    1.398   1_455 S
C5     H72     1.082   .     S
C5     N75     1.364   .     A
C5     C7      1.423   .     A
C6     H40     1.081   .     S
C6     C8      1.425   .     A
C6     N73     1.361   .     A
C7     N73     1.373   .     A
C7     N82     1.419   .     S
C8     N75     1.378   .     A
C8     N74     1.424   .     S
C9     O89     1.296   .     A
C9     C11     1.465   .     S
C9     O177    1.298   .     S
C10    C13     1.464   .     S
C10    O90     1.296   .     A
C10    O268    1.298   1_455 S
C11    C18     1.393   .     A
C11    C16     1.397   .     A
C12    O84     1.291   .     A
C12    O176    1.290   .     S
C13    C19     1.394   .     A
C13    C17     1.397   .     A
C14    N76     1.433   .     S
C14    C16     1.400   .     A
C14    C22     1.414   .     A
C15    C24     1.414   .     A
C15    C17     1.400   .     A
C15    N77     1.433   .     S
C16    H159    1.084   .     S
C17    H248    1.084   1_455 S
C18    C20     1.402   .     A
C18    H67     1.075   .     S
C19    C21     1.402   .     A
C19    H61     1.076   .     S
C20    C25     1.428   .     A
C20    C22     1.417   .     A
C21    C26     1.428   .     A
C21    C24     1.417   .     A
C22    C842    1.393   .     S
C23    C26     1.433   .     A
C23    C32     1.390   .     A
C23    N78     1.437   .     S
C24    C843    1.393   1_554 S
C25    C31     1.433   .     A
C25    C836    1.430   .     S
C26    C835    1.430   1_554 S
C27    H51     1.112   .     S
C27    N80     1.445   .     S
C27    H52     1.111   .     S
C27    H53     1.106   .     S
C28    H56     1.111   .     S
C28    H57     1.111   .     S
C28    H55     1.111   .     S
C28    N81     1.448   .     S
C29    H59     1.111   .     S
C29    H60     1.111   .     S
C29    H62     1.110   .     S
C29    N82     1.448   .     S
C30    H64     1.110   .     S
C30    N74     1.449   .     S
C30    H66     1.111   .     S
C30    H65     1.110   .     S
C31    C33     1.390   .     A
C31    N79     1.437   .     S
C32    H39     1.084   .     S
C32    C832    1.393   1_554 S
C33    H50     1.084   .     S
C33    C834    1.393   .     S
C34    H70     1.085   .     S
C34    C94     1.398   .     S
C34    C576    1.388   1_545 S
C35    H71     1.082   .     S
C35    C183    1.399   1_455 S
C35    C272    1.399   .     S
C36    N80     1.424   .     S
C36    C304    1.388   .     S
Cu37   O90     1.925   .     S
Cu37   O86     1.951   .     S
Cu37   N73     2.018   .     S
Cu37   O87     1.942   .     S
Cu37   O83     1.954   .     S
Cu37   Cu218   2.686   1_455 S
Cu38   O89     1.925   .     S
Cu38   N75     2.018   .     S
Cu38   O85     1.951   .     S
Cu38   O88     1.942   .     S
Cu38   O84     1.954   .     S
Cu38   Cu127   2.686   .     S
H41    N256    1.044   1_455 S
H42    N256    1.045   1_455 S
H43    N167    1.045   .     S
H44    N167    1.044   .     S
H45    N78     1.044   .     S
H46    N78     1.045   .     S
H47    N79     1.045   .     S
H48    N79     1.044   .     S
H49    N80     1.032   .     S
H54    N81     1.032   .     S
H58    N82     1.031   .     S
H63    N74     1.030   .     S
H68    C107    1.084   .     S
H69    C196    1.084   1_455 S
N76    H131    1.044   .     S
N76    H132    1.045   .     S
N77    H224    1.044   1_455 S
N77    H223    1.045   1_455 S
O85    C91     1.290   .     S
O86    C192    1.290   1_455 S
O87    C189    1.298   1_455 S
O88    C100    1.298   .     S
C91    O173    1.291   .     A
C91    C94     1.442   .     S
C92    C94     1.410   .     A
C92    N171    1.434   .     S
C92    C665    1.399   1_545 S
C93    C102    1.441   .     S
C93    C126    1.403   .     A
C93    C215    1.399   .     S
C95    H162    1.082   .     S
C95    N165    1.364   .     A
C95    C97     1.423   .     A
C96    H130    1.081   .     S
C96    C98     1.425   .     A
C96    N163    1.361   .     A
C97    N163    1.373   .     A
C97    N172    1.419   .     S
C98    N165    1.378   .     A
C98    N164    1.424   .     S
C99    O179    1.296   .     A
C99    C101    1.465   .     S
C99    O267    1.298   .     S
C100   C103    1.464   .     S
C100   O180    1.296   .     A
C101   C108    1.393   .     A
C101   C106    1.397   .     A
C102   O174    1.291   .     A
C102   O266    1.290   .     S
C103   C109    1.394   .     A
C103   C107    1.397   .     A
C104   N166    1.433   .     S
C104   C106    1.400   .     A
C104   C112    1.414   .     A
C105   C114    1.414   .     A
C105   C107    1.400   .     A
C105   N167    1.433   .     S
C106   H249    1.084   .     S
C108   C110    1.402   .     A
C108   H157    1.075   .     S
C109   C111    1.402   .     A
C109   H151    1.076   .     S
C110   C115    1.428   .     A
C110   C112    1.417   .     A
C111   C116    1.428   .     A
C111   C114    1.417   .     A
C112   C932    1.393   .     S
C113   C116    1.433   .     A
C113   C122    1.390   .     A
C113   N168    1.437   .     S
C114   C933    1.393   1_554 S
C115   C121    1.433   .     A
C115   C926    1.430   .     S
C116   C925    1.430   1_554 S
C117   H141    1.112   .     S
C117   N170    1.445   .     S
C117   H142    1.111   .     S
C117   H143    1.106   .     S
C118   H146    1.111   .     S
C118   H147    1.111   .     S
C118   H145    1.111   .     S
C118   N171    1.448   .     S
C119   H149    1.111   .     S
C119   H150    1.111   .     S
C119   H152    1.110   .     S
C119   N172    1.448   .     S
C120   H154    1.110   .     S
C120   N164    1.449   .     S
C120   H156    1.111   .     S
C120   H155    1.110   .     S
C121   C123    1.390   .     A
C121   N169    1.437   .     S
C122   H129    1.084   .     S
C122   C922    1.393   1_554 S
C123   H140    1.084   .     S
C123   C924    1.393   .     S
C124   H160    1.085   .     S
C124   C184    1.398   .     S
C124   C666    1.388   1_545 S
C125   H161    1.082   .     S
C125   C362    1.399   .     S
C126   N170    1.424   .     S
C126   C394    1.388   .     S
Cu127  O180    1.925   .     S
Cu127  O176    1.951   .     S
Cu127  N163    2.018   .     S
Cu127  O177    1.942   .     S
Cu127  O173    1.954   .     S
Cu128  O179    1.925   .     S
Cu128  N165    2.018   .     S
Cu128  O175    1.951   .     S
Cu128  O178    1.942   .     S
Cu128  O174    1.954   .     S
Cu128  Cu217   2.686   .     S
H133   N257    1.045   .     S
H134   N257    1.044   .     S
H135   N168    1.044   .     S
H136   N168    1.045   .     S
H137   N169    1.045   .     S
H138   N169    1.044   .     S
H139   N170    1.032   .     S
H144   N171    1.032   .     S
H148   N172    1.031   .     S
H153   N164    1.030   .     S
H158   C197    1.084   .     S
N166   H221    1.044   .     S
N166   H222    1.045   .     S
O175   C181    1.290   .     S
O178   C190    1.298   .     S
C181   O263    1.291   .     A
C181   C184    1.442   .     S
C182   C184    1.410   .     A
C182   N261    1.434   .     S
C182   C755    1.399   1_545 S
C183   C192    1.441   .     S
C183   C216    1.403   .     A
C183   C35     1.399   1_655 S
C185   H252    1.082   .     S
C185   N255    1.364   .     A
C185   C187    1.423   .     A
C186   H220    1.081   .     S
C186   C188    1.425   .     A
C186   N253    1.361   .     A
C187   N253    1.373   .     A
C187   N262    1.419   .     S
C188   N255    1.378   .     A
C188   N254    1.424   .     S
C189   O269    1.296   .     A
C189   C191    1.465   .     S
C189   O87     1.298   1_655 S
C190   C193    1.464   .     S
C190   O270    1.296   .     A
C191   C198    1.393   .     A
C191   C196    1.397   .     A
C192   O264    1.291   .     A
C192   O86     1.290   1_655 S
C193   C199    1.394   .     A
C193   C197    1.397   .     A
C194   N256    1.433   .     S
C194   C196    1.400   .     A
C194   C202    1.414   .     A
C195   C204    1.414   .     A
C195   C197    1.400   .     A
C195   N257    1.433   .     S
C196   H69     1.084   1_655 S
C198   C200    1.402   .     A
C198   H247    1.075   .     S
C199   C201    1.402   .     A
C199   H241    1.076   .     S
C200   C205    1.428   .     A
C200   C202    1.417   .     A
C201   C206    1.428   .     A
C201   C204    1.417   .     A
C202   C1022   1.393   .     S
C203   C206    1.433   .     A
C203   C212    1.390   .     A
C203   N258    1.437   .     S
C204   C1023   1.393   1_554 S
C205   C211    1.433   .     A
C205   C1016   1.430   .     S
C206   C1015   1.430   1_554 S
C207   H231    1.112   .     S
C207   N260    1.445   .     S
C207   H232    1.111   .     S
C207   H233    1.106   .     S
C208   H236    1.111   .     S
C208   H237    1.111   .     S
C208   H235    1.111   .     S
C208   N261    1.448   .     S
C209   H239    1.111   .     S
C209   H240    1.111   .     S
C209   H242    1.110   .     S
C209   N262    1.448   .     S
C210   H244    1.110   .     S
C210   N254    1.449   .     S
C210   H246    1.111   .     S
C210   H245    1.110   .     S
C211   C213    1.390   .     A
C211   N259    1.437   .     S
C212   H219    1.084   .     S
C212   C1012   1.393   1_554 S
C213   H230    1.084   .     S
C213   C1014   1.393   .     S
C214   H250    1.085   .     S
C214   C4      1.398   1_655 S
C214   C756    1.388   1_545 S
C215   H251    1.082   .     S
C215   C452    1.399   .     S
C216   N260    1.424   .     S
C216   C484    1.388   .     S
Cu217  O270    1.925   .     S
Cu217  O266    1.951   .     S
Cu217  N253    2.018   .     S
Cu217  O267    1.942   .     S
Cu217  O263    1.954   .     S
Cu218  O269    1.925   .     S
Cu218  N255    2.018   .     S
Cu218  O265    1.951   .     S
Cu218  O268    1.942   .     S
Cu218  O264    1.954   .     S
Cu218  Cu37    2.686   1_655 S
H223   N77     1.045   1_655 S
H224   N77     1.044   1_655 S
H225   N258    1.044   .     S
H226   N258    1.045   .     S
H227   N259    1.045   .     S
H228   N259    1.044   .     S
H229   N260    1.032   .     S
H234   N261    1.032   .     S
H238   N262    1.031   .     S
H243   N254    1.030   .     S
H248   C17     1.084   1_655 S
N256   H41     1.044   1_655 S
N256   H42     1.045   1_655 S
O265   C1      1.290   1_655 S
O268   C10     1.298   1_655 S
C271   O353    1.291   .     A
C271   C274    1.442   .     S
C271   O535    1.290   1_455 S
C272   C274    1.410   .     A
C272   N351    1.434   .     S
C273   C282    1.441   .     S
C273   C306    1.403   .     A
C273   C395    1.399   .     S
C274   C484    1.398   1_455 S
C275   H342    1.082   .     S
C275   N345    1.364   .     A
C275   C277    1.423   .     A
C276   H310    1.081   .     S
C276   C278    1.425   .     A
C276   N343    1.361   .     A
C277   N343    1.373   .     A
C277   N352    1.419   .     S
C278   N345    1.378   .     A
C278   N344    1.424   .     S
C279   O359    1.296   .     A
C279   C281    1.465   .     S
C279   O447    1.298   .     S
C280   C283    1.464   .     S
C280   O360    1.296   .     A
C280   O538    1.298   1_455 S
C281   C288    1.393   .     A
C281   C286    1.397   .     A
C282   O354    1.291   .     A
C282   O446    1.290   .     S
C283   C289    1.394   .     A
C283   C287    1.397   .     A
C284   N346    1.433   .     S
C284   C286    1.400   .     A
C284   C292    1.414   .     A
C285   C294    1.414   .     A
C285   C287    1.400   .     A
C285   N347    1.433   .     S
C286   H429    1.084   .     S
C287   H518    1.084   1_455 S
C288   C290    1.402   .     A
C288   H337    1.075   .     S
C289   C291    1.402   .     A
C289   H331    1.076   .     S
C290   C295    1.428   .     A
C290   C292    1.417   .     A
C291   C296    1.428   .     A
C291   C294    1.417   .     A
C292   C1112   1.393   .     S
C293   C296    1.433   .     A
C293   C302    1.390   .     A
C293   N348    1.437   .     S
C294   C1113   1.393   1_554 S
C295   C301    1.433   .     A
C295   C1106   1.430   .     S
C296   C1105   1.430   1_554 S
C297   H321    1.112   .     S
C297   N350    1.445   .     S
C297   H322    1.111   .     S
C297   H323    1.106   .     S
C298   H326    1.111   .     S
C298   H327    1.111   .     S
C298   H325    1.111   .     S
C298   N351    1.448   .     S
C299   H329    1.111   .     S
C299   H330    1.111   .     S
C299   H332    1.110   .     S
C299   N352    1.448   .     S
C300   H334    1.110   .     S
C300   N344    1.449   .     S
C300   H336    1.111   .     S
C300   H335    1.110   .     S
C301   C303    1.390   .     A
C301   N349    1.437   .     S
C302   H309    1.084   .     S
C302   C1102   1.393   1_554 S
C303   H320    1.084   .     S
C303   C1104   1.393   .     S
C304   H340    1.085   .     S
C304   C364    1.398   .     S
C305   H341    1.082   .     S
C305   C453    1.399   1_455 S
C305   C542    1.399   .     S
C306   N350    1.424   .     S
C306   C574    1.388   .     S
Cu307  O360    1.925   .     S
Cu307  O356    1.951   .     S
Cu307  N343    2.018   .     S
Cu307  O357    1.942   .     S
Cu307  O353    1.954   .     S
Cu307  Cu488   2.686   1_455 S
Cu308  O359    1.925   .     S
Cu308  N345    2.018   .     S
Cu308  O355    1.951   .     S
Cu308  O358    1.942   .     S
Cu308  O354    1.954   .     S
Cu308  Cu397   2.686   .     S
H311   N526    1.044   1_455 S
H312   N526    1.045   1_455 S
H313   N437    1.045   .     S
H314   N437    1.044   .     S
H315   N348    1.044   .     S
H316   N348    1.045   .     S
H317   N349    1.045   .     S
H318   N349    1.044   .     S
H319   N350    1.032   .     S
H324   N351    1.032   .     S
H328   N352    1.031   .     S
H333   N344    1.030   .     S
H338   C377    1.084   .     S
H339   C466    1.084   1_455 S
N346   H401    1.044   .     S
N346   H402    1.045   .     S
N347   H494    1.044   1_455 S
N347   H493    1.045   1_455 S
O355   C361    1.290   .     S
O356   C462    1.290   1_455 S
O357   C459    1.298   1_455 S
O358   C370    1.298   .     S
C361   O443    1.291   .     A
C361   C364    1.442   .     S
C362   C364    1.410   .     A
C362   N441    1.434   .     S
C363   C372    1.441   .     S
C363   C396    1.403   .     A
C363   C485    1.399   .     S
C365   H432    1.082   .     S
C365   N435    1.364   .     A
C365   C367    1.423   .     A
C366   H400    1.081   .     S
C366   C368    1.425   .     A
C366   N433    1.361   .     A
C367   N433    1.373   .     A
C367   N442    1.419   .     S
C368   N435    1.378   .     A
C368   N434    1.424   .     S
C369   O449    1.296   .     A
C369   C371    1.465   .     S
C369   O537    1.298   .     S
C370   C373    1.464   .     S
C370   O450    1.296   .     A
C371   C378    1.393   .     A
C371   C376    1.397   .     A
C372   O444    1.291   .     A
C372   O536    1.290   .     S
C373   C379    1.394   .     A
C373   C377    1.397   .     A
C374   N436    1.433   .     S
C374   C376    1.400   .     A
C374   C382    1.414   .     A
C375   C384    1.414   .     A
C375   C377    1.400   .     A
C375   N437    1.433   .     S
C376   H519    1.084   .     S
C378   C380    1.402   .     A
C378   H427    1.075   .     S
C379   C381    1.402   .     A
C379   H421    1.076   .     S
C380   C385    1.428   .     A
C380   C382    1.417   .     A
C381   C386    1.428   .     A
C381   C384    1.417   .     A
C382   C1202   1.393   .     S
C383   C386    1.433   .     A
C383   C392    1.390   .     A
C383   N438    1.437   .     S
C384   C1203   1.393   1_554 S
C385   C391    1.433   .     A
C385   C1196   1.430   .     S
C386   C1195   1.430   1_554 S
C387   H411    1.112   .     S
C387   N440    1.445   .     S
C387   H412    1.111   .     S
C387   H413    1.106   .     S
C388   H416    1.111   .     S
C388   H417    1.111   .     S
C388   H415    1.111   .     S
C388   N441    1.448   .     S
C389   H419    1.111   .     S
C389   H420    1.111   .     S
C389   H422    1.110   .     S
C389   N442    1.448   .     S
C390   H424    1.110   .     S
C390   N434    1.449   .     S
C390   H426    1.111   .     S
C390   H425    1.110   .     S
C391   C393    1.390   .     A
C391   N439    1.437   .     S
C392   H399    1.084   .     S
C392   C1192   1.393   1_554 S
C393   H410    1.084   .     S
C393   C1194   1.393   .     S
C394   H430    1.085   .     S
C394   C454    1.398   .     S
C395   H431    1.082   .     S
C395   C632    1.399   .     S
C396   N440    1.424   .     S
C396   C664    1.388   .     S
Cu397  O450    1.925   .     S
Cu397  O446    1.951   .     S
Cu397  N433    2.018   .     S
Cu397  O447    1.942   .     S
Cu397  O443    1.954   .     S
Cu398  O449    1.925   .     S
Cu398  N435    2.018   .     S
Cu398  O445    1.951   .     S
Cu398  O448    1.942   .     S
Cu398  O444    1.954   .     S
Cu398  Cu487   2.686   .     S
H403   N527    1.045   .     S
H404   N527    1.044   .     S
H405   N438    1.044   .     S
H406   N438    1.045   .     S
H407   N439    1.045   .     S
H408   N439    1.044   .     S
H409   N440    1.032   .     S
H414   N441    1.032   .     S
H418   N442    1.031   .     S
H423   N434    1.030   .     S
H428   C467    1.084   .     S
N436   H491    1.044   .     S
N436   H492    1.045   .     S
O445   C451    1.290   .     S
O448   C460    1.298   .     S
C451   O533    1.291   .     A
C451   C454    1.442   .     S
C452   C454    1.410   .     A
C452   N531    1.434   .     S
C453   C462    1.441   .     S
C453   C486    1.403   .     A
C453   C305    1.399   1_655 S
C455   H522    1.082   .     S
C455   N525    1.364   .     A
C455   C457    1.423   .     A
C456   H490    1.081   .     S
C456   C458    1.425   .     A
C456   N523    1.361   .     A
C457   N523    1.373   .     A
C457   N532    1.419   .     S
C458   N525    1.378   .     A
C458   N524    1.424   .     S
C459   O539    1.296   .     A
C459   C461    1.465   .     S
C459   O357    1.298   1_655 S
C460   C463    1.464   .     S
C460   O540    1.296   .     A
C461   C468    1.393   .     A
C461   C466    1.397   .     A
C462   O534    1.291   .     A
C462   O356    1.290   1_655 S
C463   C469    1.394   .     A
C463   C467    1.397   .     A
C464   N526    1.433   .     S
C464   C466    1.400   .     A
C464   C472    1.414   .     A
C465   C474    1.414   .     A
C465   C467    1.400   .     A
C465   N527    1.433   .     S
C466   H339    1.084   1_655 S
C468   C470    1.402   .     A
C468   H517    1.075   .     S
C469   C471    1.402   .     A
C469   H511    1.076   .     S
C470   C475    1.428   .     A
C470   C472    1.417   .     A
C471   C476    1.428   .     A
C471   C474    1.417   .     A
C472   C1292   1.393   .     S
C473   C476    1.433   .     A
C473   C482    1.390   .     A
C473   N528    1.437   .     S
C474   C1293   1.393   1_554 S
C475   C481    1.433   .     A
C475   C1286   1.430   .     S
C476   C1285   1.430   1_554 S
C477   H501    1.112   .     S
C477   N530    1.445   .     S
C477   H502    1.111   .     S
C477   H503    1.106   .     S
C478   H506    1.111   .     S
C478   H507    1.111   .     S
C478   H505    1.111   .     S
C478   N531    1.448   .     S
C479   H509    1.111   .     S
C479   H510    1.111   .     S
C479   H512    1.110   .     S
C479   N532    1.448   .     S
C480   H514    1.110   .     S
C480   N524    1.449   .     S
C480   H516    1.111   .     S
C480   H515    1.110   .     S
C481   C483    1.390   .     A
C481   N529    1.437   .     S
C482   H489    1.084   .     S
C482   C1282   1.393   1_554 S
C483   H500    1.084   .     S
C483   C1284   1.393   .     S
C484   H520    1.085   .     S
C484   C274    1.398   1_655 S
C485   H521    1.082   .     S
C485   C722    1.399   .     S
C486   N530    1.424   .     S
C486   C754    1.388   .     S
Cu487  O540    1.925   .     S
Cu487  O536    1.951   .     S
Cu487  N523    2.018   .     S
Cu487  O537    1.942   .     S
Cu487  O533    1.954   .     S
Cu488  O539    1.925   .     S
Cu488  N525    2.018   .     S
Cu488  O535    1.951   .     S
Cu488  O538    1.942   .     S
Cu488  O534    1.954   .     S
Cu488  Cu307   2.686   1_655 S
H493   N347    1.045   1_655 S
H494   N347    1.044   1_655 S
H495   N528    1.044   .     S
H496   N528    1.045   .     S
H497   N529    1.045   .     S
H498   N529    1.044   .     S
H499   N530    1.032   .     S
H504   N531    1.032   .     S
H508   N532    1.031   .     S
H513   N524    1.030   .     S
H518   C287    1.084   1_655 S
N526   H311    1.044   1_655 S
N526   H312    1.045   1_655 S
O535   C271    1.290   1_655 S
O538   C280    1.298   1_655 S
C541   O623    1.291   .     A
C541   C544    1.442   .     S
C541   O805    1.290   1_455 S
C542   C544    1.410   .     A
C542   N621    1.434   .     S
C543   C552    1.441   .     S
C543   C576    1.403   .     A
C543   C665    1.399   .     S
C544   C754    1.398   1_455 S
C545   H612    1.082   .     S
C545   N615    1.364   .     A
C545   C547    1.423   .     A
C546   H580    1.081   .     S
C546   C548    1.425   .     A
C546   N613    1.361   .     A
C547   N613    1.373   .     A
C547   N622    1.419   .     S
C548   N615    1.378   .     A
C548   N614    1.424   .     S
C549   O629    1.296   .     A
C549   C551    1.465   .     S
C549   O717    1.298   .     S
C550   C553    1.464   .     S
C550   O630    1.296   .     A
C550   O808    1.298   1_455 S
C551   C558    1.393   .     A
C551   C556    1.397   .     A
C552   O624    1.291   .     A
C552   O716    1.290   .     S
C553   C559    1.394   .     A
C553   C557    1.397   .     A
C554   N616    1.433   .     S
C554   C556    1.400   .     A
C554   C562    1.414   .     A
C555   C564    1.414   .     A
C555   C557    1.400   .     A
C555   N617    1.433   .     S
C556   H699    1.084   .     S
C557   H788    1.084   1_455 S
C558   C560    1.402   .     A
C558   H607    1.075   .     S
C559   C561    1.402   .     A
C559   H601    1.076   .     S
C560   C565    1.428   .     A
C560   C562    1.417   .     A
C561   C566    1.428   .     A
C561   C564    1.417   .     A
C562   C1382   1.393   .     S
C563   C566    1.433   .     A
C563   C572    1.390   .     A
C563   N618    1.437   .     S
C564   C1383   1.393   1_554 S
C565   C571    1.433   .     A
C565   C1376   1.430   .     S
C566   C1375   1.430   1_554 S
C567   H591    1.112   .     S
C567   N620    1.445   .     S
C567   H592    1.111   .     S
C567   H593    1.106   .     S
C568   H596    1.111   .     S
C568   H597    1.111   .     S
C568   H595    1.111   .     S
C568   N621    1.448   .     S
C569   H599    1.111   .     S
C569   H600    1.111   .     S
C569   H602    1.110   .     S
C569   N622    1.448   .     S
C570   H604    1.110   .     S
C570   N614    1.449   .     S
C570   H606    1.111   .     S
C570   H605    1.110   .     S
C571   C573    1.390   .     A
C571   N619    1.437   .     S
C572   H579    1.084   .     S
C572   C1372   1.393   1_554 S
C573   H590    1.084   .     S
C573   C1374   1.393   .     S
C574   H610    1.085   .     S
C574   C634    1.398   .     S
C575   H611    1.082   .     S
C575   C723    1.399   1_455 S
C575   C2      1.399   1_565 S
C576   N620    1.424   .     S
C576   C34     1.388   1_565 S
Cu577  O630    1.925   .     S
Cu577  O626    1.951   .     S
Cu577  N613    2.018   .     S
Cu577  O627    1.942   .     S
Cu577  O623    1.954   .     S
Cu577  Cu758   2.686   1_455 S
Cu578  O629    1.925   .     S
Cu578  N615    2.018   .     S
Cu578  O625    1.951   .     S
Cu578  O628    1.942   .     S
Cu578  O624    1.954   .     S
Cu578  Cu667   2.686   .     S
H581   N796    1.044   1_455 S
H582   N796    1.045   1_455 S
H583   N707    1.045   .     S
H584   N707    1.044   .     S
H585   N618    1.044   .     S
H586   N618    1.045   .     S
H587   N619    1.045   .     S
H588   N619    1.044   .     S
H589   N620    1.032   .     S
H594   N621    1.032   .     S
H598   N622    1.031   .     S
H603   N614    1.030   .     S
H608   C647    1.084   .     S
H609   C736    1.084   1_455 S
N616   H671    1.044   .     S
N616   H672    1.045   .     S
N617   H764    1.044   1_455 S
N617   H763    1.045   1_455 S
O625   C631    1.290   .     S
O626   C732    1.290   1_455 S
O627   C729    1.298   1_455 S
O628   C640    1.298   .     S
C631   O713    1.291   .     A
C631   C634    1.442   .     S
C632   C634    1.410   .     A
C632   N711    1.434   .     S
C633   C642    1.441   .     S
C633   C666    1.403   .     A
C633   C755    1.399   .     S
C635   H702    1.082   .     S
C635   N705    1.364   .     A
C635   C637    1.423   .     A
C636   H670    1.081   .     S
C636   C638    1.425   .     A
C636   N703    1.361   .     A
C637   N703    1.373   .     A
C637   N712    1.419   .     S
C638   N705    1.378   .     A
C638   N704    1.424   .     S
C639   O719    1.296   .     A
C639   C641    1.465   .     S
C639   O807    1.298   .     S
C640   C643    1.464   .     S
C640   O720    1.296   .     A
C641   C648    1.393   .     A
C641   C646    1.397   .     A
C642   O714    1.291   .     A
C642   O806    1.290   .     S
C643   C649    1.394   .     A
C643   C647    1.397   .     A
C644   N706    1.433   .     S
C644   C646    1.400   .     A
C644   C652    1.414   .     A
C645   C654    1.414   .     A
C645   C647    1.400   .     A
C645   N707    1.433   .     S
C646   H789    1.084   .     S
C648   C650    1.402   .     A
C648   H697    1.075   .     S
C649   C651    1.402   .     A
C649   H691    1.076   .     S
C650   C655    1.428   .     A
C650   C652    1.417   .     A
C651   C656    1.428   .     A
C651   C654    1.417   .     A
C652   C1472   1.393   .     S
C653   C656    1.433   .     A
C653   C662    1.390   .     A
C653   N708    1.437   .     S
C654   C1473   1.393   1_554 S
C655   C661    1.433   .     A
C655   C1466   1.430   .     S
C656   C1465   1.430   1_554 S
C657   H681    1.112   .     S
C657   N710    1.445   .     S
C657   H682    1.111   .     S
C657   H683    1.106   .     S
C658   H686    1.111   .     S
C658   H687    1.111   .     S
C658   H685    1.111   .     S
C658   N711    1.448   .     S
C659   H689    1.111   .     S
C659   H690    1.111   .     S
C659   H692    1.110   .     S
C659   N712    1.448   .     S
C660   H694    1.110   .     S
C660   N704    1.449   .     S
C660   H696    1.111   .     S
C660   H695    1.110   .     S
C661   C663    1.390   .     A
C661   N709    1.437   .     S
C662   H669    1.084   .     S
C662   C1462   1.393   1_554 S
C663   H680    1.084   .     S
C663   C1464   1.393   .     S
C664   H700    1.085   .     S
C664   C724    1.398   .     S
C665   H701    1.082   .     S
C665   C92     1.399   1_565 S
C666   N710    1.424   .     S
C666   C124    1.388   1_565 S
Cu667  O720    1.925   .     S
Cu667  O716    1.951   .     S
Cu667  N703    2.018   .     S
Cu667  O717    1.942   .     S
Cu667  O713    1.954   .     S
Cu668  O719    1.925   .     S
Cu668  N705    2.018   .     S
Cu668  O715    1.951   .     S
Cu668  O718    1.942   .     S
Cu668  O714    1.954   .     S
Cu668  Cu757   2.686   .     S
H673   N797    1.045   .     S
H674   N797    1.044   .     S
H675   N708    1.044   .     S
H676   N708    1.045   .     S
H677   N709    1.045   .     S
H678   N709    1.044   .     S
H679   N710    1.032   .     S
H684   N711    1.032   .     S
H688   N712    1.031   .     S
H693   N704    1.030   .     S
H698   C737    1.084   .     S
N706   H761    1.044   .     S
N706   H762    1.045   .     S
O715   C721    1.290   .     S
O718   C730    1.298   .     S
C721   O803    1.291   .     A
C721   C724    1.442   .     S
C722   C724    1.410   .     A
C722   N801    1.434   .     S
C723   C732    1.441   .     S
C723   C756    1.403   .     A
C723   C575    1.399   1_655 S
C725   H792    1.082   .     S
C725   N795    1.364   .     A
C725   C727    1.423   .     A
C726   H760    1.081   .     S
C726   C728    1.425   .     A
C726   N793    1.361   .     A
C727   N793    1.373   .     A
C727   N802    1.419   .     S
C728   N795    1.378   .     A
C728   N794    1.424   .     S
C729   O809    1.296   .     A
C729   C731    1.465   .     S
C729   O627    1.298   1_655 S
C730   C733    1.464   .     S
C730   O810    1.296   .     A
C731   C738    1.393   .     A
C731   C736    1.397   .     A
C732   O804    1.291   .     A
C732   O626    1.290   1_655 S
C733   C739    1.394   .     A
C733   C737    1.397   .     A
C734   N796    1.433   .     S
C734   C736    1.400   .     A
C734   C742    1.414   .     A
C735   C744    1.414   .     A
C735   C737    1.400   .     A
C735   N797    1.433   .     S
C736   H609    1.084   1_655 S
C738   C740    1.402   .     A
C738   H787    1.075   .     S
C739   C741    1.402   .     A
C739   H781    1.076   .     S
C740   C745    1.428   .     A
C740   C742    1.417   .     A
C741   C746    1.428   .     A
C741   C744    1.417   .     A
C742   C1562   1.393   .     S
C743   C746    1.433   .     A
C743   C752    1.390   .     A
C743   N798    1.437   .     S
C744   C1563   1.393   1_554 S
C745   C751    1.433   .     A
C745   C1556   1.430   .     S
C746   C1555   1.430   1_554 S
C747   H771    1.112   .     S
C747   N800    1.445   .     S
C747   H772    1.111   .     S
C747   H773    1.106   .     S
C748   H776    1.111   .     S
C748   H777    1.111   .     S
C748   H775    1.111   .     S
C748   N801    1.448   .     S
C749   H779    1.111   .     S
C749   H780    1.111   .     S
C749   H782    1.110   .     S
C749   N802    1.448   .     S
C750   H784    1.110   .     S
C750   N794    1.449   .     S
C750   H786    1.111   .     S
C750   H785    1.110   .     S
C751   C753    1.390   .     A
C751   N799    1.437   .     S
C752   H759    1.084   .     S
C752   C1552   1.393   1_554 S
C753   H770    1.084   .     S
C753   C1554   1.393   .     S
C754   H790    1.085   .     S
C754   C544    1.398   1_655 S
C755   H791    1.082   .     S
C755   C182    1.399   1_565 S
C756   N800    1.424   .     S
C756   C214    1.388   1_565 S
Cu757  O810    1.925   .     S
Cu757  O806    1.951   .     S
Cu757  N793    2.018   .     S
Cu757  O807    1.942   .     S
Cu757  O803    1.954   .     S
Cu758  O809    1.925   .     S
Cu758  N795    2.018   .     S
Cu758  O805    1.951   .     S
Cu758  O808    1.942   .     S
Cu758  O804    1.954   .     S
Cu758  Cu577   2.686   1_655 S
H763   N617    1.045   1_655 S
H764   N617    1.044   1_655 S
H765   N798    1.044   .     S
H766   N798    1.045   .     S
H767   N799    1.045   .     S
H768   N799    1.044   .     S
H769   N800    1.032   .     S
H774   N801    1.032   .     S
H778   N802    1.031   .     S
H783   N794    1.030   .     S
H788   C557    1.084   1_655 S
N796   H581    1.044   1_655 S
N796   H582    1.045   1_655 S
O805   C541    1.290   1_655 S
O808   C550    1.298   1_655 S
C811   O893    1.291   .     A
C811   C814    1.442   .     S
C811   O1075   1.290   1_455 S
C812   C814    1.410   .     A
C812   N891    1.434   .     S
C812   C1385   1.399   1_545 S
C813   C822    1.441   .     S
C813   C846    1.403   .     A
C813   C935    1.399   .     S
C814   C1024   1.398   1_455 S
C815   H882    1.082   .     S
C815   N885    1.364   .     A
C815   C817    1.423   .     A
C816   H850    1.081   .     S
C816   C818    1.425   .     A
C816   N883    1.361   .     A
C817   N883    1.373   .     A
C817   N892    1.419   .     S
C818   N885    1.378   .     A
C818   N884    1.424   .     S
C819   O899    1.296   .     A
C819   C821    1.465   .     S
C819   O987    1.298   .     S
C820   C823    1.464   .     S
C820   O900    1.296   .     A
C820   O1078   1.298   1_455 S
C821   C828    1.393   .     A
C821   C826    1.397   .     A
C822   O894    1.291   .     A
C822   O986    1.290   .     S
C823   C829    1.394   .     A
C823   C827    1.397   .     A
C824   N886    1.433   .     S
C824   C826    1.400   .     A
C824   C832    1.414   .     A
C825   C834    1.414   .     A
C825   C827    1.400   .     A
C825   N887    1.433   .     S
C826   H969    1.084   .     S
C827   H1058   1.084   1_455 S
C828   C830    1.402   .     A
C828   H877    1.075   .     S
C829   C831    1.402   .     A
C829   H871    1.076   .     S
C830   C835    1.428   .     A
C830   C832    1.417   .     A
C831   C836    1.428   .     A
C831   C834    1.417   .     A
C832   C32     1.393   1_556 S
C833   C836    1.433   .     A
C833   C842    1.390   .     A
C833   N888    1.437   .     S
C835   C841    1.433   .     A
C835   C26     1.430   1_556 S
C837   H861    1.112   .     S
C837   N890    1.445   .     S
C837   H862    1.111   .     S
C837   H863    1.106   .     S
C838   H866    1.111   .     S
C838   H867    1.111   .     S
C838   H865    1.111   .     S
C838   N891    1.448   .     S
C839   H869    1.111   .     S
C839   H870    1.111   .     S
C839   H872    1.110   .     S
C839   N892    1.448   .     S
C840   H874    1.110   .     S
C840   N884    1.449   .     S
C840   H876    1.111   .     S
C840   H875    1.110   .     S
C841   C843    1.390   .     A
C841   N889    1.437   .     S
C842   H849    1.084   .     S
C843   H860    1.084   .     S
C843   C24     1.393   1_556 S
C844   H880    1.085   .     S
C844   C904    1.398   .     S
C844   C1386   1.388   1_545 S
C845   H881    1.082   .     S
C845   C993    1.399   1_455 S
C845   C1082   1.399   .     S
C846   N890    1.424   .     S
C846   C1114   1.388   .     S
Cu847  O900    1.925   .     S
Cu847  O896    1.951   .     S
Cu847  N883    2.018   .     S
Cu847  O897    1.942   .     S
Cu847  O893    1.954   .     S
Cu847  Cu1028  2.686   1_455 S
Cu848  O899    1.925   .     S
Cu848  N885    2.018   .     S
Cu848  O895    1.951   .     S
Cu848  O898    1.942   .     S
Cu848  O894    1.954   .     S
Cu848  Cu937   2.686   .     S
H851   N1066   1.044   1_455 S
H852   N1066   1.045   1_455 S
H853   N977    1.045   .     S
H854   N977    1.044   .     S
H855   N888    1.044   .     S
H856   N888    1.045   .     S
H857   N889    1.045   .     S
H858   N889    1.044   .     S
H859   N890    1.032   .     S
H864   N891    1.032   .     S
H868   N892    1.031   .     S
H873   N884    1.030   .     S
H878   C917    1.084   .     S
H879   C1006   1.084   1_455 S
N886   H941    1.044   .     S
N886   H942    1.045   .     S
N887   H1034   1.044   1_455 S
N887   H1033   1.045   1_455 S
O895   C901    1.290   .     S
O896   C1002   1.290   1_455 S
O897   C999    1.298   1_455 S
O898   C910    1.298   .     S
C901   O983    1.291   .     A
C901   C904    1.442   .     S
C902   C904    1.410   .     A
C902   N981    1.434   .     S
C902   C1475   1.399   1_545 S
C903   C912    1.441   .     S
C903   C936    1.403   .     A
C903   C1025   1.399   .     S
C905   H972    1.082   .     S
C905   N975    1.364   .     A
C905   C907    1.423   .     A
C906   H940    1.081   .     S
C906   C908    1.425   .     A
C906   N973    1.361   .     A
C907   N973    1.373   .     A
C907   N982    1.419   .     S
C908   N975    1.378   .     A
C908   N974    1.424   .     S
C909   O989    1.296   .     A
C909   C911    1.465   .     S
C909   O1077   1.298   .     S
C910   C913    1.464   .     S
C910   O990    1.296   .     A
C911   C918    1.393   .     A
C911   C916    1.397   .     A
C912   O984    1.291   .     A
C912   O1076   1.290   .     S
C913   C919    1.394   .     A
C913   C917    1.397   .     A
C914   N976    1.433   .     S
C914   C916    1.400   .     A
C914   C922    1.414   .     A
C915   C924    1.414   .     A
C915   C917    1.400   .     A
C915   N977    1.433   .     S
C916   H1059   1.084   .     S
C918   C920    1.402   .     A
C918   H967    1.075   .     S
C919   C921    1.402   .     A
C919   H961    1.076   .     S
C920   C925    1.428   .     A
C920   C922    1.417   .     A
C921   C926    1.428   .     A
C921   C924    1.417   .     A
C922   C122    1.393   1_556 S
C923   C926    1.433   .     A
C923   C932    1.390   .     A
C923   N978    1.437   .     S
C925   C931    1.433   .     A
C925   C116    1.430   1_556 S
C927   H951    1.112   .     S
C927   N980    1.445   .     S
C927   H952    1.111   .     S
C927   H953    1.106   .     S
C928   H956    1.111   .     S
C928   H957    1.111   .     S
C928   H955    1.111   .     S
C928   N981    1.448   .     S
C929   H959    1.111   .     S
C929   H960    1.111   .     S
C929   H962    1.110   .     S
C929   N982    1.448   .     S
C930   H964    1.110   .     S
C930   N974    1.449   .     S
C930   H966    1.111   .     S
C930   H965    1.110   .     S
C931   C933    1.390   .     A
C931   N979    1.437   .     S
C932   H939    1.084   .     S
C933   H950    1.084   .     S
C933   C114    1.393   1_556 S
C934   H970    1.085   .     S
C934   C994    1.398   .     S
C934   C1476   1.388   1_545 S
C935   H971    1.082   .     S
C935   C1172   1.399   .     S
C936   N980    1.424   .     S
C936   C1204   1.388   .     S
Cu937  O990    1.925   .     S
Cu937  O986    1.951   .     S
Cu937  N973    2.018   .     S
Cu937  O987    1.942   .     S
Cu937  O983    1.954   .     S
Cu938  O989    1.925   .     S
Cu938  N975    2.018   .     S
Cu938  O985    1.951   .     S
Cu938  O988    1.942   .     S
Cu938  O984    1.954   .     S
Cu938  Cu1027  2.686   .     S
H943   N1067   1.045   .     S
H944   N1067   1.044   .     S
H945   N978    1.044   .     S
H946   N978    1.045   .     S
H947   N979    1.045   .     S
H948   N979    1.044   .     S
H949   N980    1.032   .     S
H954   N981    1.032   .     S
H958   N982    1.031   .     S
H963   N974    1.030   .     S
H968   C1007   1.084   .     S
N976   H1031   1.044   .     S
N976   H1032   1.045   .     S
O985   C991    1.290   .     S
O988   C1000   1.298   .     S
C991   O1073   1.291   .     A
C991   C994    1.442   .     S
C992   C994    1.410   .     A
C992   N1071   1.434   .     S
C992   C1565   1.399   1_545 S
C993   C1002   1.441   .     S
C993   C1026   1.403   .     A
C993   C845    1.399   1_655 S
C995   H1062   1.082   .     S
C995   N1065   1.364   .     A
C995   C997    1.423   .     A
C996   H1030   1.081   .     S
C996   C998    1.425   .     A
C996   N1063   1.361   .     A
C997   N1063   1.373   .     A
C997   N1072   1.419   .     S
C998   N1065   1.378   .     A
C998   N1064   1.424   .     S
C999   O1079   1.296   .     A
C999   C1001   1.465   .     S
C999   O897    1.298   1_655 S
C1000  C1003   1.464   .     S
C1000  O1080   1.296   .     A
C1001  C1008   1.393   .     A
C1001  C1006   1.397   .     A
C1002  O1074   1.291   .     A
C1002  O896    1.290   1_655 S
C1003  C1009   1.394   .     A
C1003  C1007   1.397   .     A
C1004  N1066   1.433   .     S
C1004  C1006   1.400   .     A
C1004  C1012   1.414   .     A
C1005  C1014   1.414   .     A
C1005  C1007   1.400   .     A
C1005  N1067   1.433   .     S
C1006  H879    1.084   1_655 S
C1008  C1010   1.402   .     A
C1008  H1057   1.075   .     S
C1009  C1011   1.402   .     A
C1009  H1051   1.076   .     S
C1010  C1015   1.428   .     A
C1010  C1012   1.417   .     A
C1011  C1016   1.428   .     A
C1011  C1014   1.417   .     A
C1012  C212    1.393   1_556 S
C1013  C1016   1.433   .     A
C1013  C1022   1.390   .     A
C1013  N1068   1.437   .     S
C1015  C1021   1.433   .     A
C1015  C206    1.430   1_556 S
C1017  H1041   1.112   .     S
C1017  N1070   1.445   .     S
C1017  H1042   1.111   .     S
C1017  H1043   1.106   .     S
C1018  H1046   1.111   .     S
C1018  H1047   1.111   .     S
C1018  H1045   1.111   .     S
C1018  N1071   1.448   .     S
C1019  H1049   1.111   .     S
C1019  H1050   1.111   .     S
C1019  H1052   1.110   .     S
C1019  N1072   1.448   .     S
C1020  H1054   1.110   .     S
C1020  N1064   1.449   .     S
C1020  H1056   1.111   .     S
C1020  H1055   1.110   .     S
C1021  C1023   1.390   .     A
C1021  N1069   1.437   .     S
C1022  H1029   1.084   .     S
C1023  H1040   1.084   .     S
C1023  C204    1.393   1_556 S
C1024  H1060   1.085   .     S
C1024  C814    1.398   1_655 S
C1024  C1566   1.388   1_545 S
C1025  H1061   1.082   .     S
C1025  C1262   1.399   .     S
C1026  N1070   1.424   .     S
C1026  C1294   1.388   .     S
Cu1027 O1080   1.925   .     S
Cu1027 O1076   1.951   .     S
Cu1027 N1063   2.018   .     S
Cu1027 O1077   1.942   .     S
Cu1027 O1073   1.954   .     S
Cu1028 O1079   1.925   .     S
Cu1028 N1065   2.018   .     S
Cu1028 O1075   1.951   .     S
Cu1028 O1078   1.942   .     S
Cu1028 O1074   1.954   .     S
Cu1028 Cu847   2.686   1_655 S
H1033  N887    1.045   1_655 S
H1034  N887    1.044   1_655 S
H1035  N1068   1.044   .     S
H1036  N1068   1.045   .     S
H1037  N1069   1.045   .     S
H1038  N1069   1.044   .     S
H1039  N1070   1.032   .     S
H1044  N1071   1.032   .     S
H1048  N1072   1.031   .     S
H1053  N1064   1.030   .     S
H1058  C827    1.084   1_655 S
N1066  H851    1.044   1_655 S
N1066  H852    1.045   1_655 S
O1075  C811    1.290   1_655 S
O1078  C820    1.298   1_655 S
C1081  O1163   1.291   .     A
C1081  C1084   1.442   .     S
C1081  O1345   1.290   1_455 S
C1082  C1084   1.410   .     A
C1082  N1161   1.434   .     S
C1083  C1092   1.441   .     S
C1083  C1116   1.403   .     A
C1083  C1205   1.399   .     S
C1084  C1294   1.398   1_455 S
C1085  H1152   1.082   .     S
C1085  N1155   1.364   .     A
C1085  C1087   1.423   .     A
C1086  H1120   1.081   .     S
C1086  C1088   1.425   .     A
C1086  N1153   1.361   .     A
C1087  N1153   1.373   .     A
C1087  N1162   1.419   .     S
C1088  N1155   1.378   .     A
C1088  N1154   1.424   .     S
C1089  O1169   1.296   .     A
C1089  C1091   1.465   .     S
C1089  O1257   1.298   .     S
C1090  C1093   1.464   .     S
C1090  O1170   1.296   .     A
C1090  O1348   1.298   1_455 S
C1091  C1098   1.393   .     A
C1091  C1096   1.397   .     A
C1092  O1164   1.291   .     A
C1092  O1256   1.290   .     S
C1093  C1099   1.394   .     A
C1093  C1097   1.397   .     A
C1094  N1156   1.433   .     S
C1094  C1096   1.400   .     A
C1094  C1102   1.414   .     A
C1095  C1104   1.414   .     A
C1095  C1097   1.400   .     A
C1095  N1157   1.433   .     S
C1096  H1239   1.084   .     S
C1097  H1328   1.084   1_455 S
C1098  C1100   1.402   .     A
C1098  H1147   1.075   .     S
C1099  C1101   1.402   .     A
C1099  H1141   1.076   .     S
C1100  C1105   1.428   .     A
C1100  C1102   1.417   .     A
C1101  C1106   1.428   .     A
C1101  C1104   1.417   .     A
C1102  C302    1.393   1_556 S
C1103  C1106   1.433   .     A
C1103  C1112   1.390   .     A
C1103  N1158   1.437   .     S
C1105  C1111   1.433   .     A
C1105  C296    1.430   1_556 S
C1107  H1131   1.112   .     S
C1107  N1160   1.445   .     S
C1107  H1132   1.111   .     S
C1107  H1133   1.106   .     S
C1108  H1136   1.111   .     S
C1108  H1137   1.111   .     S
C1108  H1135   1.111   .     S
C1108  N1161   1.448   .     S
C1109  H1139   1.111   .     S
C1109  H1140   1.111   .     S
C1109  H1142   1.110   .     S
C1109  N1162   1.448   .     S
C1110  H1144   1.110   .     S
C1110  N1154   1.449   .     S
C1110  H1146   1.111   .     S
C1110  H1145   1.110   .     S
C1111  C1113   1.390   .     A
C1111  N1159   1.437   .     S
C1112  H1119   1.084   .     S
C1113  H1130   1.084   .     S
C1113  C294    1.393   1_556 S
C1114  H1150   1.085   .     S
C1114  C1174   1.398   .     S
C1115  H1151   1.082   .     S
C1115  C1263   1.399   1_455 S
C1115  C1352   1.399   .     S
C1116  N1160   1.424   .     S
C1116  C1384   1.388   .     S
Cu1117 O1170   1.925   .     S
Cu1117 O1166   1.951   .     S
Cu1117 N1153   2.018   .     S
Cu1117 O1167   1.942   .     S
Cu1117 O1163   1.954   .     S
Cu1117 Cu1298  2.686   1_455 S
Cu1118 O1169   1.925   .     S
Cu1118 N1155   2.018   .     S
Cu1118 O1165   1.951   .     S
Cu1118 O1168   1.942   .     S
Cu1118 O1164   1.954   .     S
Cu1118 Cu1207  2.686   .     S
H1121  N1336   1.044   1_455 S
H1122  N1336   1.045   1_455 S
H1123  N1247   1.045   .     S
H1124  N1247   1.044   .     S
H1125  N1158   1.044   .     S
H1126  N1158   1.045   .     S
H1127  N1159   1.045   .     S
H1128  N1159   1.044   .     S
H1129  N1160   1.032   .     S
H1134  N1161   1.032   .     S
H1138  N1162   1.031   .     S
H1143  N1154   1.030   .     S
H1148  C1187   1.084   .     S
H1149  C1276   1.084   1_455 S
N1156  H1211   1.044   .     S
N1156  H1212   1.045   .     S
N1157  H1304   1.044   1_455 S
N1157  H1303   1.045   1_455 S
O1165  C1171   1.290   .     S
O1166  C1272   1.290   1_455 S
O1167  C1269   1.298   1_455 S
O1168  C1180   1.298   .     S
C1171  O1253   1.291   .     A
C1171  C1174   1.442   .     S
C1172  C1174   1.410   .     A
C1172  N1251   1.434   .     S
C1173  C1182   1.441   .     S
C1173  C1206   1.403   .     A
C1173  C1295   1.399   .     S
C1175  H1242   1.082   .     S
C1175  N1245   1.364   .     A
C1175  C1177   1.423   .     A
C1176  H1210   1.081   .     S
C1176  C1178   1.425   .     A
C1176  N1243   1.361   .     A
C1177  N1243   1.373   .     A
C1177  N1252   1.419   .     S
C1178  N1245   1.378   .     A
C1178  N1244   1.424   .     S
C1179  O1259   1.296   .     A
C1179  C1181   1.465   .     S
C1179  O1347   1.298   .     S
C1180  C1183   1.464   .     S
C1180  O1260   1.296   .     A
C1181  C1188   1.393   .     A
C1181  C1186   1.397   .     A
C1182  O1254   1.291   .     A
C1182  O1346   1.290   .     S
C1183  C1189   1.394   .     A
C1183  C1187   1.397   .     A
C1184  N1246   1.433   .     S
C1184  C1186   1.400   .     A
C1184  C1192   1.414   .     A
C1185  C1194   1.414   .     A
C1185  C1187   1.400   .     A
C1185  N1247   1.433   .     S
C1186  H1329   1.084   .     S
C1188  C1190   1.402   .     A
C1188  H1237   1.075   .     S
C1189  C1191   1.402   .     A
C1189  H1231   1.076   .     S
C1190  C1195   1.428   .     A
C1190  C1192   1.417   .     A
C1191  C1196   1.428   .     A
C1191  C1194   1.417   .     A
C1192  C392    1.393   1_556 S
C1193  C1196   1.433   .     A
C1193  C1202   1.390   .     A
C1193  N1248   1.437   .     S
C1195  C1201   1.433   .     A
C1195  C386    1.430   1_556 S
C1197  H1221   1.112   .     S
C1197  N1250   1.445   .     S
C1197  H1222   1.111   .     S
C1197  H1223   1.106   .     S
C1198  H1226   1.111   .     S
C1198  H1227   1.111   .     S
C1198  H1225   1.111   .     S
C1198  N1251   1.448   .     S
C1199  H1229   1.111   .     S
C1199  H1230   1.111   .     S
C1199  H1232   1.110   .     S
C1199  N1252   1.448   .     S
C1200  H1234   1.110   .     S
C1200  N1244   1.449   .     S
C1200  H1236   1.111   .     S
C1200  H1235   1.110   .     S
C1201  C1203   1.390   .     A
C1201  N1249   1.437   .     S
C1202  H1209   1.084   .     S
C1203  H1220   1.084   .     S
C1203  C384    1.393   1_556 S
C1204  H1240   1.085   .     S
C1204  C1264   1.398   .     S
C1205  H1241   1.082   .     S
C1205  C1442   1.399   .     S
C1206  N1250   1.424   .     S
C1206  C1474   1.388   .     S
Cu1207 O1260   1.925   .     S
Cu1207 O1256   1.951   .     S
Cu1207 N1243   2.018   .     S
Cu1207 O1257   1.942   .     S
Cu1207 O1253   1.954   .     S
Cu1208 O1259   1.925   .     S
Cu1208 N1245   2.018   .     S
Cu1208 O1255   1.951   .     S
Cu1208 O1258   1.942   .     S
Cu1208 O1254   1.954   .     S
Cu1208 Cu1297  2.686   .     S
H1213  N1337   1.045   .     S
H1214  N1337   1.044   .     S
H1215  N1248   1.044   .     S
H1216  N1248   1.045   .     S
H1217  N1249   1.045   .     S
H1218  N1249   1.044   .     S
H1219  N1250   1.032   .     S
H1224  N1251   1.032   .     S
H1228  N1252   1.031   .     S
H1233  N1244   1.030   .     S
H1238  C1277   1.084   .     S
N1246  H1301   1.044   .     S
N1246  H1302   1.045   .     S
O1255  C1261   1.290   .     S
O1258  C1270   1.298   .     S
C1261  O1343   1.291   .     A
C1261  C1264   1.442   .     S
C1262  C1264   1.410   .     A
C1262  N1341   1.434   .     S
C1263  C1272   1.441   .     S
C1263  C1296   1.403   .     A
C1263  C1115   1.399   1_655 S
C1265  H1332   1.082   .     S
C1265  N1335   1.364   .     A
C1265  C1267   1.423   .     A
C1266  H1300   1.081   .     S
C1266  C1268   1.425   .     A
C1266  N1333   1.361   .     A
C1267  N1333   1.373   .     A
C1267  N1342   1.419   .     S
C1268  N1335   1.378   .     A
C1268  N1334   1.424   .     S
C1269  O1349   1.296   .     A
C1269  C1271   1.465   .     S
C1269  O1167   1.298   1_655 S
C1270  C1273   1.464   .     S
C1270  O1350   1.296   .     A
C1271  C1278   1.393   .     A
C1271  C1276   1.397   .     A
C1272  O1344   1.291   .     A
C1272  O1166   1.290   1_655 S
C1273  C1279   1.394   .     A
C1273  C1277   1.397   .     A
C1274  N1336   1.433   .     S
C1274  C1276   1.400   .     A
C1274  C1282   1.414   .     A
C1275  C1284   1.414   .     A
C1275  C1277   1.400   .     A
C1275  N1337   1.433   .     S
C1276  H1149   1.084   1_655 S
C1278  C1280   1.402   .     A
C1278  H1327   1.075   .     S
C1279  C1281   1.402   .     A
C1279  H1321   1.076   .     S
C1280  C1285   1.428   .     A
C1280  C1282   1.417   .     A
C1281  C1286   1.428   .     A
C1281  C1284   1.417   .     A
C1282  C482    1.393   1_556 S
C1283  C1286   1.433   .     A
C1283  C1292   1.390   .     A
C1283  N1338   1.437   .     S
C1285  C1291   1.433   .     A
C1285  C476    1.430   1_556 S
C1287  H1311   1.112   .     S
C1287  N1340   1.445   .     S
C1287  H1312   1.111   .     S
C1287  H1313   1.106   .     S
C1288  H1316   1.111   .     S
C1288  H1317   1.111   .     S
C1288  H1315   1.111   .     S
C1288  N1341   1.448   .     S
C1289  H1319   1.111   .     S
C1289  H1320   1.111   .     S
C1289  H1322   1.110   .     S
C1289  N1342   1.448   .     S
C1290  H1324   1.110   .     S
C1290  N1334   1.449   .     S
C1290  H1326   1.111   .     S
C1290  H1325   1.110   .     S
C1291  C1293   1.390   .     A
C1291  N1339   1.437   .     S
C1292  H1299   1.084   .     S
C1293  H1310   1.084   .     S
C1293  C474    1.393   1_556 S
C1294  H1330   1.085   .     S
C1294  C1084   1.398   1_655 S
C1295  H1331   1.082   .     S
C1295  C1532   1.399   .     S
C1296  N1340   1.424   .     S
C1296  C1564   1.388   .     S
Cu1297 O1350   1.925   .     S
Cu1297 O1346   1.951   .     S
Cu1297 N1333   2.018   .     S
Cu1297 O1347   1.942   .     S
Cu1297 O1343   1.954   .     S
Cu1298 O1349   1.925   .     S
Cu1298 N1335   2.018   .     S
Cu1298 O1345   1.951   .     S
Cu1298 O1348   1.942   .     S
Cu1298 O1344   1.954   .     S
Cu1298 Cu1117  2.686   1_655 S
H1303  N1157   1.045   1_655 S
H1304  N1157   1.044   1_655 S
H1305  N1338   1.044   .     S
H1306  N1338   1.045   .     S
H1307  N1339   1.045   .     S
H1308  N1339   1.044   .     S
H1309  N1340   1.032   .     S
H1314  N1341   1.032   .     S
H1318  N1342   1.031   .     S
H1323  N1334   1.030   .     S
H1328  C1097   1.084   1_655 S
N1336  H1121   1.044   1_655 S
N1336  H1122   1.045   1_655 S
O1345  C1081   1.290   1_655 S
O1348  C1090   1.298   1_655 S
C1351  O1433   1.291   .     A
C1351  C1354   1.442   .     S
C1351  O1615   1.290   1_455 S
C1352  C1354   1.410   .     A
C1352  N1431   1.434   .     S
C1353  C1362   1.441   .     S
C1353  C1386   1.403   .     A
C1353  C1475   1.399   .     S
C1354  C1564   1.398   1_455 S
C1355  H1422   1.082   .     S
C1355  N1425   1.364   .     A
C1355  C1357   1.423   .     A
C1356  H1390   1.081   .     S
C1356  C1358   1.425   .     A
C1356  N1423   1.361   .     A
C1357  N1423   1.373   .     A
C1357  N1432   1.419   .     S
C1358  N1425   1.378   .     A
C1358  N1424   1.424   .     S
C1359  O1439   1.296   .     A
C1359  C1361   1.465   .     S
C1359  O1527   1.298   .     S
C1360  C1363   1.464   .     S
C1360  O1440   1.296   .     A
C1360  O1618   1.298   1_455 S
C1361  C1368   1.393   .     A
C1361  C1366   1.397   .     A
C1362  O1434   1.291   .     A
C1362  O1526   1.290   .     S
C1363  C1369   1.394   .     A
C1363  C1367   1.397   .     A
C1364  N1426   1.433   .     S
C1364  C1366   1.400   .     A
C1364  C1372   1.414   .     A
C1365  C1374   1.414   .     A
C1365  C1367   1.400   .     A
C1365  N1427   1.433   .     S
C1366  H1509   1.084   .     S
C1367  H1598   1.084   1_455 S
C1368  C1370   1.402   .     A
C1368  H1417   1.075   .     S
C1369  C1371   1.402   .     A
C1369  H1411   1.076   .     S
C1370  C1375   1.428   .     A
C1370  C1372   1.417   .     A
C1371  C1376   1.428   .     A
C1371  C1374   1.417   .     A
C1372  C572    1.393   1_556 S
C1373  C1376   1.433   .     A
C1373  C1382   1.390   .     A
C1373  N1428   1.437   .     S
C1375  C1381   1.433   .     A
C1375  C566    1.430   1_556 S
C1377  H1401   1.112   .     S
C1377  N1430   1.445   .     S
C1377  H1402   1.111   .     S
C1377  H1403   1.106   .     S
C1378  H1406   1.111   .     S
C1378  H1407   1.111   .     S
C1378  H1405   1.111   .     S
C1378  N1431   1.448   .     S
C1379  H1409   1.111   .     S
C1379  H1410   1.111   .     S
C1379  H1412   1.110   .     S
C1379  N1432   1.448   .     S
C1380  H1414   1.110   .     S
C1380  N1424   1.449   .     S
C1380  H1416   1.111   .     S
C1380  H1415   1.110   .     S
C1381  C1383   1.390   .     A
C1381  N1429   1.437   .     S
C1382  H1389   1.084   .     S
C1383  H1400   1.084   .     S
C1383  C564    1.393   1_556 S
C1384  H1420   1.085   .     S
C1384  C1444   1.398   .     S
C1385  H1421   1.082   .     S
C1385  C1533   1.399   1_455 S
C1385  C812    1.399   1_565 S
C1386  N1430   1.424   .     S
C1386  C844    1.388   1_565 S
Cu1387 O1440   1.925   .     S
Cu1387 O1436   1.951   .     S
Cu1387 N1423   2.018   .     S
Cu1387 O1437   1.942   .     S
Cu1387 O1433   1.954   .     S
Cu1387 Cu1568  2.686   1_455 S
Cu1388 O1439   1.925   .     S
Cu1388 N1425   2.018   .     S
Cu1388 O1435   1.951   .     S
Cu1388 O1438   1.942   .     S
Cu1388 O1434   1.954   .     S
Cu1388 Cu1477  2.686   .     S
H1391  N1606   1.044   1_455 S
H1392  N1606   1.045   1_455 S
H1393  N1517   1.045   .     S
H1394  N1517   1.044   .     S
H1395  N1428   1.044   .     S
H1396  N1428   1.045   .     S
H1397  N1429   1.045   .     S
H1398  N1429   1.044   .     S
H1399  N1430   1.032   .     S
H1404  N1431   1.032   .     S
H1408  N1432   1.031   .     S
H1413  N1424   1.030   .     S
H1418  C1457   1.084   .     S
H1419  C1546   1.084   1_455 S
N1426  H1481   1.044   .     S
N1426  H1482   1.045   .     S
N1427  H1574   1.044   1_455 S
N1427  H1573   1.045   1_455 S
O1435  C1441   1.290   .     S
O1436  C1542   1.290   1_455 S
O1437  C1539   1.298   1_455 S
O1438  C1450   1.298   .     S
C1441  O1523   1.291   .     A
C1441  C1444   1.442   .     S
C1442  C1444   1.410   .     A
C1442  N1521   1.434   .     S
C1443  C1452   1.441   .     S
C1443  C1476   1.403   .     A
C1443  C1565   1.399   .     S
C1445  H1512   1.082   .     S
C1445  N1515   1.364   .     A
C1445  C1447   1.423   .     A
C1446  H1480   1.081   .     S
C1446  C1448   1.425   .     A
C1446  N1513   1.361   .     A
C1447  N1513   1.373   .     A
C1447  N1522   1.419   .     S
C1448  N1515   1.378   .     A
C1448  N1514   1.424   .     S
C1449  O1529   1.296   .     A
C1449  C1451   1.465   .     S
C1449  O1617   1.298   .     S
C1450  C1453   1.464   .     S
C1450  O1530   1.296   .     A
C1451  C1458   1.393   .     A
C1451  C1456   1.397   .     A
C1452  O1524   1.291   .     A
C1452  O1616   1.290   .     S
C1453  C1459   1.394   .     A
C1453  C1457   1.397   .     A
C1454  N1516   1.433   .     S
C1454  C1456   1.400   .     A
C1454  C1462   1.414   .     A
C1455  C1464   1.414   .     A
C1455  C1457   1.400   .     A
C1455  N1517   1.433   .     S
C1456  H1599   1.084   .     S
C1458  C1460   1.402   .     A
C1458  H1507   1.075   .     S
C1459  C1461   1.402   .     A
C1459  H1501   1.076   .     S
C1460  C1465   1.428   .     A
C1460  C1462   1.417   .     A
C1461  C1466   1.428   .     A
C1461  C1464   1.417   .     A
C1462  C662    1.393   1_556 S
C1463  C1466   1.433   .     A
C1463  C1472   1.390   .     A
C1463  N1518   1.437   .     S
C1465  C1471   1.433   .     A
C1465  C656    1.430   1_556 S
C1467  H1491   1.112   .     S
C1467  N1520   1.445   .     S
C1467  H1492   1.111   .     S
C1467  H1493   1.106   .     S
C1468  H1496   1.111   .     S
C1468  H1497   1.111   .     S
C1468  H1495   1.111   .     S
C1468  N1521   1.448   .     S
C1469  H1499   1.111   .     S
C1469  H1500   1.111   .     S
C1469  H1502   1.110   .     S
C1469  N1522   1.448   .     S
C1470  H1504   1.110   .     S
C1470  N1514   1.449   .     S
C1470  H1506   1.111   .     S
C1470  H1505   1.110   .     S
C1471  C1473   1.390   .     A
C1471  N1519   1.437   .     S
C1472  H1479   1.084   .     S
C1473  H1490   1.084   .     S
C1473  C654    1.393   1_556 S
C1474  H1510   1.085   .     S
C1474  C1534   1.398   .     S
C1475  H1511   1.082   .     S
C1475  C902    1.399   1_565 S
C1476  N1520   1.424   .     S
C1476  C934    1.388   1_565 S
Cu1477 O1530   1.925   .     S
Cu1477 O1526   1.951   .     S
Cu1477 N1513   2.018   .     S
Cu1477 O1527   1.942   .     S
Cu1477 O1523   1.954   .     S
Cu1478 O1529   1.925   .     S
Cu1478 N1515   2.018   .     S
Cu1478 O1525   1.951   .     S
Cu1478 O1528   1.942   .     S
Cu1478 O1524   1.954   .     S
Cu1478 Cu1567  2.686   .     S
H1483  N1607   1.045   .     S
H1484  N1607   1.044   .     S
H1485  N1518   1.044   .     S
H1486  N1518   1.045   .     S
H1487  N1519   1.045   .     S
H1488  N1519   1.044   .     S
H1489  N1520   1.032   .     S
H1494  N1521   1.032   .     S
H1498  N1522   1.031   .     S
H1503  N1514   1.030   .     S
H1508  C1547   1.084   .     S
N1516  H1571   1.044   .     S
N1516  H1572   1.045   .     S
O1525  C1531   1.290   .     S
O1528  C1540   1.298   .     S
C1531  O1613   1.291   .     A
C1531  C1534   1.442   .     S
C1532  C1534   1.410   .     A
C1532  N1611   1.434   .     S
C1533  C1542   1.441   .     S
C1533  C1566   1.403   .     A
C1533  C1385   1.399   1_655 S
C1535  H1602   1.082   .     S
C1535  N1605   1.364   .     A
C1535  C1537   1.423   .     A
C1536  H1570   1.081   .     S
C1536  C1538   1.425   .     A
C1536  N1603   1.361   .     A
C1537  N1603   1.373   .     A
C1537  N1612   1.419   .     S
C1538  N1605   1.378   .     A
C1538  N1604   1.424   .     S
C1539  O1619   1.296   .     A
C1539  C1541   1.465   .     S
C1539  O1437   1.298   1_655 S
C1540  C1543   1.464   .     S
C1540  O1620   1.296   .     A
C1541  C1548   1.393   .     A
C1541  C1546   1.397   .     A
C1542  O1614   1.291   .     A
C1542  O1436   1.290   1_655 S
C1543  C1549   1.394   .     A
C1543  C1547   1.397   .     A
C1544  N1606   1.433   .     S
C1544  C1546   1.400   .     A
C1544  C1552   1.414   .     A
C1545  C1554   1.414   .     A
C1545  C1547   1.400   .     A
C1545  N1607   1.433   .     S
C1546  H1419   1.084   1_655 S
C1548  C1550   1.402   .     A
C1548  H1597   1.075   .     S
C1549  C1551   1.402   .     A
C1549  H1591   1.076   .     S
C1550  C1555   1.428   .     A
C1550  C1552   1.417   .     A
C1551  C1556   1.428   .     A
C1551  C1554   1.417   .     A
C1552  C752    1.393   1_556 S
C1553  C1556   1.433   .     A
C1553  C1562   1.390   .     A
C1553  N1608   1.437   .     S
C1555  C1561   1.433   .     A
C1555  C746    1.430   1_556 S
C1557  H1581   1.112   .     S
C1557  N1610   1.445   .     S
C1557  H1582   1.111   .     S
C1557  H1583   1.106   .     S
C1558  H1586   1.111   .     S
C1558  H1587   1.111   .     S
C1558  H1585   1.111   .     S
C1558  N1611   1.448   .     S
C1559  H1589   1.111   .     S
C1559  H1590   1.111   .     S
C1559  H1592   1.110   .     S
C1559  N1612   1.448   .     S
C1560  H1594   1.110   .     S
C1560  N1604   1.449   .     S
C1560  H1596   1.111   .     S
C1560  H1595   1.110   .     S
C1561  C1563   1.390   .     A
C1561  N1609   1.437   .     S
C1562  H1569   1.084   .     S
C1563  H1580   1.084   .     S
C1563  C744    1.393   1_556 S
C1564  H1600   1.085   .     S
C1564  C1354   1.398   1_655 S
C1565  H1601   1.082   .     S
C1565  C992    1.399   1_565 S
C1566  N1610   1.424   .     S
C1566  C1024   1.388   1_565 S
Cu1567 O1620   1.925   .     S
Cu1567 O1616   1.951   .     S
Cu1567 N1603   2.018   .     S
Cu1567 O1617   1.942   .     S
Cu1567 O1613   1.954   .     S
Cu1568 O1619   1.925   .     S
Cu1568 N1605   2.018   .     S
Cu1568 O1615   1.951   .     S
Cu1568 O1618   1.942   .     S
Cu1568 O1614   1.954   .     S
Cu1568 Cu1387  2.686   1_655 S
H1573  N1427   1.045   1_655 S
H1574  N1427   1.044   1_655 S
H1575  N1608   1.044   .     S
H1576  N1608   1.045   .     S
H1577  N1609   1.045   .     S
H1578  N1609   1.044   .     S
H1579  N1610   1.032   .     S
H1584  N1611   1.032   .     S
H1588  N1612   1.031   .     S
H1593  N1604   1.030   .     S
H1598  C1367   1.084   1_655 S
N1606  H1391   1.044   1_655 S
N1606  H1392   1.045   1_655 S
O1615  C1351   1.290   1_655 S
O1618  C1360   1.298   1_655 S
