data_str_m2_o1_o18_pcu_sym.106
_audit_creation_date              2020-01-03
_audit_creation_method            'Materials Studio'
_symmetry_space_group_name_H-M    'P1'
_symmetry_Int_Tables_number       1
_symmetry_cell_setting            triclinic
loop_
_symmetry_equiv_pos_as_xyz
  x,y,z
_cell_length_a                    28.5672
_cell_length_b                    32.4378
_cell_length_c                    30.9037
_cell_angle_alpha                 89.9156
_cell_angle_beta                  74.4741
_cell_angle_gamma                 90.3074
loop_
_atom_site_label
_atom_site_type_symbol
_atom_site_fract_x
_atom_site_fract_y
_atom_site_fract_z
_atom_site_U_iso_or_equiv
_atom_site_adp_type
_atom_site_occupancy
C1     C     0.00009   0.08742   0.24906   0.00000  Uiso   1.00
C2     C     0.33325   0.24592   0.25094   0.00000  Uiso   1.00
C3     C     0.19639   0.16353   0.04728   0.00000  Uiso   1.00
C4     C     0.13694   0.16980   0.45272   0.00000  Uiso   1.00
C5     C     0.24299   0.15128   0.02451   0.00000  Uiso   1.00
C6     C     0.09034   0.18206   0.47549   0.00000  Uiso   1.00
C7     C     0.30491   0.02041   0.22593   0.00000  Uiso   1.00
C8     C     0.02843   0.31293   0.27407   0.00000  Uiso   1.00
C9     C     0.30512   0.31106   0.22751   0.00000  Uiso   1.00
C10    C     0.02821   0.02227   0.27249   0.00000  Uiso   1.00
C11    C     0.00014   0.29052   0.25120   0.00000  Uiso   1.00
C12    C     0.33320   0.04281   0.24880   0.00000  Uiso   1.00
C13    C     0.18343   0.14030   0.27711   0.00000  Uiso   1.00
C14    C     0.14990   0.19304   0.22290   0.00000  Uiso   1.00
C15    C     0.13382   0.14036   0.27716   0.00000  Uiso   1.00
C16    C     0.19952   0.19297   0.22284   0.00000  Uiso   1.00
C17    C     0.30610   0.16613   0.33610   0.00000  Uiso   1.00
C18    C     0.02723   0.16721   0.16390   0.00000  Uiso   1.00
C19    C     0.29102   0.16240   0.38515   0.00000  Uiso   1.00
C20    C     0.04231   0.17094   0.11485   0.00000  Uiso   1.00
C21    C     0.30599   0.14232   0.45551   0.00000  Uiso   1.00
C22    C     0.02734   0.19101   0.04449   0.00000  Uiso   1.00
C23    C     0.32253   0.14734   0.40912   0.00000  Uiso   1.00
C24    C     0.01080   0.18600   0.09088   0.00000  Uiso   1.00
C25    C     0.24298   0.17145   0.40781   0.00000  Uiso   1.00
C26    C     0.09035   0.16189   0.09219   0.00000  Uiso   1.00
C27    C     0.22401   0.16194   0.45344   0.00000  Uiso   1.00
C28    C     0.10933   0.17140   0.04656   0.00000  Uiso   1.00
C29    C     0.25734   0.15058   0.47790   0.00000  Uiso   1.00
C30    C     0.07599   0.18275   0.02210   0.00000  Uiso   1.00
C31    C     0.17376   0.16633   0.47598   0.00000  Uiso   1.00
C32    C     0.15958   0.16701   0.02402   0.00000  Uiso   1.00
Cu33   Cu    0.04689   0.16667   0.25000   0.00000  Uiso   1.00
Cu34   Cu    0.28645   0.16666   0.25000   0.00000  Uiso   1.00
H35    H     0.26959   0.14631   0.04325   0.00000  Uiso   1.00
H36    H     0.06374   0.18703   0.45675   0.00000  Uiso   1.00
H37    H     0.11185   0.14554   0.11036   0.00000  Uiso   1.00
H38    H     0.22149   0.18779   0.38964   0.00000  Uiso   1.00
H39    H     0.30679   0.19336   0.10782   0.00000  Uiso   1.00
H40    H     0.02654   0.13997   0.39218   0.00000  Uiso   1.00
H41    H     0.33129   0.13241   0.47398   0.00000  Uiso   1.00
H42    H     0.00204   0.20092   0.02602   0.00000  Uiso   1.00
H43    H     0.28384   0.29384   0.20937   0.00000  Uiso   1.00
H44    H     0.04950   0.03950   0.29063   0.00000  Uiso   1.00
H45    H     0.19569   0.11913   0.29879   0.00000  Uiso   1.00
H46    H     0.13764   0.21420   0.20121   0.00000  Uiso   1.00
H47    H     0.10867   0.11932   0.29897   0.00000  Uiso   1.00
H48    H     0.22466   0.21402   0.20103   0.00000  Uiso   1.00
N49    N     0.11736   0.16668   0.24999   0.00000  Uiso   1.00
N50    N     0.21597   0.16666   0.25001   0.00000  Uiso   1.00
O51    O     0.03958   0.10655   0.25000   0.00000  Uiso   1.00
O52    O     0.29375   0.22678   0.25000   0.00000  Uiso   1.00
O53    O     0.29372   0.10654   0.25001   0.00000  Uiso   1.00
O54    O     0.03961   0.22679   0.25000   0.00000  Uiso   1.00
O55    O     0.01852   0.16668   0.31492   0.00000  Uiso   1.00
O56    O     0.31481   0.16666   0.18509   0.00000  Uiso   1.00
O57    O     0.27267   0.16667   0.31492   0.00000  Uiso   1.00
O58    O     0.06067   0.16667   0.18508   0.00000  Uiso   1.00
Cl59   Cl    0.19103   0.18225   0.10209   0.00000  Uiso   1.00
Cl60   Cl    0.14230   0.15109   0.39791   0.00000  Uiso   1.00
Cl61   Cl    0.27081   0.04404   0.19294   0.00000  Uiso   1.00
Cl62   Cl    0.06253   0.28929   0.30706   0.00000  Uiso   1.00
C63    C     0.33342   0.08742   0.24906   0.00000  Uiso   1.00
C64    C     0.66658   0.24592   0.25094   0.00000  Uiso   1.00
C65    C     0.52973   0.16353   0.04728   0.00000  Uiso   1.00
C66    C     0.47027   0.16980   0.45272   0.00000  Uiso   1.00
C67    C     0.57633   0.15128   0.02451   0.00000  Uiso   1.00
C68    C     0.42367   0.18206   0.47549   0.00000  Uiso   1.00
C69    C     0.63824   0.02041   0.22593   0.00000  Uiso   1.00
C70    C     0.36176   0.31293   0.27407   0.00000  Uiso   1.00
C71    C     0.63845   0.31106   0.22751   0.00000  Uiso   1.00
C72    C     0.36155   0.02227   0.27249   0.00000  Uiso   1.00
C73    C     0.33347   0.29052   0.25120   0.00000  Uiso   1.00
C74    C     0.66653   0.04281   0.24880   0.00000  Uiso   1.00
C75    C     0.51677   0.14030   0.27711   0.00000  Uiso   1.00
C76    C     0.48323   0.19304   0.22290   0.00000  Uiso   1.00
C77    C     0.46715   0.14036   0.27716   0.00000  Uiso   1.00
C78    C     0.53285   0.19297   0.22284   0.00000  Uiso   1.00
C79    C     0.63944   0.16613   0.33610   0.00000  Uiso   1.00
C80    C     0.36056   0.16721   0.16390   0.00000  Uiso   1.00
C81    C     0.62435   0.16240   0.38515   0.00000  Uiso   1.00
C82    C     0.37565   0.17094   0.11485   0.00000  Uiso   1.00
C83    C     0.63933   0.14232   0.45551   0.00000  Uiso   1.00
C84    C     0.36067   0.19101   0.04449   0.00000  Uiso   1.00
C85    C     0.65586   0.14734   0.40912   0.00000  Uiso   1.00
C86    C     0.34414   0.18600   0.09088   0.00000  Uiso   1.00
C87    C     0.57631   0.17145   0.40781   0.00000  Uiso   1.00
C88    C     0.42369   0.16189   0.09219   0.00000  Uiso   1.00
C89    C     0.55734   0.16194   0.45344   0.00000  Uiso   1.00
C90    C     0.44266   0.17140   0.04656   0.00000  Uiso   1.00
C91    C     0.59067   0.15058   0.47790   0.00000  Uiso   1.00
C92    C     0.40933   0.18275   0.02210   0.00000  Uiso   1.00
C93    C     0.50709   0.16633   0.47598   0.00000  Uiso   1.00
C94    C     0.49291   0.16701   0.02402   0.00000  Uiso   1.00
Cu95   Cu    0.38022   0.16667   0.25000   0.00000  Uiso   1.00
Cu96   Cu    0.61978   0.16666   0.25000   0.00000  Uiso   1.00
H97    H     0.60293   0.14631   0.04325   0.00000  Uiso   1.00
H98    H     0.39707   0.18703   0.45675   0.00000  Uiso   1.00
H99    H     0.44518   0.14554   0.11036   0.00000  Uiso   1.00
H100   H     0.55482   0.18779   0.38964   0.00000  Uiso   1.00
H101   H     0.64013   0.19336   0.10782   0.00000  Uiso   1.00
H102   H     0.35987   0.13997   0.39218   0.00000  Uiso   1.00
H103   H     0.66462   0.13241   0.47398   0.00000  Uiso   1.00
H104   H     0.33538   0.20092   0.02602   0.00000  Uiso   1.00
H105   H     0.61717   0.29384   0.20937   0.00000  Uiso   1.00
H106   H     0.38283   0.03950   0.29063   0.00000  Uiso   1.00
H107   H     0.52903   0.11913   0.29879   0.00000  Uiso   1.00
H108   H     0.47097   0.21420   0.20121   0.00000  Uiso   1.00
H109   H     0.44201   0.11932   0.29897   0.00000  Uiso   1.00
H110   H     0.55799   0.21402   0.20103   0.00000  Uiso   1.00
N111   N     0.45069   0.16668   0.24999   0.00000  Uiso   1.00
N112   N     0.54931   0.16666   0.25001   0.00000  Uiso   1.00
O113   O     0.37291   0.10655   0.25000   0.00000  Uiso   1.00
O114   O     0.62709   0.22678   0.25000   0.00000  Uiso   1.00
O115   O     0.62706   0.10654   0.25001   0.00000  Uiso   1.00
O116   O     0.37294   0.22679   0.25000   0.00000  Uiso   1.00
O117   O     0.35186   0.16668   0.31492   0.00000  Uiso   1.00
O118   O     0.64814   0.16666   0.18509   0.00000  Uiso   1.00
O119   O     0.60600   0.16667   0.31492   0.00000  Uiso   1.00
O120   O     0.39400   0.16667   0.18508   0.00000  Uiso   1.00
Cl121  Cl    0.52436   0.18225   0.10209   0.00000  Uiso   1.00
Cl122  Cl    0.47564   0.15109   0.39791   0.00000  Uiso   1.00
Cl123  Cl    0.60415   0.04404   0.19294   0.00000  Uiso   1.00
Cl124  Cl    0.39586   0.28929   0.30706   0.00000  Uiso   1.00
C125   C     0.66675   0.08742   0.24906   0.00000  Uiso   1.00
C126   C     0.99991   0.24592   0.25094   0.00000  Uiso   1.00
C127   C     0.86306   0.16353   0.04728   0.00000  Uiso   1.00
C128   C     0.80361   0.16980   0.45272   0.00000  Uiso   1.00
C129   C     0.90966   0.15128   0.02451   0.00000  Uiso   1.00
C130   C     0.75701   0.18206   0.47549   0.00000  Uiso   1.00
C131   C     0.97157   0.02041   0.22593   0.00000  Uiso   1.00
C132   C     0.69510   0.31293   0.27407   0.00000  Uiso   1.00
C133   C     0.97179   0.31106   0.22751   0.00000  Uiso   1.00
C134   C     0.69488   0.02227   0.27249   0.00000  Uiso   1.00
C135   C     0.66680   0.29052   0.25120   0.00000  Uiso   1.00
C136   C     0.99986   0.04281   0.24880   0.00000  Uiso   1.00
C137   C     0.85010   0.14030   0.27711   0.00000  Uiso   1.00
C138   C     0.81657   0.19304   0.22290   0.00000  Uiso   1.00
C139   C     0.80048   0.14036   0.27716   0.00000  Uiso   1.00
C140   C     0.86618   0.19297   0.22284   0.00000  Uiso   1.00
C141   C     0.97277   0.16613   0.33610   0.00000  Uiso   1.00
C142   C     0.69390   0.16721   0.16390   0.00000  Uiso   1.00
C143   C     0.95769   0.16240   0.38515   0.00000  Uiso   1.00
C144   C     0.70898   0.17094   0.11485   0.00000  Uiso   1.00
C145   C     0.97266   0.14232   0.45551   0.00000  Uiso   1.00
C146   C     0.69401   0.19101   0.04449   0.00000  Uiso   1.00
C147   C     0.98920   0.14734   0.40912   0.00000  Uiso   1.00
C148   C     0.67747   0.18600   0.09088   0.00000  Uiso   1.00
C149   C     0.90965   0.17145   0.40781   0.00000  Uiso   1.00
C150   C     0.75702   0.16189   0.09219   0.00000  Uiso   1.00
C151   C     0.89067   0.16194   0.45344   0.00000  Uiso   1.00
C152   C     0.77599   0.17140   0.04656   0.00000  Uiso   1.00
C153   C     0.92401   0.15058   0.47790   0.00000  Uiso   1.00
C154   C     0.74266   0.18275   0.02210   0.00000  Uiso   1.00
C155   C     0.84042   0.16633   0.47598   0.00000  Uiso   1.00
C156   C     0.82624   0.16701   0.02402   0.00000  Uiso   1.00
Cu157  Cu    0.71355   0.16667   0.25000   0.00000  Uiso   1.00
Cu158  Cu    0.95311   0.16666   0.25000   0.00000  Uiso   1.00
H159   H     0.93626   0.14631   0.04325   0.00000  Uiso   1.00
H160   H     0.73041   0.18703   0.45675   0.00000  Uiso   1.00
H161   H     0.77851   0.14554   0.11036   0.00000  Uiso   1.00
H162   H     0.88815   0.18779   0.38964   0.00000  Uiso   1.00
H163   H     0.97346   0.19336   0.10782   0.00000  Uiso   1.00
H164   H     0.69321   0.13997   0.39218   0.00000  Uiso   1.00
H165   H     0.99795   0.13241   0.47398   0.00000  Uiso   1.00
H166   H     0.66871   0.20092   0.02602   0.00000  Uiso   1.00
H167   H     0.95050   0.29384   0.20937   0.00000  Uiso   1.00
H168   H     0.71616   0.03950   0.29063   0.00000  Uiso   1.00
H169   H     0.86236   0.11913   0.29879   0.00000  Uiso   1.00
H170   H     0.80431   0.21420   0.20121   0.00000  Uiso   1.00
H171   H     0.77534   0.11932   0.29897   0.00000  Uiso   1.00
H172   H     0.89133   0.21402   0.20103   0.00000  Uiso   1.00
N173   N     0.78403   0.16668   0.24999   0.00000  Uiso   1.00
N174   N     0.88264   0.16666   0.25001   0.00000  Uiso   1.00
O175   O     0.70625   0.10655   0.25000   0.00000  Uiso   1.00
O176   O     0.96042   0.22678   0.25000   0.00000  Uiso   1.00
O177   O     0.96039   0.10654   0.25001   0.00000  Uiso   1.00
O178   O     0.70628   0.22679   0.25000   0.00000  Uiso   1.00
O179   O     0.68519   0.16668   0.31492   0.00000  Uiso   1.00
O180   O     0.98148   0.16666   0.18509   0.00000  Uiso   1.00
O181   O     0.93933   0.16667   0.31492   0.00000  Uiso   1.00
O182   O     0.72733   0.16667   0.18508   0.00000  Uiso   1.00
Cl183  Cl    0.85770   0.18225   0.10209   0.00000  Uiso   1.00
Cl184  Cl    0.80897   0.15109   0.39791   0.00000  Uiso   1.00
Cl185  Cl    0.93748   0.04404   0.19294   0.00000  Uiso   1.00
Cl186  Cl    0.72919   0.28929   0.30706   0.00000  Uiso   1.00
C187   C     0.00009   0.42075   0.24906   0.00000  Uiso   1.00
C188   C     0.33325   0.57925   0.25094   0.00000  Uiso   1.00
C189   C     0.19639   0.49687   0.04728   0.00000  Uiso   1.00
C190   C     0.13694   0.50314   0.45272   0.00000  Uiso   1.00
C191   C     0.24299   0.48461   0.02451   0.00000  Uiso   1.00
C192   C     0.09034   0.51539   0.47549   0.00000  Uiso   1.00
C193   C     0.30491   0.35374   0.22593   0.00000  Uiso   1.00
C194   C     0.02843   0.64626   0.27407   0.00000  Uiso   1.00
C195   C     0.30512   0.64439   0.22751   0.00000  Uiso   1.00
C196   C     0.02821   0.35561   0.27249   0.00000  Uiso   1.00
C197   C     0.00014   0.62386   0.25120   0.00000  Uiso   1.00
C198   C     0.33320   0.37614   0.24880   0.00000  Uiso   1.00
C199   C     0.18343   0.47363   0.27711   0.00000  Uiso   1.00
C200   C     0.14990   0.52637   0.22290   0.00000  Uiso   1.00
C201   C     0.13382   0.47369   0.27716   0.00000  Uiso   1.00
C202   C     0.19952   0.52631   0.22284   0.00000  Uiso   1.00
C203   C     0.30610   0.49946   0.33610   0.00000  Uiso   1.00
C204   C     0.02723   0.50054   0.16390   0.00000  Uiso   1.00
C205   C     0.29102   0.49573   0.38515   0.00000  Uiso   1.00
C206   C     0.04231   0.50427   0.11485   0.00000  Uiso   1.00
C207   C     0.30599   0.47566   0.45551   0.00000  Uiso   1.00
C208   C     0.02734   0.52434   0.04449   0.00000  Uiso   1.00
C209   C     0.32253   0.48067   0.40912   0.00000  Uiso   1.00
C210   C     0.01080   0.51933   0.09088   0.00000  Uiso   1.00
C211   C     0.24298   0.50478   0.40781   0.00000  Uiso   1.00
C212   C     0.09035   0.49522   0.09219   0.00000  Uiso   1.00
C213   C     0.22401   0.49528   0.45344   0.00000  Uiso   1.00
C214   C     0.10933   0.50473   0.04656   0.00000  Uiso   1.00
C215   C     0.25734   0.48392   0.47790   0.00000  Uiso   1.00
C216   C     0.07599   0.51609   0.02210   0.00000  Uiso   1.00
C217   C     0.17376   0.49966   0.47598   0.00000  Uiso   1.00
C218   C     0.15958   0.50034   0.02402   0.00000  Uiso   1.00
Cu219  Cu    0.04689   0.50001   0.25000   0.00000  Uiso   1.00
Cu220  Cu    0.28645   0.49999   0.25000   0.00000  Uiso   1.00
H221   H     0.26959   0.47964   0.04325   0.00000  Uiso   1.00
H222   H     0.06374   0.52036   0.45675   0.00000  Uiso   1.00
H223   H     0.11185   0.47888   0.11036   0.00000  Uiso   1.00
H224   H     0.22149   0.52113   0.38964   0.00000  Uiso   1.00
H225   H     0.30679   0.52669   0.10782   0.00000  Uiso   1.00
H226   H     0.02654   0.47330   0.39218   0.00000  Uiso   1.00
H227   H     0.33129   0.46575   0.47398   0.00000  Uiso   1.00
H228   H     0.00204   0.53425   0.02602   0.00000  Uiso   1.00
H229   H     0.28384   0.62717   0.20937   0.00000  Uiso   1.00
H230   H     0.04950   0.37283   0.29063   0.00000  Uiso   1.00
H231   H     0.19569   0.45247   0.29879   0.00000  Uiso   1.00
H232   H     0.13764   0.54753   0.20121   0.00000  Uiso   1.00
H233   H     0.10867   0.45265   0.29897   0.00000  Uiso   1.00
H234   H     0.22466   0.54735   0.20103   0.00000  Uiso   1.00
N235   N     0.11736   0.50001   0.24999   0.00000  Uiso   1.00
N236   N     0.21597   0.49999   0.25001   0.00000  Uiso   1.00
O237   O     0.03958   0.43989   0.25000   0.00000  Uiso   1.00
O238   O     0.29375   0.56011   0.25000   0.00000  Uiso   1.00
O239   O     0.29372   0.43988   0.25001   0.00000  Uiso   1.00
O240   O     0.03961   0.56012   0.25000   0.00000  Uiso   1.00
O241   O     0.01852   0.50001   0.31492   0.00000  Uiso   1.00
O242   O     0.31481   0.49999   0.18509   0.00000  Uiso   1.00
O243   O     0.27267   0.50000   0.31492   0.00000  Uiso   1.00
O244   O     0.06067   0.50000   0.18508   0.00000  Uiso   1.00
Cl245  Cl    0.19103   0.51559   0.10209   0.00000  Uiso   1.00
Cl246  Cl    0.14230   0.48442   0.39791   0.00000  Uiso   1.00
Cl247  Cl    0.27081   0.37737   0.19294   0.00000  Uiso   1.00
Cl248  Cl    0.06253   0.62263   0.30706   0.00000  Uiso   1.00
C249   C     0.33342   0.42075   0.24906   0.00000  Uiso   1.00
C250   C     0.66658   0.57925   0.25094   0.00000  Uiso   1.00
C251   C     0.52973   0.49687   0.04728   0.00000  Uiso   1.00
C252   C     0.47027   0.50314   0.45272   0.00000  Uiso   1.00
C253   C     0.57633   0.48461   0.02451   0.00000  Uiso   1.00
C254   C     0.42367   0.51539   0.47549   0.00000  Uiso   1.00
C255   C     0.63824   0.35374   0.22593   0.00000  Uiso   1.00
C256   C     0.36176   0.64626   0.27407   0.00000  Uiso   1.00
C257   C     0.63845   0.64439   0.22751   0.00000  Uiso   1.00
C258   C     0.36155   0.35561   0.27249   0.00000  Uiso   1.00
C259   C     0.33347   0.62386   0.25120   0.00000  Uiso   1.00
C260   C     0.66653   0.37614   0.24880   0.00000  Uiso   1.00
C261   C     0.51677   0.47363   0.27711   0.00000  Uiso   1.00
C262   C     0.48323   0.52637   0.22290   0.00000  Uiso   1.00
C263   C     0.46715   0.47369   0.27716   0.00000  Uiso   1.00
C264   C     0.53285   0.52631   0.22284   0.00000  Uiso   1.00
C265   C     0.63944   0.49946   0.33610   0.00000  Uiso   1.00
C266   C     0.36056   0.50054   0.16390   0.00000  Uiso   1.00
C267   C     0.62435   0.49573   0.38515   0.00000  Uiso   1.00
C268   C     0.37565   0.50427   0.11485   0.00000  Uiso   1.00
C269   C     0.63933   0.47566   0.45551   0.00000  Uiso   1.00
C270   C     0.36067   0.52434   0.04449   0.00000  Uiso   1.00
C271   C     0.65586   0.48067   0.40912   0.00000  Uiso   1.00
C272   C     0.34414   0.51933   0.09088   0.00000  Uiso   1.00
C273   C     0.57631   0.50478   0.40781   0.00000  Uiso   1.00
C274   C     0.42369   0.49522   0.09219   0.00000  Uiso   1.00
C275   C     0.55734   0.49528   0.45344   0.00000  Uiso   1.00
C276   C     0.44266   0.50473   0.04656   0.00000  Uiso   1.00
C277   C     0.59067   0.48392   0.47790   0.00000  Uiso   1.00
C278   C     0.40933   0.51609   0.02210   0.00000  Uiso   1.00
C279   C     0.50709   0.49966   0.47598   0.00000  Uiso   1.00
C280   C     0.49291   0.50034   0.02402   0.00000  Uiso   1.00
Cu281  Cu    0.38022   0.50001   0.25000   0.00000  Uiso   1.00
Cu282  Cu    0.61978   0.49999   0.25000   0.00000  Uiso   1.00
H283   H     0.60293   0.47964   0.04325   0.00000  Uiso   1.00
H284   H     0.39707   0.52036   0.45675   0.00000  Uiso   1.00
H285   H     0.44518   0.47888   0.11036   0.00000  Uiso   1.00
H286   H     0.55482   0.52113   0.38964   0.00000  Uiso   1.00
H287   H     0.64013   0.52669   0.10782   0.00000  Uiso   1.00
H288   H     0.35987   0.47330   0.39218   0.00000  Uiso   1.00
H289   H     0.66462   0.46575   0.47398   0.00000  Uiso   1.00
H290   H     0.33538   0.53425   0.02602   0.00000  Uiso   1.00
H291   H     0.61717   0.62717   0.20937   0.00000  Uiso   1.00
H292   H     0.38283   0.37283   0.29063   0.00000  Uiso   1.00
H293   H     0.52903   0.45247   0.29879   0.00000  Uiso   1.00
H294   H     0.47097   0.54753   0.20121   0.00000  Uiso   1.00
H295   H     0.44201   0.45265   0.29897   0.00000  Uiso   1.00
H296   H     0.55799   0.54735   0.20103   0.00000  Uiso   1.00
N297   N     0.45069   0.50001   0.24999   0.00000  Uiso   1.00
N298   N     0.54931   0.49999   0.25001   0.00000  Uiso   1.00
O299   O     0.37291   0.43989   0.25000   0.00000  Uiso   1.00
O300   O     0.62709   0.56011   0.25000   0.00000  Uiso   1.00
O301   O     0.62706   0.43988   0.25001   0.00000  Uiso   1.00
O302   O     0.37294   0.56012   0.25000   0.00000  Uiso   1.00
O303   O     0.35186   0.50001   0.31492   0.00000  Uiso   1.00
O304   O     0.64814   0.49999   0.18509   0.00000  Uiso   1.00
O305   O     0.60600   0.50000   0.31492   0.00000  Uiso   1.00
O306   O     0.39400   0.50000   0.18508   0.00000  Uiso   1.00
Cl307  Cl    0.52436   0.51559   0.10209   0.00000  Uiso   1.00
Cl308  Cl    0.47564   0.48442   0.39791   0.00000  Uiso   1.00
Cl309  Cl    0.60415   0.37737   0.19294   0.00000  Uiso   1.00
Cl310  Cl    0.39586   0.62263   0.30706   0.00000  Uiso   1.00
C311   C     0.66675   0.42075   0.24906   0.00000  Uiso   1.00
C312   C     0.99991   0.57925   0.25094   0.00000  Uiso   1.00
C313   C     0.86306   0.49687   0.04728   0.00000  Uiso   1.00
C314   C     0.80361   0.50314   0.45272   0.00000  Uiso   1.00
C315   C     0.90966   0.48461   0.02451   0.00000  Uiso   1.00
C316   C     0.75701   0.51539   0.47549   0.00000  Uiso   1.00
C317   C     0.97157   0.35374   0.22593   0.00000  Uiso   1.00
C318   C     0.69510   0.64626   0.27407   0.00000  Uiso   1.00
C319   C     0.97179   0.64439   0.22751   0.00000  Uiso   1.00
C320   C     0.69488   0.35561   0.27249   0.00000  Uiso   1.00
C321   C     0.66680   0.62386   0.25120   0.00000  Uiso   1.00
C322   C     0.99986   0.37614   0.24880   0.00000  Uiso   1.00
C323   C     0.85010   0.47363   0.27711   0.00000  Uiso   1.00
C324   C     0.81657   0.52637   0.22290   0.00000  Uiso   1.00
C325   C     0.80048   0.47369   0.27716   0.00000  Uiso   1.00
C326   C     0.86618   0.52631   0.22284   0.00000  Uiso   1.00
C327   C     0.97277   0.49946   0.33610   0.00000  Uiso   1.00
C328   C     0.69390   0.50054   0.16390   0.00000  Uiso   1.00
C329   C     0.95769   0.49573   0.38515   0.00000  Uiso   1.00
C330   C     0.70898   0.50427   0.11485   0.00000  Uiso   1.00
C331   C     0.97266   0.47566   0.45551   0.00000  Uiso   1.00
C332   C     0.69401   0.52434   0.04449   0.00000  Uiso   1.00
C333   C     0.98920   0.48067   0.40912   0.00000  Uiso   1.00
C334   C     0.67747   0.51933   0.09088   0.00000  Uiso   1.00
C335   C     0.90965   0.50478   0.40781   0.00000  Uiso   1.00
C336   C     0.75702   0.49522   0.09219   0.00000  Uiso   1.00
C337   C     0.89067   0.49528   0.45344   0.00000  Uiso   1.00
C338   C     0.77599   0.50473   0.04656   0.00000  Uiso   1.00
C339   C     0.92401   0.48392   0.47790   0.00000  Uiso   1.00
C340   C     0.74266   0.51609   0.02210   0.00000  Uiso   1.00
C341   C     0.84042   0.49966   0.47598   0.00000  Uiso   1.00
C342   C     0.82624   0.50034   0.02402   0.00000  Uiso   1.00
Cu343  Cu    0.71355   0.50001   0.25000   0.00000  Uiso   1.00
Cu344  Cu    0.95311   0.49999   0.25000   0.00000  Uiso   1.00
H345   H     0.93626   0.47964   0.04325   0.00000  Uiso   1.00
H346   H     0.73041   0.52036   0.45675   0.00000  Uiso   1.00
H347   H     0.77851   0.47888   0.11036   0.00000  Uiso   1.00
H348   H     0.88815   0.52113   0.38964   0.00000  Uiso   1.00
H349   H     0.97346   0.52669   0.10782   0.00000  Uiso   1.00
H350   H     0.69321   0.47330   0.39218   0.00000  Uiso   1.00
H351   H     0.99795   0.46575   0.47398   0.00000  Uiso   1.00
H352   H     0.66871   0.53425   0.02602   0.00000  Uiso   1.00
H353   H     0.95050   0.62717   0.20937   0.00000  Uiso   1.00
H354   H     0.71616   0.37283   0.29063   0.00000  Uiso   1.00
H355   H     0.86236   0.45247   0.29879   0.00000  Uiso   1.00
H356   H     0.80431   0.54753   0.20121   0.00000  Uiso   1.00
H357   H     0.77534   0.45265   0.29897   0.00000  Uiso   1.00
H358   H     0.89133   0.54735   0.20103   0.00000  Uiso   1.00
N359   N     0.78403   0.50001   0.24999   0.00000  Uiso   1.00
N360   N     0.88264   0.49999   0.25001   0.00000  Uiso   1.00
O361   O     0.70625   0.43989   0.25000   0.00000  Uiso   1.00
O362   O     0.96042   0.56011   0.25000   0.00000  Uiso   1.00
O363   O     0.96039   0.43988   0.25001   0.00000  Uiso   1.00
O364   O     0.70628   0.56012   0.25000   0.00000  Uiso   1.00
O365   O     0.68519   0.50001   0.31492   0.00000  Uiso   1.00
O366   O     0.98148   0.49999   0.18509   0.00000  Uiso   1.00
O367   O     0.93933   0.50000   0.31492   0.00000  Uiso   1.00
O368   O     0.72733   0.50000   0.18508   0.00000  Uiso   1.00
Cl369  Cl    0.85770   0.51559   0.10209   0.00000  Uiso   1.00
Cl370  Cl    0.80897   0.48442   0.39791   0.00000  Uiso   1.00
Cl371  Cl    0.93748   0.37737   0.19294   0.00000  Uiso   1.00
Cl372  Cl    0.72919   0.62263   0.30706   0.00000  Uiso   1.00
C373   C     0.00009   0.75408   0.24906   0.00000  Uiso   1.00
C374   C     0.33325   0.91258   0.25094   0.00000  Uiso   1.00
C375   C     0.19639   0.83020   0.04728   0.00000  Uiso   1.00
C376   C     0.13694   0.83647   0.45272   0.00000  Uiso   1.00
C377   C     0.24299   0.81795   0.02451   0.00000  Uiso   1.00
C378   C     0.09034   0.84872   0.47549   0.00000  Uiso   1.00
C379   C     0.30491   0.68707   0.22593   0.00000  Uiso   1.00
C380   C     0.02843   0.97959   0.27407   0.00000  Uiso   1.00
C381   C     0.30512   0.97773   0.22751   0.00000  Uiso   1.00
C382   C     0.02821   0.68894   0.27249   0.00000  Uiso   1.00
C383   C     0.00014   0.95719   0.25120   0.00000  Uiso   1.00
C384   C     0.33320   0.70948   0.24880   0.00000  Uiso   1.00
C385   C     0.18343   0.80696   0.27711   0.00000  Uiso   1.00
C386   C     0.14990   0.85970   0.22290   0.00000  Uiso   1.00
C387   C     0.13382   0.80703   0.27716   0.00000  Uiso   1.00
C388   C     0.19952   0.85964   0.22284   0.00000  Uiso   1.00
C389   C     0.30610   0.83279   0.33610   0.00000  Uiso   1.00
C390   C     0.02723   0.83387   0.16390   0.00000  Uiso   1.00
C391   C     0.29102   0.82906   0.38515   0.00000  Uiso   1.00
C392   C     0.04231   0.83760   0.11485   0.00000  Uiso   1.00
C393   C     0.30599   0.80899   0.45551   0.00000  Uiso   1.00
C394   C     0.02734   0.85768   0.04449   0.00000  Uiso   1.00
C395   C     0.32253   0.81400   0.40912   0.00000  Uiso   1.00
C396   C     0.01080   0.85266   0.09088   0.00000  Uiso   1.00
C397   C     0.24298   0.83812   0.40781   0.00000  Uiso   1.00
C398   C     0.09035   0.82855   0.09219   0.00000  Uiso   1.00
C399   C     0.22401   0.82861   0.45344   0.00000  Uiso   1.00
C400   C     0.10933   0.83806   0.04656   0.00000  Uiso   1.00
C401   C     0.25734   0.81725   0.47790   0.00000  Uiso   1.00
C402   C     0.07599   0.84942   0.02210   0.00000  Uiso   1.00
C403   C     0.17376   0.83300   0.47598   0.00000  Uiso   1.00
C404   C     0.15958   0.83368   0.02402   0.00000  Uiso   1.00
Cu405  Cu    0.04689   0.83334   0.25000   0.00000  Uiso   1.00
Cu406  Cu    0.28645   0.83333   0.25000   0.00000  Uiso   1.00
H407   H     0.26959   0.81298   0.04325   0.00000  Uiso   1.00
H408   H     0.06374   0.85369   0.45675   0.00000  Uiso   1.00
H409   H     0.11185   0.81221   0.11036   0.00000  Uiso   1.00
H410   H     0.22149   0.85446   0.38964   0.00000  Uiso   1.00
H411   H     0.30679   0.86003   0.10782   0.00000  Uiso   1.00
H412   H     0.02654   0.80664   0.39218   0.00000  Uiso   1.00
H413   H     0.33129   0.79908   0.47398   0.00000  Uiso   1.00
H414   H     0.00204   0.86759   0.02602   0.00000  Uiso   1.00
H415   H     0.28384   0.96050   0.20937   0.00000  Uiso   1.00
H416   H     0.04950   0.70616   0.29063   0.00000  Uiso   1.00
H417   H     0.19569   0.78580   0.29879   0.00000  Uiso   1.00
H418   H     0.13764   0.88087   0.20121   0.00000  Uiso   1.00
H419   H     0.10867   0.78598   0.29897   0.00000  Uiso   1.00
H420   H     0.22466   0.88068   0.20103   0.00000  Uiso   1.00
N421   N     0.11736   0.83334   0.24999   0.00000  Uiso   1.00
N422   N     0.21597   0.83332   0.25001   0.00000  Uiso   1.00
O423   O     0.03958   0.77322   0.25000   0.00000  Uiso   1.00
O424   O     0.29375   0.89345   0.25000   0.00000  Uiso   1.00
O425   O     0.29372   0.77321   0.25001   0.00000  Uiso   1.00
O426   O     0.03961   0.89346   0.25000   0.00000  Uiso   1.00
O427   O     0.01852   0.83334   0.31492   0.00000  Uiso   1.00
O428   O     0.31481   0.83332   0.18509   0.00000  Uiso   1.00
O429   O     0.27267   0.83333   0.31492   0.00000  Uiso   1.00
O430   O     0.06067   0.83333   0.18508   0.00000  Uiso   1.00
Cl431  Cl    0.19103   0.84892   0.10209   0.00000  Uiso   1.00
Cl432  Cl    0.14230   0.81775   0.39791   0.00000  Uiso   1.00
Cl433  Cl    0.27081   0.71071   0.19294   0.00000  Uiso   1.00
Cl434  Cl    0.06253   0.95596   0.30706   0.00000  Uiso   1.00
C435   C     0.33342   0.75408   0.24906   0.00000  Uiso   1.00
C436   C     0.66658   0.91258   0.25094   0.00000  Uiso   1.00
C437   C     0.52973   0.83020   0.04728   0.00000  Uiso   1.00
C438   C     0.47027   0.83647   0.45272   0.00000  Uiso   1.00
C439   C     0.57633   0.81795   0.02451   0.00000  Uiso   1.00
C440   C     0.42367   0.84872   0.47549   0.00000  Uiso   1.00
C441   C     0.63824   0.68707   0.22593   0.00000  Uiso   1.00
C442   C     0.36176   0.97959   0.27407   0.00000  Uiso   1.00
C443   C     0.63845   0.97773   0.22751   0.00000  Uiso   1.00
C444   C     0.36155   0.68894   0.27249   0.00000  Uiso   1.00
C445   C     0.33347   0.95719   0.25120   0.00000  Uiso   1.00
C446   C     0.66653   0.70948   0.24880   0.00000  Uiso   1.00
C447   C     0.51677   0.80696   0.27711   0.00000  Uiso   1.00
C448   C     0.48323   0.85970   0.22290   0.00000  Uiso   1.00
C449   C     0.46715   0.80703   0.27716   0.00000  Uiso   1.00
C450   C     0.53285   0.85964   0.22284   0.00000  Uiso   1.00
C451   C     0.63944   0.83279   0.33610   0.00000  Uiso   1.00
C452   C     0.36056   0.83387   0.16390   0.00000  Uiso   1.00
C453   C     0.62435   0.82906   0.38515   0.00000  Uiso   1.00
C454   C     0.37565   0.83760   0.11485   0.00000  Uiso   1.00
C455   C     0.63933   0.80899   0.45551   0.00000  Uiso   1.00
C456   C     0.36067   0.85768   0.04449   0.00000  Uiso   1.00
C457   C     0.65586   0.81400   0.40912   0.00000  Uiso   1.00
C458   C     0.34414   0.85266   0.09088   0.00000  Uiso   1.00
C459   C     0.57631   0.83812   0.40781   0.00000  Uiso   1.00
C460   C     0.42369   0.82855   0.09219   0.00000  Uiso   1.00
C461   C     0.55734   0.82861   0.45344   0.00000  Uiso   1.00
C462   C     0.44266   0.83806   0.04656   0.00000  Uiso   1.00
C463   C     0.59067   0.81725   0.47790   0.00000  Uiso   1.00
C464   C     0.40933   0.84942   0.02210   0.00000  Uiso   1.00
C465   C     0.50709   0.83300   0.47598   0.00000  Uiso   1.00
C466   C     0.49291   0.83368   0.02402   0.00000  Uiso   1.00
Cu467  Cu    0.38022   0.83334   0.25000   0.00000  Uiso   1.00
Cu468  Cu    0.61978   0.83333   0.25000   0.00000  Uiso   1.00
H469   H     0.60293   0.81298   0.04325   0.00000  Uiso   1.00
H470   H     0.39707   0.85369   0.45675   0.00000  Uiso   1.00
H471   H     0.44518   0.81221   0.11036   0.00000  Uiso   1.00
H472   H     0.55482   0.85446   0.38964   0.00000  Uiso   1.00
H473   H     0.64013   0.86003   0.10782   0.00000  Uiso   1.00
H474   H     0.35987   0.80664   0.39218   0.00000  Uiso   1.00
H475   H     0.66462   0.79908   0.47398   0.00000  Uiso   1.00
H476   H     0.33538   0.86759   0.02602   0.00000  Uiso   1.00
H477   H     0.61717   0.96050   0.20937   0.00000  Uiso   1.00
H478   H     0.38283   0.70616   0.29063   0.00000  Uiso   1.00
H479   H     0.52903   0.78580   0.29879   0.00000  Uiso   1.00
H480   H     0.47097   0.88087   0.20121   0.00000  Uiso   1.00
H481   H     0.44201   0.78598   0.29897   0.00000  Uiso   1.00
H482   H     0.55799   0.88068   0.20103   0.00000  Uiso   1.00
N483   N     0.45069   0.83334   0.24999   0.00000  Uiso   1.00
N484   N     0.54931   0.83332   0.25001   0.00000  Uiso   1.00
O485   O     0.37291   0.77322   0.25000   0.00000  Uiso   1.00
O486   O     0.62709   0.89345   0.25000   0.00000  Uiso   1.00
O487   O     0.62706   0.77321   0.25001   0.00000  Uiso   1.00
O488   O     0.37294   0.89346   0.25000   0.00000  Uiso   1.00
O489   O     0.35186   0.83334   0.31492   0.00000  Uiso   1.00
O490   O     0.64814   0.83332   0.18509   0.00000  Uiso   1.00
O491   O     0.60600   0.83333   0.31492   0.00000  Uiso   1.00
O492   O     0.39400   0.83333   0.18508   0.00000  Uiso   1.00
Cl493  Cl    0.52436   0.84892   0.10209   0.00000  Uiso   1.00
Cl494  Cl    0.47564   0.81775   0.39791   0.00000  Uiso   1.00
Cl495  Cl    0.60415   0.71071   0.19294   0.00000  Uiso   1.00
Cl496  Cl    0.39586   0.95596   0.30706   0.00000  Uiso   1.00
C497   C     0.66675   0.75408   0.24906   0.00000  Uiso   1.00
C498   C     0.99991   0.91258   0.25094   0.00000  Uiso   1.00
C499   C     0.86306   0.83020   0.04728   0.00000  Uiso   1.00
C500   C     0.80361   0.83647   0.45272   0.00000  Uiso   1.00
C501   C     0.90966   0.81795   0.02451   0.00000  Uiso   1.00
C502   C     0.75701   0.84872   0.47549   0.00000  Uiso   1.00
C503   C     0.97157   0.68707   0.22593   0.00000  Uiso   1.00
C504   C     0.69510   0.97959   0.27407   0.00000  Uiso   1.00
C505   C     0.97179   0.97773   0.22751   0.00000  Uiso   1.00
C506   C     0.69488   0.68894   0.27249   0.00000  Uiso   1.00
C507   C     0.66680   0.95719   0.25120   0.00000  Uiso   1.00
C508   C     0.99986   0.70948   0.24880   0.00000  Uiso   1.00
C509   C     0.85010   0.80696   0.27711   0.00000  Uiso   1.00
C510   C     0.81657   0.85970   0.22290   0.00000  Uiso   1.00
C511   C     0.80048   0.80703   0.27716   0.00000  Uiso   1.00
C512   C     0.86618   0.85964   0.22284   0.00000  Uiso   1.00
C513   C     0.97277   0.83279   0.33610   0.00000  Uiso   1.00
C514   C     0.69390   0.83387   0.16390   0.00000  Uiso   1.00
C515   C     0.95769   0.82906   0.38515   0.00000  Uiso   1.00
C516   C     0.70898   0.83760   0.11485   0.00000  Uiso   1.00
C517   C     0.97266   0.80899   0.45551   0.00000  Uiso   1.00
C518   C     0.69401   0.85768   0.04449   0.00000  Uiso   1.00
C519   C     0.98920   0.81400   0.40912   0.00000  Uiso   1.00
C520   C     0.67747   0.85266   0.09088   0.00000  Uiso   1.00
C521   C     0.90965   0.83812   0.40781   0.00000  Uiso   1.00
C522   C     0.75702   0.82855   0.09219   0.00000  Uiso   1.00
C523   C     0.89067   0.82861   0.45344   0.00000  Uiso   1.00
C524   C     0.77599   0.83806   0.04656   0.00000  Uiso   1.00
C525   C     0.92401   0.81725   0.47790   0.00000  Uiso   1.00
C526   C     0.74266   0.84942   0.02210   0.00000  Uiso   1.00
C527   C     0.84042   0.83300   0.47598   0.00000  Uiso   1.00
C528   C     0.82624   0.83368   0.02402   0.00000  Uiso   1.00
Cu529  Cu    0.71355   0.83334   0.25000   0.00000  Uiso   1.00
Cu530  Cu    0.95311   0.83333   0.25000   0.00000  Uiso   1.00
H531   H     0.93626   0.81298   0.04325   0.00000  Uiso   1.00
H532   H     0.73041   0.85369   0.45675   0.00000  Uiso   1.00
H533   H     0.77851   0.81221   0.11036   0.00000  Uiso   1.00
H534   H     0.88815   0.85446   0.38964   0.00000  Uiso   1.00
H535   H     0.97346   0.86003   0.10782   0.00000  Uiso   1.00
H536   H     0.69321   0.80664   0.39218   0.00000  Uiso   1.00
H537   H     0.99795   0.79908   0.47398   0.00000  Uiso   1.00
H538   H     0.66871   0.86759   0.02602   0.00000  Uiso   1.00
H539   H     0.95050   0.96050   0.20937   0.00000  Uiso   1.00
H540   H     0.71616   0.70616   0.29063   0.00000  Uiso   1.00
H541   H     0.86236   0.78580   0.29879   0.00000  Uiso   1.00
H542   H     0.80431   0.88087   0.20121   0.00000  Uiso   1.00
H543   H     0.77534   0.78598   0.29897   0.00000  Uiso   1.00
H544   H     0.89133   0.88068   0.20103   0.00000  Uiso   1.00
N545   N     0.78403   0.83334   0.24999   0.00000  Uiso   1.00
N546   N     0.88264   0.83332   0.25001   0.00000  Uiso   1.00
O547   O     0.70625   0.77322   0.25000   0.00000  Uiso   1.00
O548   O     0.96042   0.89345   0.25000   0.00000  Uiso   1.00
O549   O     0.96039   0.77321   0.25001   0.00000  Uiso   1.00
O550   O     0.70628   0.89346   0.25000   0.00000  Uiso   1.00
O551   O     0.68519   0.83334   0.31492   0.00000  Uiso   1.00
O552   O     0.98148   0.83332   0.18509   0.00000  Uiso   1.00
O553   O     0.93933   0.83333   0.31492   0.00000  Uiso   1.00
O554   O     0.72733   0.83333   0.18508   0.00000  Uiso   1.00
Cl555  Cl    0.85770   0.84892   0.10209   0.00000  Uiso   1.00
Cl556  Cl    0.80897   0.81775   0.39791   0.00000  Uiso   1.00
Cl557  Cl    0.93748   0.71071   0.19294   0.00000  Uiso   1.00
Cl558  Cl    0.72919   0.95596   0.30706   0.00000  Uiso   1.00
C559   C     0.00009   0.08742   0.74906   0.00000  Uiso   1.00
C560   C     0.33325   0.24592   0.75094   0.00000  Uiso   1.00
C561   C     0.19639   0.16353   0.54728   0.00000  Uiso   1.00
C562   C     0.13694   0.16980   0.95272   0.00000  Uiso   1.00
C563   C     0.24299   0.15128   0.52451   0.00000  Uiso   1.00
C564   C     0.09034   0.18206   0.97549   0.00000  Uiso   1.00
C565   C     0.30491   0.02041   0.72593   0.00000  Uiso   1.00
C566   C     0.02843   0.31293   0.77407   0.00000  Uiso   1.00
C567   C     0.30512   0.31106   0.72751   0.00000  Uiso   1.00
C568   C     0.02821   0.02227   0.77249   0.00000  Uiso   1.00
C569   C     0.00014   0.29052   0.75120   0.00000  Uiso   1.00
C570   C     0.33320   0.04281   0.74880   0.00000  Uiso   1.00
C571   C     0.18343   0.14030   0.77711   0.00000  Uiso   1.00
C572   C     0.14990   0.19304   0.72290   0.00000  Uiso   1.00
C573   C     0.13382   0.14036   0.77716   0.00000  Uiso   1.00
C574   C     0.19952   0.19297   0.72284   0.00000  Uiso   1.00
C575   C     0.30610   0.16613   0.83610   0.00000  Uiso   1.00
C576   C     0.02723   0.16721   0.66390   0.00000  Uiso   1.00
C577   C     0.29102   0.16240   0.88515   0.00000  Uiso   1.00
C578   C     0.04231   0.17094   0.61485   0.00000  Uiso   1.00
C579   C     0.30599   0.14232   0.95551   0.00000  Uiso   1.00
C580   C     0.02734   0.19101   0.54449   0.00000  Uiso   1.00
C581   C     0.32253   0.14734   0.90912   0.00000  Uiso   1.00
C582   C     0.01080   0.18600   0.59088   0.00000  Uiso   1.00
C583   C     0.24298   0.17145   0.90781   0.00000  Uiso   1.00
C584   C     0.09035   0.16189   0.59219   0.00000  Uiso   1.00
C585   C     0.22401   0.16194   0.95344   0.00000  Uiso   1.00
C586   C     0.10933   0.17140   0.54656   0.00000  Uiso   1.00
C587   C     0.25734   0.15058   0.97790   0.00000  Uiso   1.00
C588   C     0.07599   0.18275   0.52210   0.00000  Uiso   1.00
C589   C     0.17376   0.16633   0.97598   0.00000  Uiso   1.00
C590   C     0.15958   0.16701   0.52402   0.00000  Uiso   1.00
Cu591  Cu    0.04689   0.16667   0.75000   0.00000  Uiso   1.00
Cu592  Cu    0.28645   0.16666   0.75000   0.00000  Uiso   1.00
H593   H     0.26959   0.14631   0.54325   0.00000  Uiso   1.00
H594   H     0.06374   0.18703   0.95675   0.00000  Uiso   1.00
H595   H     0.11185   0.14554   0.61036   0.00000  Uiso   1.00
H596   H     0.22149   0.18779   0.88964   0.00000  Uiso   1.00
H597   H     0.30679   0.19336   0.60782   0.00000  Uiso   1.00
H598   H     0.02654   0.13997   0.89218   0.00000  Uiso   1.00
H599   H     0.33129   0.13241   0.97398   0.00000  Uiso   1.00
H600   H     0.00204   0.20092   0.52602   0.00000  Uiso   1.00
H601   H     0.28384   0.29384   0.70937   0.00000  Uiso   1.00
H602   H     0.04950   0.03950   0.79063   0.00000  Uiso   1.00
H603   H     0.19569   0.11913   0.79879   0.00000  Uiso   1.00
H604   H     0.13764   0.21420   0.70121   0.00000  Uiso   1.00
H605   H     0.10867   0.11932   0.79897   0.00000  Uiso   1.00
H606   H     0.22466   0.21402   0.70103   0.00000  Uiso   1.00
N607   N     0.11736   0.16668   0.74999   0.00000  Uiso   1.00
N608   N     0.21597   0.16666   0.75001   0.00000  Uiso   1.00
O609   O     0.03958   0.10655   0.75000   0.00000  Uiso   1.00
O610   O     0.29375   0.22678   0.75000   0.00000  Uiso   1.00
O611   O     0.29372   0.10654   0.75001   0.00000  Uiso   1.00
O612   O     0.03961   0.22679   0.75000   0.00000  Uiso   1.00
O613   O     0.01852   0.16668   0.81492   0.00000  Uiso   1.00
O614   O     0.31481   0.16666   0.68509   0.00000  Uiso   1.00
O615   O     0.27267   0.16667   0.81492   0.00000  Uiso   1.00
O616   O     0.06067   0.16667   0.68508   0.00000  Uiso   1.00
Cl617  Cl    0.19103   0.18225   0.60209   0.00000  Uiso   1.00
Cl618  Cl    0.14230   0.15109   0.89791   0.00000  Uiso   1.00
Cl619  Cl    0.27081   0.04404   0.69294   0.00000  Uiso   1.00
Cl620  Cl    0.06253   0.28929   0.80706   0.00000  Uiso   1.00
C621   C     0.33342   0.08742   0.74906   0.00000  Uiso   1.00
C622   C     0.66658   0.24592   0.75094   0.00000  Uiso   1.00
C623   C     0.52973   0.16353   0.54728   0.00000  Uiso   1.00
C624   C     0.47027   0.16980   0.95272   0.00000  Uiso   1.00
C625   C     0.57633   0.15128   0.52451   0.00000  Uiso   1.00
C626   C     0.42367   0.18206   0.97549   0.00000  Uiso   1.00
C627   C     0.63824   0.02041   0.72593   0.00000  Uiso   1.00
C628   C     0.36176   0.31293   0.77407   0.00000  Uiso   1.00
C629   C     0.63845   0.31106   0.72751   0.00000  Uiso   1.00
C630   C     0.36155   0.02227   0.77249   0.00000  Uiso   1.00
C631   C     0.33347   0.29052   0.75120   0.00000  Uiso   1.00
C632   C     0.66653   0.04281   0.74880   0.00000  Uiso   1.00
C633   C     0.51677   0.14030   0.77711   0.00000  Uiso   1.00
C634   C     0.48323   0.19304   0.72290   0.00000  Uiso   1.00
C635   C     0.46715   0.14036   0.77716   0.00000  Uiso   1.00
C636   C     0.53285   0.19297   0.72284   0.00000  Uiso   1.00
C637   C     0.63944   0.16613   0.83610   0.00000  Uiso   1.00
C638   C     0.36056   0.16721   0.66390   0.00000  Uiso   1.00
C639   C     0.62435   0.16240   0.88515   0.00000  Uiso   1.00
C640   C     0.37565   0.17094   0.61485   0.00000  Uiso   1.00
C641   C     0.63933   0.14232   0.95551   0.00000  Uiso   1.00
C642   C     0.36067   0.19101   0.54449   0.00000  Uiso   1.00
C643   C     0.65586   0.14734   0.90912   0.00000  Uiso   1.00
C644   C     0.34414   0.18600   0.59088   0.00000  Uiso   1.00
C645   C     0.57631   0.17145   0.90781   0.00000  Uiso   1.00
C646   C     0.42369   0.16189   0.59219   0.00000  Uiso   1.00
C647   C     0.55734   0.16194   0.95344   0.00000  Uiso   1.00
C648   C     0.44266   0.17140   0.54656   0.00000  Uiso   1.00
C649   C     0.59067   0.15058   0.97790   0.00000  Uiso   1.00
C650   C     0.40933   0.18275   0.52210   0.00000  Uiso   1.00
C651   C     0.50709   0.16633   0.97598   0.00000  Uiso   1.00
C652   C     0.49291   0.16701   0.52402   0.00000  Uiso   1.00
Cu653  Cu    0.38022   0.16667   0.75000   0.00000  Uiso   1.00
Cu654  Cu    0.61978   0.16666   0.75000   0.00000  Uiso   1.00
H655   H     0.60293   0.14631   0.54325   0.00000  Uiso   1.00
H656   H     0.39707   0.18703   0.95675   0.00000  Uiso   1.00
H657   H     0.44518   0.14554   0.61036   0.00000  Uiso   1.00
H658   H     0.55482   0.18779   0.88964   0.00000  Uiso   1.00
H659   H     0.64013   0.19336   0.60782   0.00000  Uiso   1.00
H660   H     0.35987   0.13997   0.89218   0.00000  Uiso   1.00
H661   H     0.66462   0.13241   0.97398   0.00000  Uiso   1.00
H662   H     0.33538   0.20092   0.52602   0.00000  Uiso   1.00
H663   H     0.61717   0.29384   0.70937   0.00000  Uiso   1.00
H664   H     0.38283   0.03950   0.79063   0.00000  Uiso   1.00
H665   H     0.52903   0.11913   0.79879   0.00000  Uiso   1.00
H666   H     0.47097   0.21420   0.70121   0.00000  Uiso   1.00
H667   H     0.44201   0.11932   0.79897   0.00000  Uiso   1.00
H668   H     0.55799   0.21402   0.70103   0.00000  Uiso   1.00
N669   N     0.45069   0.16668   0.74999   0.00000  Uiso   1.00
N670   N     0.54931   0.16666   0.75001   0.00000  Uiso   1.00
O671   O     0.37291   0.10655   0.75000   0.00000  Uiso   1.00
O672   O     0.62709   0.22678   0.75000   0.00000  Uiso   1.00
O673   O     0.62706   0.10654   0.75001   0.00000  Uiso   1.00
O674   O     0.37294   0.22679   0.75000   0.00000  Uiso   1.00
O675   O     0.35186   0.16668   0.81492   0.00000  Uiso   1.00
O676   O     0.64814   0.16666   0.68509   0.00000  Uiso   1.00
O677   O     0.60600   0.16667   0.81492   0.00000  Uiso   1.00
O678   O     0.39400   0.16667   0.68508   0.00000  Uiso   1.00
Cl679  Cl    0.52436   0.18225   0.60209   0.00000  Uiso   1.00
Cl680  Cl    0.47564   0.15109   0.89791   0.00000  Uiso   1.00
Cl681  Cl    0.60415   0.04404   0.69294   0.00000  Uiso   1.00
Cl682  Cl    0.39586   0.28929   0.80706   0.00000  Uiso   1.00
C683   C     0.66675   0.08742   0.74906   0.00000  Uiso   1.00
C684   C     0.99991   0.24592   0.75094   0.00000  Uiso   1.00
C685   C     0.86306   0.16353   0.54728   0.00000  Uiso   1.00
C686   C     0.80361   0.16980   0.95272   0.00000  Uiso   1.00
C687   C     0.90966   0.15128   0.52451   0.00000  Uiso   1.00
C688   C     0.75701   0.18206   0.97549   0.00000  Uiso   1.00
C689   C     0.97157   0.02041   0.72593   0.00000  Uiso   1.00
C690   C     0.69510   0.31293   0.77407   0.00000  Uiso   1.00
C691   C     0.97179   0.31106   0.72751   0.00000  Uiso   1.00
C692   C     0.69488   0.02227   0.77249   0.00000  Uiso   1.00
C693   C     0.66680   0.29052   0.75120   0.00000  Uiso   1.00
C694   C     0.99986   0.04281   0.74880   0.00000  Uiso   1.00
C695   C     0.85010   0.14030   0.77711   0.00000  Uiso   1.00
C696   C     0.81657   0.19304   0.72290   0.00000  Uiso   1.00
C697   C     0.80048   0.14036   0.77716   0.00000  Uiso   1.00
C698   C     0.86618   0.19297   0.72284   0.00000  Uiso   1.00
C699   C     0.97277   0.16613   0.83610   0.00000  Uiso   1.00
C700   C     0.69390   0.16721   0.66390   0.00000  Uiso   1.00
C701   C     0.95769   0.16240   0.88515   0.00000  Uiso   1.00
C702   C     0.70898   0.17094   0.61485   0.00000  Uiso   1.00
C703   C     0.97266   0.14232   0.95551   0.00000  Uiso   1.00
C704   C     0.69401   0.19101   0.54449   0.00000  Uiso   1.00
C705   C     0.98920   0.14734   0.90912   0.00000  Uiso   1.00
C706   C     0.67747   0.18600   0.59088   0.00000  Uiso   1.00
C707   C     0.90965   0.17145   0.90781   0.00000  Uiso   1.00
C708   C     0.75702   0.16189   0.59219   0.00000  Uiso   1.00
C709   C     0.89067   0.16194   0.95344   0.00000  Uiso   1.00
C710   C     0.77599   0.17140   0.54656   0.00000  Uiso   1.00
C711   C     0.92401   0.15058   0.97790   0.00000  Uiso   1.00
C712   C     0.74266   0.18275   0.52210   0.00000  Uiso   1.00
C713   C     0.84042   0.16633   0.97598   0.00000  Uiso   1.00
C714   C     0.82624   0.16701   0.52402   0.00000  Uiso   1.00
Cu715  Cu    0.71355   0.16667   0.75000   0.00000  Uiso   1.00
Cu716  Cu    0.95311   0.16666   0.75000   0.00000  Uiso   1.00
H717   H     0.93626   0.14631   0.54325   0.00000  Uiso   1.00
H718   H     0.73041   0.18703   0.95675   0.00000  Uiso   1.00
H719   H     0.77851   0.14554   0.61036   0.00000  Uiso   1.00
H720   H     0.88815   0.18779   0.88964   0.00000  Uiso   1.00
H721   H     0.97346   0.19336   0.60782   0.00000  Uiso   1.00
H722   H     0.69321   0.13997   0.89218   0.00000  Uiso   1.00
H723   H     0.99795   0.13241   0.97398   0.00000  Uiso   1.00
H724   H     0.66871   0.20092   0.52602   0.00000  Uiso   1.00
H725   H     0.95050   0.29384   0.70937   0.00000  Uiso   1.00
H726   H     0.71616   0.03950   0.79063   0.00000  Uiso   1.00
H727   H     0.86236   0.11913   0.79879   0.00000  Uiso   1.00
H728   H     0.80431   0.21420   0.70121   0.00000  Uiso   1.00
H729   H     0.77534   0.11932   0.79897   0.00000  Uiso   1.00
H730   H     0.89133   0.21402   0.70103   0.00000  Uiso   1.00
N731   N     0.78403   0.16668   0.74999   0.00000  Uiso   1.00
N732   N     0.88264   0.16666   0.75001   0.00000  Uiso   1.00
O733   O     0.70625   0.10655   0.75000   0.00000  Uiso   1.00
O734   O     0.96042   0.22678   0.75000   0.00000  Uiso   1.00
O735   O     0.96039   0.10654   0.75001   0.00000  Uiso   1.00
O736   O     0.70628   0.22679   0.75000   0.00000  Uiso   1.00
O737   O     0.68519   0.16668   0.81492   0.00000  Uiso   1.00
O738   O     0.98148   0.16666   0.68509   0.00000  Uiso   1.00
O739   O     0.93933   0.16667   0.81492   0.00000  Uiso   1.00
O740   O     0.72733   0.16667   0.68508   0.00000  Uiso   1.00
Cl741  Cl    0.85770   0.18225   0.60209   0.00000  Uiso   1.00
Cl742  Cl    0.80897   0.15109   0.89791   0.00000  Uiso   1.00
Cl743  Cl    0.93748   0.04404   0.69294   0.00000  Uiso   1.00
Cl744  Cl    0.72919   0.28929   0.80706   0.00000  Uiso   1.00
C745   C     0.00009   0.42075   0.74906   0.00000  Uiso   1.00
C746   C     0.33325   0.57925   0.75094   0.00000  Uiso   1.00
C747   C     0.19639   0.49687   0.54728   0.00000  Uiso   1.00
C748   C     0.13694   0.50314   0.95272   0.00000  Uiso   1.00
C749   C     0.24299   0.48461   0.52451   0.00000  Uiso   1.00
C750   C     0.09034   0.51539   0.97549   0.00000  Uiso   1.00
C751   C     0.30491   0.35374   0.72593   0.00000  Uiso   1.00
C752   C     0.02843   0.64626   0.77407   0.00000  Uiso   1.00
C753   C     0.30512   0.64439   0.72751   0.00000  Uiso   1.00
C754   C     0.02821   0.35561   0.77249   0.00000  Uiso   1.00
C755   C     0.00014   0.62386   0.75120   0.00000  Uiso   1.00
C756   C     0.33320   0.37614   0.74880   0.00000  Uiso   1.00
C757   C     0.18343   0.47363   0.77711   0.00000  Uiso   1.00
C758   C     0.14990   0.52637   0.72290   0.00000  Uiso   1.00
C759   C     0.13382   0.47369   0.77716   0.00000  Uiso   1.00
C760   C     0.19952   0.52631   0.72284   0.00000  Uiso   1.00
C761   C     0.30610   0.49946   0.83610   0.00000  Uiso   1.00
C762   C     0.02723   0.50054   0.66390   0.00000  Uiso   1.00
C763   C     0.29102   0.49573   0.88515   0.00000  Uiso   1.00
C764   C     0.04231   0.50427   0.61485   0.00000  Uiso   1.00
C765   C     0.30599   0.47566   0.95551   0.00000  Uiso   1.00
C766   C     0.02734   0.52434   0.54449   0.00000  Uiso   1.00
C767   C     0.32253   0.48067   0.90912   0.00000  Uiso   1.00
C768   C     0.01080   0.51933   0.59088   0.00000  Uiso   1.00
C769   C     0.24298   0.50478   0.90781   0.00000  Uiso   1.00
C770   C     0.09035   0.49522   0.59219   0.00000  Uiso   1.00
C771   C     0.22401   0.49528   0.95344   0.00000  Uiso   1.00
C772   C     0.10933   0.50473   0.54656   0.00000  Uiso   1.00
C773   C     0.25734   0.48392   0.97790   0.00000  Uiso   1.00
C774   C     0.07599   0.51609   0.52210   0.00000  Uiso   1.00
C775   C     0.17376   0.49966   0.97598   0.00000  Uiso   1.00
C776   C     0.15958   0.50034   0.52402   0.00000  Uiso   1.00
Cu777  Cu    0.04689   0.50001   0.75000   0.00000  Uiso   1.00
Cu778  Cu    0.28645   0.49999   0.75000   0.00000  Uiso   1.00
H779   H     0.26959   0.47964   0.54325   0.00000  Uiso   1.00
H780   H     0.06374   0.52036   0.95675   0.00000  Uiso   1.00
H781   H     0.11185   0.47888   0.61036   0.00000  Uiso   1.00
H782   H     0.22149   0.52113   0.88964   0.00000  Uiso   1.00
H783   H     0.30679   0.52669   0.60782   0.00000  Uiso   1.00
H784   H     0.02654   0.47330   0.89218   0.00000  Uiso   1.00
H785   H     0.33129   0.46575   0.97398   0.00000  Uiso   1.00
H786   H     0.00204   0.53425   0.52602   0.00000  Uiso   1.00
H787   H     0.28384   0.62717   0.70937   0.00000  Uiso   1.00
H788   H     0.04950   0.37283   0.79063   0.00000  Uiso   1.00
H789   H     0.19569   0.45247   0.79879   0.00000  Uiso   1.00
H790   H     0.13764   0.54753   0.70121   0.00000  Uiso   1.00
H791   H     0.10867   0.45265   0.79897   0.00000  Uiso   1.00
H792   H     0.22466   0.54735   0.70103   0.00000  Uiso   1.00
N793   N     0.11736   0.50001   0.74999   0.00000  Uiso   1.00
N794   N     0.21597   0.49999   0.75001   0.00000  Uiso   1.00
O795   O     0.03958   0.43989   0.75000   0.00000  Uiso   1.00
O796   O     0.29375   0.56011   0.75000   0.00000  Uiso   1.00
O797   O     0.29372   0.43988   0.75001   0.00000  Uiso   1.00
O798   O     0.03961   0.56012   0.75000   0.00000  Uiso   1.00
O799   O     0.01852   0.50001   0.81492   0.00000  Uiso   1.00
O800   O     0.31481   0.49999   0.68509   0.00000  Uiso   1.00
O801   O     0.27267   0.50000   0.81492   0.00000  Uiso   1.00
O802   O     0.06067   0.50000   0.68508   0.00000  Uiso   1.00
Cl803  Cl    0.19103   0.51559   0.60209   0.00000  Uiso   1.00
Cl804  Cl    0.14230   0.48442   0.89791   0.00000  Uiso   1.00
Cl805  Cl    0.27081   0.37737   0.69294   0.00000  Uiso   1.00
Cl806  Cl    0.06253   0.62263   0.80706   0.00000  Uiso   1.00
C807   C     0.33342   0.42075   0.74906   0.00000  Uiso   1.00
C808   C     0.66658   0.57925   0.75094   0.00000  Uiso   1.00
C809   C     0.52973   0.49687   0.54728   0.00000  Uiso   1.00
C810   C     0.47027   0.50314   0.95272   0.00000  Uiso   1.00
C811   C     0.57633   0.48461   0.52451   0.00000  Uiso   1.00
C812   C     0.42367   0.51539   0.97549   0.00000  Uiso   1.00
C813   C     0.63824   0.35374   0.72593   0.00000  Uiso   1.00
C814   C     0.36176   0.64626   0.77407   0.00000  Uiso   1.00
C815   C     0.63845   0.64439   0.72751   0.00000  Uiso   1.00
C816   C     0.36155   0.35561   0.77249   0.00000  Uiso   1.00
C817   C     0.33347   0.62386   0.75120   0.00000  Uiso   1.00
C818   C     0.66653   0.37614   0.74880   0.00000  Uiso   1.00
C819   C     0.51677   0.47363   0.77711   0.00000  Uiso   1.00
C820   C     0.48323   0.52637   0.72290   0.00000  Uiso   1.00
C821   C     0.46715   0.47369   0.77716   0.00000  Uiso   1.00
C822   C     0.53285   0.52631   0.72284   0.00000  Uiso   1.00
C823   C     0.63944   0.49946   0.83610   0.00000  Uiso   1.00
C824   C     0.36056   0.50054   0.66390   0.00000  Uiso   1.00
C825   C     0.62435   0.49573   0.88515   0.00000  Uiso   1.00
C826   C     0.37565   0.50427   0.61485   0.00000  Uiso   1.00
C827   C     0.63933   0.47566   0.95551   0.00000  Uiso   1.00
C828   C     0.36067   0.52434   0.54449   0.00000  Uiso   1.00
C829   C     0.65586   0.48067   0.90912   0.00000  Uiso   1.00
C830   C     0.34414   0.51933   0.59088   0.00000  Uiso   1.00
C831   C     0.57631   0.50478   0.90781   0.00000  Uiso   1.00
C832   C     0.42369   0.49522   0.59219   0.00000  Uiso   1.00
C833   C     0.55734   0.49528   0.95344   0.00000  Uiso   1.00
C834   C     0.44266   0.50473   0.54656   0.00000  Uiso   1.00
C835   C     0.59067   0.48392   0.97790   0.00000  Uiso   1.00
C836   C     0.40933   0.51609   0.52210   0.00000  Uiso   1.00
C837   C     0.50709   0.49966   0.97598   0.00000  Uiso   1.00
C838   C     0.49291   0.50034   0.52402   0.00000  Uiso   1.00
Cu839  Cu    0.38022   0.50001   0.75000   0.00000  Uiso   1.00
Cu840  Cu    0.61978   0.49999   0.75000   0.00000  Uiso   1.00
H841   H     0.60293   0.47964   0.54325   0.00000  Uiso   1.00
H842   H     0.39707   0.52036   0.95675   0.00000  Uiso   1.00
H843   H     0.44518   0.47888   0.61036   0.00000  Uiso   1.00
H844   H     0.55482   0.52113   0.88964   0.00000  Uiso   1.00
H845   H     0.64013   0.52669   0.60782   0.00000  Uiso   1.00
H846   H     0.35987   0.47330   0.89218   0.00000  Uiso   1.00
H847   H     0.66462   0.46575   0.97398   0.00000  Uiso   1.00
H848   H     0.33538   0.53425   0.52602   0.00000  Uiso   1.00
H849   H     0.61717   0.62717   0.70937   0.00000  Uiso   1.00
H850   H     0.38283   0.37283   0.79063   0.00000  Uiso   1.00
H851   H     0.52903   0.45247   0.79879   0.00000  Uiso   1.00
H852   H     0.47097   0.54753   0.70121   0.00000  Uiso   1.00
H853   H     0.44201   0.45265   0.79897   0.00000  Uiso   1.00
H854   H     0.55799   0.54735   0.70103   0.00000  Uiso   1.00
N855   N     0.45069   0.50001   0.74999   0.00000  Uiso   1.00
N856   N     0.54931   0.49999   0.75001   0.00000  Uiso   1.00
O857   O     0.37291   0.43989   0.75000   0.00000  Uiso   1.00
O858   O     0.62709   0.56011   0.75000   0.00000  Uiso   1.00
O859   O     0.62706   0.43988   0.75001   0.00000  Uiso   1.00
O860   O     0.37294   0.56012   0.75000   0.00000  Uiso   1.00
O861   O     0.35186   0.50001   0.81492   0.00000  Uiso   1.00
O862   O     0.64814   0.49999   0.68509   0.00000  Uiso   1.00
O863   O     0.60600   0.50000   0.81492   0.00000  Uiso   1.00
O864   O     0.39400   0.50000   0.68508   0.00000  Uiso   1.00
Cl865  Cl    0.52436   0.51559   0.60209   0.00000  Uiso   1.00
Cl866  Cl    0.47564   0.48442   0.89791   0.00000  Uiso   1.00
Cl867  Cl    0.60415   0.37737   0.69294   0.00000  Uiso   1.00
Cl868  Cl    0.39586   0.62263   0.80706   0.00000  Uiso   1.00
C869   C     0.66675   0.42075   0.74906   0.00000  Uiso   1.00
C870   C     0.99991   0.57925   0.75094   0.00000  Uiso   1.00
C871   C     0.86306   0.49687   0.54728   0.00000  Uiso   1.00
C872   C     0.80361   0.50314   0.95272   0.00000  Uiso   1.00
C873   C     0.90966   0.48461   0.52451   0.00000  Uiso   1.00
C874   C     0.75701   0.51539   0.97549   0.00000  Uiso   1.00
C875   C     0.97157   0.35374   0.72593   0.00000  Uiso   1.00
C876   C     0.69510   0.64626   0.77407   0.00000  Uiso   1.00
C877   C     0.97179   0.64439   0.72751   0.00000  Uiso   1.00
C878   C     0.69488   0.35561   0.77249   0.00000  Uiso   1.00
C879   C     0.66680   0.62386   0.75120   0.00000  Uiso   1.00
C880   C     0.99986   0.37614   0.74880   0.00000  Uiso   1.00
C881   C     0.85010   0.47363   0.77711   0.00000  Uiso   1.00
C882   C     0.81657   0.52637   0.72290   0.00000  Uiso   1.00
C883   C     0.80048   0.47369   0.77716   0.00000  Uiso   1.00
C884   C     0.86618   0.52631   0.72284   0.00000  Uiso   1.00
C885   C     0.97277   0.49946   0.83610   0.00000  Uiso   1.00
C886   C     0.69390   0.50054   0.66390   0.00000  Uiso   1.00
C887   C     0.95769   0.49573   0.88515   0.00000  Uiso   1.00
C888   C     0.70898   0.50427   0.61485   0.00000  Uiso   1.00
C889   C     0.97266   0.47566   0.95551   0.00000  Uiso   1.00
C890   C     0.69401   0.52434   0.54449   0.00000  Uiso   1.00
C891   C     0.98920   0.48067   0.90912   0.00000  Uiso   1.00
C892   C     0.67747   0.51933   0.59088   0.00000  Uiso   1.00
C893   C     0.90965   0.50478   0.90781   0.00000  Uiso   1.00
C894   C     0.75702   0.49522   0.59219   0.00000  Uiso   1.00
C895   C     0.89067   0.49528   0.95344   0.00000  Uiso   1.00
C896   C     0.77599   0.50473   0.54656   0.00000  Uiso   1.00
C897   C     0.92401   0.48392   0.97790   0.00000  Uiso   1.00
C898   C     0.74266   0.51609   0.52210   0.00000  Uiso   1.00
C899   C     0.84042   0.49966   0.97598   0.00000  Uiso   1.00
C900   C     0.82624   0.50034   0.52402   0.00000  Uiso   1.00
Cu901  Cu    0.71355   0.50001   0.75000   0.00000  Uiso   1.00
Cu902  Cu    0.95311   0.49999   0.75000   0.00000  Uiso   1.00
H903   H     0.93626   0.47964   0.54325   0.00000  Uiso   1.00
H904   H     0.73041   0.52036   0.95675   0.00000  Uiso   1.00
H905   H     0.77851   0.47888   0.61036   0.00000  Uiso   1.00
H906   H     0.88815   0.52113   0.88964   0.00000  Uiso   1.00
H907   H     0.97346   0.52669   0.60782   0.00000  Uiso   1.00
H908   H     0.69321   0.47330   0.89218   0.00000  Uiso   1.00
H909   H     0.99795   0.46575   0.97398   0.00000  Uiso   1.00
H910   H     0.66871   0.53425   0.52602   0.00000  Uiso   1.00
H911   H     0.95050   0.62717   0.70937   0.00000  Uiso   1.00
H912   H     0.71616   0.37283   0.79063   0.00000  Uiso   1.00
H913   H     0.86236   0.45247   0.79879   0.00000  Uiso   1.00
H914   H     0.80431   0.54753   0.70121   0.00000  Uiso   1.00
H915   H     0.77534   0.45265   0.79897   0.00000  Uiso   1.00
H916   H     0.89133   0.54735   0.70103   0.00000  Uiso   1.00
N917   N     0.78403   0.50001   0.74999   0.00000  Uiso   1.00
N918   N     0.88264   0.49999   0.75001   0.00000  Uiso   1.00
O919   O     0.70625   0.43989   0.75000   0.00000  Uiso   1.00
O920   O     0.96042   0.56011   0.75000   0.00000  Uiso   1.00
O921   O     0.96039   0.43988   0.75001   0.00000  Uiso   1.00
O922   O     0.70628   0.56012   0.75000   0.00000  Uiso   1.00
O923   O     0.68519   0.50001   0.81492   0.00000  Uiso   1.00
O924   O     0.98148   0.49999   0.68509   0.00000  Uiso   1.00
O925   O     0.93933   0.50000   0.81492   0.00000  Uiso   1.00
O926   O     0.72733   0.50000   0.68508   0.00000  Uiso   1.00
Cl927  Cl    0.85770   0.51559   0.60209   0.00000  Uiso   1.00
Cl928  Cl    0.80897   0.48442   0.89791   0.00000  Uiso   1.00
Cl929  Cl    0.93748   0.37737   0.69294   0.00000  Uiso   1.00
Cl930  Cl    0.72919   0.62263   0.80706   0.00000  Uiso   1.00
C931   C     0.00009   0.75408   0.74906   0.00000  Uiso   1.00
C932   C     0.33325   0.91258   0.75094   0.00000  Uiso   1.00
C933   C     0.19639   0.83020   0.54728   0.00000  Uiso   1.00
C934   C     0.13694   0.83647   0.95272   0.00000  Uiso   1.00
C935   C     0.24299   0.81795   0.52451   0.00000  Uiso   1.00
C936   C     0.09034   0.84872   0.97549   0.00000  Uiso   1.00
C937   C     0.30491   0.68707   0.72593   0.00000  Uiso   1.00
C938   C     0.02843   0.97959   0.77407   0.00000  Uiso   1.00
C939   C     0.30512   0.97773   0.72751   0.00000  Uiso   1.00
C940   C     0.02821   0.68894   0.77249   0.00000  Uiso   1.00
C941   C     0.00014   0.95719   0.75120   0.00000  Uiso   1.00
C942   C     0.33320   0.70948   0.74880   0.00000  Uiso   1.00
C943   C     0.18343   0.80696   0.77711   0.00000  Uiso   1.00
C944   C     0.14990   0.85970   0.72290   0.00000  Uiso   1.00
C945   C     0.13382   0.80703   0.77716   0.00000  Uiso   1.00
C946   C     0.19952   0.85964   0.72284   0.00000  Uiso   1.00
C947   C     0.30610   0.83279   0.83610   0.00000  Uiso   1.00
C948   C     0.02723   0.83387   0.66390   0.00000  Uiso   1.00
C949   C     0.29102   0.82906   0.88515   0.00000  Uiso   1.00
C950   C     0.04231   0.83760   0.61485   0.00000  Uiso   1.00
C951   C     0.30599   0.80899   0.95551   0.00000  Uiso   1.00
C952   C     0.02734   0.85768   0.54449   0.00000  Uiso   1.00
C953   C     0.32253   0.81400   0.90912   0.00000  Uiso   1.00
C954   C     0.01080   0.85266   0.59088   0.00000  Uiso   1.00
C955   C     0.24298   0.83812   0.90781   0.00000  Uiso   1.00
C956   C     0.09035   0.82855   0.59219   0.00000  Uiso   1.00
C957   C     0.22401   0.82861   0.95344   0.00000  Uiso   1.00
C958   C     0.10933   0.83806   0.54656   0.00000  Uiso   1.00
C959   C     0.25734   0.81725   0.97790   0.00000  Uiso   1.00
C960   C     0.07599   0.84942   0.52210   0.00000  Uiso   1.00
C961   C     0.17376   0.83300   0.97598   0.00000  Uiso   1.00
C962   C     0.15958   0.83368   0.52402   0.00000  Uiso   1.00
Cu963  Cu    0.04689   0.83334   0.75000   0.00000  Uiso   1.00
Cu964  Cu    0.28645   0.83333   0.75000   0.00000  Uiso   1.00
H965   H     0.26959   0.81298   0.54325   0.00000  Uiso   1.00
H966   H     0.06374   0.85369   0.95675   0.00000  Uiso   1.00
H967   H     0.11185   0.81221   0.61036   0.00000  Uiso   1.00
H968   H     0.22149   0.85446   0.88964   0.00000  Uiso   1.00
H969   H     0.30679   0.86003   0.60782   0.00000  Uiso   1.00
H970   H     0.02654   0.80664   0.89218   0.00000  Uiso   1.00
H971   H     0.33129   0.79908   0.97398   0.00000  Uiso   1.00
H972   H     0.00204   0.86759   0.52602   0.00000  Uiso   1.00
H973   H     0.28384   0.96050   0.70937   0.00000  Uiso   1.00
H974   H     0.04950   0.70616   0.79063   0.00000  Uiso   1.00
H975   H     0.19569   0.78580   0.79879   0.00000  Uiso   1.00
H976   H     0.13764   0.88087   0.70121   0.00000  Uiso   1.00
H977   H     0.10867   0.78598   0.79897   0.00000  Uiso   1.00
H978   H     0.22466   0.88068   0.70103   0.00000  Uiso   1.00
N979   N     0.11736   0.83334   0.74999   0.00000  Uiso   1.00
N980   N     0.21597   0.83332   0.75001   0.00000  Uiso   1.00
O981   O     0.03958   0.77322   0.75000   0.00000  Uiso   1.00
O982   O     0.29375   0.89345   0.75000   0.00000  Uiso   1.00
O983   O     0.29372   0.77321   0.75001   0.00000  Uiso   1.00
O984   O     0.03961   0.89346   0.75000   0.00000  Uiso   1.00
O985   O     0.01852   0.83334   0.81492   0.00000  Uiso   1.00
O986   O     0.31481   0.83332   0.68509   0.00000  Uiso   1.00
O987   O     0.27267   0.83333   0.81492   0.00000  Uiso   1.00
O988   O     0.06067   0.83333   0.68508   0.00000  Uiso   1.00
Cl989  Cl    0.19103   0.84892   0.60209   0.00000  Uiso   1.00
Cl990  Cl    0.14230   0.81775   0.89791   0.00000  Uiso   1.00
Cl991  Cl    0.27081   0.71071   0.69294   0.00000  Uiso   1.00
Cl992  Cl    0.06253   0.95596   0.80706   0.00000  Uiso   1.00
C993   C     0.33342   0.75408   0.74906   0.00000  Uiso   1.00
C994   C     0.66658   0.91258   0.75094   0.00000  Uiso   1.00
C995   C     0.52973   0.83020   0.54728   0.00000  Uiso   1.00
C996   C     0.47027   0.83647   0.95272   0.00000  Uiso   1.00
C997   C     0.57633   0.81795   0.52451   0.00000  Uiso   1.00
C998   C     0.42367   0.84872   0.97549   0.00000  Uiso   1.00
C999   C     0.63824   0.68707   0.72593   0.00000  Uiso   1.00
C1000  C     0.36176   0.97959   0.77407   0.00000  Uiso   1.00
C1001  C     0.63845   0.97773   0.72751   0.00000  Uiso   1.00
C1002  C     0.36155   0.68894   0.77249   0.00000  Uiso   1.00
C1003  C     0.33347   0.95719   0.75120   0.00000  Uiso   1.00
C1004  C     0.66653   0.70948   0.74880   0.00000  Uiso   1.00
C1005  C     0.51677   0.80696   0.77711   0.00000  Uiso   1.00
C1006  C     0.48323   0.85970   0.72290   0.00000  Uiso   1.00
C1007  C     0.46715   0.80703   0.77716   0.00000  Uiso   1.00
C1008  C     0.53285   0.85964   0.72284   0.00000  Uiso   1.00
C1009  C     0.63944   0.83279   0.83610   0.00000  Uiso   1.00
C1010  C     0.36056   0.83387   0.66390   0.00000  Uiso   1.00
C1011  C     0.62435   0.82906   0.88515   0.00000  Uiso   1.00
C1012  C     0.37565   0.83760   0.61485   0.00000  Uiso   1.00
C1013  C     0.63933   0.80899   0.95551   0.00000  Uiso   1.00
C1014  C     0.36067   0.85768   0.54449   0.00000  Uiso   1.00
C1015  C     0.65586   0.81400   0.90912   0.00000  Uiso   1.00
C1016  C     0.34414   0.85266   0.59088   0.00000  Uiso   1.00
C1017  C     0.57631   0.83812   0.90781   0.00000  Uiso   1.00
C1018  C     0.42369   0.82855   0.59219   0.00000  Uiso   1.00
C1019  C     0.55734   0.82861   0.95344   0.00000  Uiso   1.00
C1020  C     0.44266   0.83806   0.54656   0.00000  Uiso   1.00
C1021  C     0.59067   0.81725   0.97790   0.00000  Uiso   1.00
C1022  C     0.40933   0.84942   0.52210   0.00000  Uiso   1.00
C1023  C     0.50709   0.83300   0.97598   0.00000  Uiso   1.00
C1024  C     0.49291   0.83368   0.52402   0.00000  Uiso   1.00
Cu1025 Cu    0.38022   0.83334   0.75000   0.00000  Uiso   1.00
Cu1026 Cu    0.61978   0.83333   0.75000   0.00000  Uiso   1.00
H1027  H     0.60293   0.81298   0.54325   0.00000  Uiso   1.00
H1028  H     0.39707   0.85369   0.95675   0.00000  Uiso   1.00
H1029  H     0.44518   0.81221   0.61036   0.00000  Uiso   1.00
H1030  H     0.55482   0.85446   0.88964   0.00000  Uiso   1.00
H1031  H     0.64013   0.86003   0.60782   0.00000  Uiso   1.00
H1032  H     0.35987   0.80664   0.89218   0.00000  Uiso   1.00
H1033  H     0.66462   0.79908   0.97398   0.00000  Uiso   1.00
H1034  H     0.33538   0.86759   0.52602   0.00000  Uiso   1.00
H1035  H     0.61717   0.96050   0.70937   0.00000  Uiso   1.00
H1036  H     0.38283   0.70616   0.79063   0.00000  Uiso   1.00
H1037  H     0.52903   0.78580   0.79879   0.00000  Uiso   1.00
H1038  H     0.47097   0.88087   0.70121   0.00000  Uiso   1.00
H1039  H     0.44201   0.78598   0.79897   0.00000  Uiso   1.00
H1040  H     0.55799   0.88068   0.70103   0.00000  Uiso   1.00
N1041  N     0.45069   0.83334   0.74999   0.00000  Uiso   1.00
N1042  N     0.54931   0.83332   0.75001   0.00000  Uiso   1.00
O1043  O     0.37291   0.77322   0.75000   0.00000  Uiso   1.00
O1044  O     0.62709   0.89345   0.75000   0.00000  Uiso   1.00
O1045  O     0.62706   0.77321   0.75001   0.00000  Uiso   1.00
O1046  O     0.37294   0.89346   0.75000   0.00000  Uiso   1.00
O1047  O     0.35186   0.83334   0.81492   0.00000  Uiso   1.00
O1048  O     0.64814   0.83332   0.68509   0.00000  Uiso   1.00
O1049  O     0.60600   0.83333   0.81492   0.00000  Uiso   1.00
O1050  O     0.39400   0.83333   0.68508   0.00000  Uiso   1.00
Cl1051 Cl    0.52436   0.84892   0.60209   0.00000  Uiso   1.00
Cl1052 Cl    0.47564   0.81775   0.89791   0.00000  Uiso   1.00
Cl1053 Cl    0.60415   0.71071   0.69294   0.00000  Uiso   1.00
Cl1054 Cl    0.39586   0.95596   0.80706   0.00000  Uiso   1.00
C1055  C     0.66675   0.75408   0.74906   0.00000  Uiso   1.00
C1056  C     0.99991   0.91258   0.75094   0.00000  Uiso   1.00
C1057  C     0.86306   0.83020   0.54728   0.00000  Uiso   1.00
C1058  C     0.80361   0.83647   0.95272   0.00000  Uiso   1.00
C1059  C     0.90966   0.81795   0.52451   0.00000  Uiso   1.00
C1060  C     0.75701   0.84872   0.97549   0.00000  Uiso   1.00
C1061  C     0.97157   0.68707   0.72593   0.00000  Uiso   1.00
C1062  C     0.69510   0.97959   0.77407   0.00000  Uiso   1.00
C1063  C     0.97179   0.97773   0.72751   0.00000  Uiso   1.00
C1064  C     0.69488   0.68894   0.77249   0.00000  Uiso   1.00
C1065  C     0.66680   0.95719   0.75120   0.00000  Uiso   1.00
C1066  C     0.99986   0.70948   0.74880   0.00000  Uiso   1.00
C1067  C     0.85010   0.80696   0.77711   0.00000  Uiso   1.00
C1068  C     0.81657   0.85970   0.72290   0.00000  Uiso   1.00
C1069  C     0.80048   0.80703   0.77716   0.00000  Uiso   1.00
C1070  C     0.86618   0.85964   0.72284   0.00000  Uiso   1.00
C1071  C     0.97277   0.83279   0.83610   0.00000  Uiso   1.00
C1072  C     0.69390   0.83387   0.66390   0.00000  Uiso   1.00
C1073  C     0.95769   0.82906   0.88515   0.00000  Uiso   1.00
C1074  C     0.70898   0.83760   0.61485   0.00000  Uiso   1.00
C1075  C     0.97266   0.80899   0.95551   0.00000  Uiso   1.00
C1076  C     0.69401   0.85768   0.54449   0.00000  Uiso   1.00
C1077  C     0.98920   0.81400   0.90912   0.00000  Uiso   1.00
C1078  C     0.67747   0.85266   0.59088   0.00000  Uiso   1.00
C1079  C     0.90965   0.83812   0.90781   0.00000  Uiso   1.00
C1080  C     0.75702   0.82855   0.59219   0.00000  Uiso   1.00
C1081  C     0.89067   0.82861   0.95344   0.00000  Uiso   1.00
C1082  C     0.77599   0.83806   0.54656   0.00000  Uiso   1.00
C1083  C     0.92401   0.81725   0.97790   0.00000  Uiso   1.00
C1084  C     0.74266   0.84942   0.52210   0.00000  Uiso   1.00
C1085  C     0.84042   0.83300   0.97598   0.00000  Uiso   1.00
C1086  C     0.82624   0.83368   0.52402   0.00000  Uiso   1.00
Cu1087 Cu    0.71355   0.83334   0.75000   0.00000  Uiso   1.00
Cu1088 Cu    0.95311   0.83333   0.75000   0.00000  Uiso   1.00
H1089  H     0.93626   0.81298   0.54325   0.00000  Uiso   1.00
H1090  H     0.73041   0.85369   0.95675   0.00000  Uiso   1.00
H1091  H     0.77851   0.81221   0.61036   0.00000  Uiso   1.00
H1092  H     0.88815   0.85446   0.88964   0.00000  Uiso   1.00
H1093  H     0.97346   0.86003   0.60782   0.00000  Uiso   1.00
H1094  H     0.69321   0.80664   0.89218   0.00000  Uiso   1.00
H1095  H     0.99795   0.79908   0.97398   0.00000  Uiso   1.00
H1096  H     0.66871   0.86759   0.52602   0.00000  Uiso   1.00
H1097  H     0.95050   0.96050   0.70937   0.00000  Uiso   1.00
H1098  H     0.71616   0.70616   0.79063   0.00000  Uiso   1.00
H1099  H     0.86236   0.78580   0.79879   0.00000  Uiso   1.00
H1100  H     0.80431   0.88087   0.70121   0.00000  Uiso   1.00
H1101  H     0.77534   0.78598   0.79897   0.00000  Uiso   1.00
H1102  H     0.89133   0.88068   0.70103   0.00000  Uiso   1.00
N1103  N     0.78403   0.83334   0.74999   0.00000  Uiso   1.00
N1104  N     0.88264   0.83332   0.75001   0.00000  Uiso   1.00
O1105  O     0.70625   0.77322   0.75000   0.00000  Uiso   1.00
O1106  O     0.96042   0.89345   0.75000   0.00000  Uiso   1.00
O1107  O     0.96039   0.77321   0.75001   0.00000  Uiso   1.00
O1108  O     0.70628   0.89346   0.75000   0.00000  Uiso   1.00
O1109  O     0.68519   0.83334   0.81492   0.00000  Uiso   1.00
O1110  O     0.98148   0.83332   0.68509   0.00000  Uiso   1.00
O1111  O     0.93933   0.83333   0.81492   0.00000  Uiso   1.00
O1112  O     0.72733   0.83333   0.68508   0.00000  Uiso   1.00
Cl1113 Cl    0.85770   0.84892   0.60209   0.00000  Uiso   1.00
Cl1114 Cl    0.80897   0.81775   0.89791   0.00000  Uiso   1.00
Cl1115 Cl    0.93748   0.71071   0.69294   0.00000  Uiso   1.00
Cl1116 Cl    0.72919   0.95596   0.80706   0.00000  Uiso   1.00
loop_
_geom_bond_atom_site_label_1
_geom_bond_atom_site_label_2
_geom_bond_distance
_geom_bond_site_symmetry_2
_ccdc_geom_bond_type
C1     O51     1.292   .     A
C1     C136    1.447   1_455 S
C1     O177    1.289   1_455 S
C2     O52     1.292   .     A
C2     C73     1.447   .     S
C2     O116    1.289   .     S
C3     C5      1.389   .     A
C3     C32     1.429   .     A
C3     Cl59    1.768   .     S
C4     Cl60    1.768   .     S
C4     C6      1.389   .     A
C4     C31     1.429   .     A
C5     H35     1.084   .     S
C5     C587    1.388   1_554 S
C6     H36     1.084   .     S
C6     C588    1.388   .     S
C7     C12     1.408   .     A
C7     Cl61    1.764   .     S
C7     C381    1.385   1_545 S
C8     C11     1.408   .     A
C8     Cl62    1.764   .     S
C8     C196    1.385   .     S
C9     H43     1.084   .     S
C9     C193    1.385   .     S
C9     C73     1.399   .     S
C10    H44     1.084   .     S
C10    C380    1.385   1_545 S
C10    C136    1.399   1_455 S
C11    C133    1.399   1_455 S
C11    C126    1.447   1_455 S
C12    C63     1.447   .     S
C12    C72     1.399   .     S
C13    C15     1.417   .     A
C13    H45     1.082   .     S
C13    N50     1.367   .     A
C14    H46     1.082   .     S
C14    C16     1.417   .     A
C14    N49     1.367   .     A
C15    H47     1.082   .     S
C15    N49     1.367   .     A
C16    H48     1.082   .     S
C16    N50     1.367   .     A
C17    C19     1.465   .     S
C17    O57     1.295   .     A
C17    O117    1.296   .     S
C18    C20     1.465   .     S
C18    O58     1.295   .     A
C18    O180    1.296   1_455 S
C19    C23     1.399   .     A
C19    C25     1.397   .     A
C20    C24     1.399   .     A
C20    C26     1.397   .     A
C21    C29     1.404   .     A
C21    H41     1.084   .     S
C21    C23     1.393   .     A
C22    H42     1.084   .     S
C22    C24     1.393   .     A
C22    C30     1.404   .     A
C23    H102    1.083   .     S
C24    H163    1.083   1_455 S
C25    H38     1.077   .     S
C25    C27     1.402   .     A
C26    H37     1.077   .     S
C26    C28     1.402   .     A
C27    C29     1.415   .     A
C27    C31     1.426   .     A
C28    C30     1.415   .     A
C28    C32     1.426   .     A
C29    C563    1.388   .     S
C30    C564    1.388   1_554 S
C31    C590    1.431   .     S
C32    C589    1.431   1_554 S
Cu33   O55     1.952   .     S
Cu33   O58     1.938   .     S
Cu33   O54     1.962   .     S
Cu33   N49     2.013   .     S
Cu33   O51     1.960   .     S
Cu33   Cu158   2.679   1_455 S
Cu34   O57     1.938   .     S
Cu34   O56     1.952   .     S
Cu34   O53     1.962   .     S
Cu34   N50     2.013   .     S
Cu34   O52     1.960   .     S
Cu34   Cu95    2.679   .     S
H39    C86     1.083   .     S
H40    C147    1.083   1_455 S
O53    C63     1.289   .     S
O54    C126    1.289   1_455 S
O55    C141    1.296   1_455 S
O56    C80     1.296   .     S
C63    O113    1.292   .     A
C64    O114    1.292   .     A
C64    C135    1.447   .     S
C64    O178    1.289   .     S
C65    C67     1.389   .     A
C65    C94     1.429   .     A
C65    Cl121   1.768   .     S
C66    Cl122   1.768   .     S
C66    C68     1.389   .     A
C66    C93     1.429   .     A
C67    H97     1.084   .     S
C67    C649    1.388   1_554 S
C68    H98     1.084   .     S
C68    C650    1.388   .     S
C69    C74     1.408   .     A
C69    Cl123   1.764   .     S
C69    C443    1.385   1_545 S
C70    C73     1.408   .     A
C70    Cl124   1.764   .     S
C70    C258    1.385   .     S
C71    H105    1.084   .     S
C71    C255    1.385   .     S
C71    C135    1.399   .     S
C72    H106    1.084   .     S
C72    C442    1.385   1_545 S
C74    C125    1.447   .     S
C74    C134    1.399   .     S
C75    C77     1.417   .     A
C75    H107    1.082   .     S
C75    N112    1.367   .     A
C76    H108    1.082   .     S
C76    C78     1.417   .     A
C76    N111    1.367   .     A
C77    H109    1.082   .     S
C77    N111    1.367   .     A
C78    H110    1.082   .     S
C78    N112    1.367   .     A
C79    C81     1.465   .     S
C79    O119    1.295   .     A
C79    O179    1.296   .     S
C80    C82     1.465   .     S
C80    O120    1.295   .     A
C81    C85     1.399   .     A
C81    C87     1.397   .     A
C82    C86     1.399   .     A
C82    C88     1.397   .     A
C83    C91     1.404   .     A
C83    H103    1.084   .     S
C83    C85     1.393   .     A
C84    H104    1.084   .     S
C84    C86     1.393   .     A
C84    C92     1.404   .     A
C85    H164    1.083   .     S
C87    H100    1.077   .     S
C87    C89     1.402   .     A
C88    H99     1.077   .     S
C88    C90     1.402   .     A
C89    C91     1.415   .     A
C89    C93     1.426   .     A
C90    C92     1.415   .     A
C90    C94     1.426   .     A
C91    C625    1.388   .     S
C92    C626    1.388   1_554 S
C93    C652    1.431   .     S
C94    C651    1.431   1_554 S
Cu95   O117    1.952   .     S
Cu95   O120    1.938   .     S
Cu95   O116    1.962   .     S
Cu95   N111    2.013   .     S
Cu95   O113    1.960   .     S
Cu96   O119    1.938   .     S
Cu96   O118    1.952   .     S
Cu96   O115    1.962   .     S
Cu96   N112    2.013   .     S
Cu96   O114    1.960   .     S
Cu96   Cu157   2.679   .     S
H101   C148    1.083   .     S
O115   C125    1.289   .     S
O118   C142    1.296   .     S
C125   O175    1.292   .     A
C126   O176    1.292   .     A
C126   C11     1.447   1_655 S
C126   O54     1.289   1_655 S
C127   C129    1.389   .     A
C127   C156    1.429   .     A
C127   Cl183   1.768   .     S
C128   Cl184   1.768   .     S
C128   C130    1.389   .     A
C128   C155    1.429   .     A
C129   H159    1.084   .     S
C129   C711    1.388   1_554 S
C130   H160    1.084   .     S
C130   C712    1.388   .     S
C131   C136    1.408   .     A
C131   Cl185   1.764   .     S
C131   C505    1.385   1_545 S
C132   C135    1.408   .     A
C132   Cl186   1.764   .     S
C132   C320    1.385   .     S
C133   H167    1.084   .     S
C133   C317    1.385   .     S
C133   C11     1.399   1_655 S
C134   H168    1.084   .     S
C134   C504    1.385   1_545 S
C136   C1      1.447   1_655 S
C136   C10     1.399   1_655 S
C137   C139    1.417   .     A
C137   H169    1.082   .     S
C137   N174    1.367   .     A
C138   H170    1.082   .     S
C138   C140    1.417   .     A
C138   N173    1.367   .     A
C139   H171    1.082   .     S
C139   N173    1.367   .     A
C140   H172    1.082   .     S
C140   N174    1.367   .     A
C141   C143    1.465   .     S
C141   O181    1.295   .     A
C141   O55     1.296   1_655 S
C142   C144    1.465   .     S
C142   O182    1.295   .     A
C143   C147    1.399   .     A
C143   C149    1.397   .     A
C144   C148    1.399   .     A
C144   C150    1.397   .     A
C145   C153    1.404   .     A
C145   H165    1.084   .     S
C145   C147    1.393   .     A
C146   H166    1.084   .     S
C146   C148    1.393   .     A
C146   C154    1.404   .     A
C147   H40     1.083   1_655 S
C149   H162    1.077   .     S
C149   C151    1.402   .     A
C150   H161    1.077   .     S
C150   C152    1.402   .     A
C151   C153    1.415   .     A
C151   C155    1.426   .     A
C152   C154    1.415   .     A
C152   C156    1.426   .     A
C153   C687    1.388   .     S
C154   C688    1.388   1_554 S
C155   C714    1.431   .     S
C156   C713    1.431   1_554 S
Cu157  O179    1.952   .     S
Cu157  O182    1.938   .     S
Cu157  O178    1.962   .     S
Cu157  N173    2.013   .     S
Cu157  O175    1.960   .     S
Cu158  O181    1.938   .     S
Cu158  O180    1.952   .     S
Cu158  O177    1.962   .     S
Cu158  N174    2.013   .     S
Cu158  O176    1.960   .     S
Cu158  Cu33    2.679   1_655 S
H163   C24     1.083   1_655 S
O177   C1      1.289   1_655 S
O180   C18     1.296   1_655 S
C187   O237    1.292   .     A
C187   C322    1.447   1_455 S
C187   O363    1.289   1_455 S
C188   O238    1.292   .     A
C188   C259    1.447   .     S
C188   O302    1.289   .     S
C189   C191    1.389   .     A
C189   C218    1.429   .     A
C189   Cl245   1.768   .     S
C190   Cl246   1.768   .     S
C190   C192    1.389   .     A
C190   C217    1.429   .     A
C191   H221    1.084   .     S
C191   C773    1.388   1_554 S
C192   H222    1.084   .     S
C192   C774    1.388   .     S
C193   C198    1.408   .     A
C193   Cl247   1.764   .     S
C194   C197    1.408   .     A
C194   Cl248   1.764   .     S
C194   C382    1.385   .     S
C195   H229    1.084   .     S
C195   C379    1.385   .     S
C195   C259    1.399   .     S
C196   H230    1.084   .     S
C196   C322    1.399   1_455 S
C197   C319    1.399   1_455 S
C197   C312    1.447   1_455 S
C198   C249    1.447   .     S
C198   C258    1.399   .     S
C199   C201    1.417   .     A
C199   H231    1.082   .     S
C199   N236    1.367   .     A
C200   H232    1.082   .     S
C200   C202    1.417   .     A
C200   N235    1.367   .     A
C201   H233    1.082   .     S
C201   N235    1.367   .     A
C202   H234    1.082   .     S
C202   N236    1.367   .     A
C203   C205    1.465   .     S
C203   O243    1.295   .     A
C203   O303    1.296   .     S
C204   C206    1.465   .     S
C204   O244    1.295   .     A
C204   O366    1.296   1_455 S
C205   C209    1.399   .     A
C205   C211    1.397   .     A
C206   C210    1.399   .     A
C206   C212    1.397   .     A
C207   C215    1.404   .     A
C207   H227    1.084   .     S
C207   C209    1.393   .     A
C208   H228    1.084   .     S
C208   C210    1.393   .     A
C208   C216    1.404   .     A
C209   H288    1.083   .     S
C210   H349    1.083   1_455 S
C211   H224    1.077   .     S
C211   C213    1.402   .     A
C212   H223    1.077   .     S
C212   C214    1.402   .     A
C213   C215    1.415   .     A
C213   C217    1.426   .     A
C214   C216    1.415   .     A
C214   C218    1.426   .     A
C215   C749    1.388   .     S
C216   C750    1.388   1_554 S
C217   C776    1.431   .     S
C218   C775    1.431   1_554 S
Cu219  O241    1.952   .     S
Cu219  O244    1.938   .     S
Cu219  O240    1.962   .     S
Cu219  N235    2.013   .     S
Cu219  O237    1.960   .     S
Cu219  Cu344   2.679   1_455 S
Cu220  O243    1.938   .     S
Cu220  O242    1.952   .     S
Cu220  O239    1.962   .     S
Cu220  N236    2.013   .     S
Cu220  O238    1.960   .     S
Cu220  Cu281   2.679   .     S
H225   C272    1.083   .     S
H226   C333    1.083   1_455 S
O239   C249    1.289   .     S
O240   C312    1.289   1_455 S
O241   C327    1.296   1_455 S
O242   C266    1.296   .     S
C249   O299    1.292   .     A
C250   O300    1.292   .     A
C250   C321    1.447   .     S
C250   O364    1.289   .     S
C251   C253    1.389   .     A
C251   C280    1.429   .     A
C251   Cl307   1.768   .     S
C252   Cl308   1.768   .     S
C252   C254    1.389   .     A
C252   C279    1.429   .     A
C253   H283    1.084   .     S
C253   C835    1.388   1_554 S
C254   H284    1.084   .     S
C254   C836    1.388   .     S
C255   C260    1.408   .     A
C255   Cl309   1.764   .     S
C256   C259    1.408   .     A
C256   Cl310   1.764   .     S
C256   C444    1.385   .     S
C257   H291    1.084   .     S
C257   C441    1.385   .     S
C257   C321    1.399   .     S
C258   H292    1.084   .     S
C260   C311    1.447   .     S
C260   C320    1.399   .     S
C261   C263    1.417   .     A
C261   H293    1.082   .     S
C261   N298    1.367   .     A
C262   H294    1.082   .     S
C262   C264    1.417   .     A
C262   N297    1.367   .     A
C263   H295    1.082   .     S
C263   N297    1.367   .     A
C264   H296    1.082   .     S
C264   N298    1.367   .     A
C265   C267    1.465   .     S
C265   O305    1.295   .     A
C265   O365    1.296   .     S
C266   C268    1.465   .     S
C266   O306    1.295   .     A
C267   C271    1.399   .     A
C267   C273    1.397   .     A
C268   C272    1.399   .     A
C268   C274    1.397   .     A
C269   C277    1.404   .     A
C269   H289    1.084   .     S
C269   C271    1.393   .     A
C270   H290    1.084   .     S
C270   C272    1.393   .     A
C270   C278    1.404   .     A
C271   H350    1.083   .     S
C273   H286    1.077   .     S
C273   C275    1.402   .     A
C274   H285    1.077   .     S
C274   C276    1.402   .     A
C275   C277    1.415   .     A
C275   C279    1.426   .     A
C276   C278    1.415   .     A
C276   C280    1.426   .     A
C277   C811    1.388   .     S
C278   C812    1.388   1_554 S
C279   C838    1.431   .     S
C280   C837    1.431   1_554 S
Cu281  O303    1.952   .     S
Cu281  O306    1.938   .     S
Cu281  O302    1.962   .     S
Cu281  N297    2.013   .     S
Cu281  O299    1.960   .     S
Cu282  O305    1.938   .     S
Cu282  O304    1.952   .     S
Cu282  O301    1.962   .     S
Cu282  N298    2.013   .     S
Cu282  O300    1.960   .     S
Cu282  Cu343   2.679   .     S
H287   C334    1.083   .     S
O301   C311    1.289   .     S
O304   C328    1.296   .     S
C311   O361    1.292   .     A
C312   O362    1.292   .     A
C312   C197    1.447   1_655 S
C312   O240    1.289   1_655 S
C313   C315    1.389   .     A
C313   C342    1.429   .     A
C313   Cl369   1.768   .     S
C314   Cl370   1.768   .     S
C314   C316    1.389   .     A
C314   C341    1.429   .     A
C315   H345    1.084   .     S
C315   C897    1.388   1_554 S
C316   H346    1.084   .     S
C316   C898    1.388   .     S
C317   C322    1.408   .     A
C317   Cl371   1.764   .     S
C318   C321    1.408   .     A
C318   Cl372   1.764   .     S
C318   C506    1.385   .     S
C319   H353    1.084   .     S
C319   C503    1.385   .     S
C319   C197    1.399   1_655 S
C320   H354    1.084   .     S
C322   C187    1.447   1_655 S
C322   C196    1.399   1_655 S
C323   C325    1.417   .     A
C323   H355    1.082   .     S
C323   N360    1.367   .     A
C324   H356    1.082   .     S
C324   C326    1.417   .     A
C324   N359    1.367   .     A
C325   H357    1.082   .     S
C325   N359    1.367   .     A
C326   H358    1.082   .     S
C326   N360    1.367   .     A
C327   C329    1.465   .     S
C327   O367    1.295   .     A
C327   O241    1.296   1_655 S
C328   C330    1.465   .     S
C328   O368    1.295   .     A
C329   C333    1.399   .     A
C329   C335    1.397   .     A
C330   C334    1.399   .     A
C330   C336    1.397   .     A
C331   C339    1.404   .     A
C331   H351    1.084   .     S
C331   C333    1.393   .     A
C332   H352    1.084   .     S
C332   C334    1.393   .     A
C332   C340    1.404   .     A
C333   H226    1.083   1_655 S
C335   H348    1.077   .     S
C335   C337    1.402   .     A
C336   H347    1.077   .     S
C336   C338    1.402   .     A
C337   C339    1.415   .     A
C337   C341    1.426   .     A
C338   C340    1.415   .     A
C338   C342    1.426   .     A
C339   C873    1.388   .     S
C340   C874    1.388   1_554 S
C341   C900    1.431   .     S
C342   C899    1.431   1_554 S
Cu343  O365    1.952   .     S
Cu343  O368    1.938   .     S
Cu343  O364    1.962   .     S
Cu343  N359    2.013   .     S
Cu343  O361    1.960   .     S
Cu344  O367    1.938   .     S
Cu344  O366    1.952   .     S
Cu344  O363    1.962   .     S
Cu344  N360    2.013   .     S
Cu344  O362    1.960   .     S
Cu344  Cu219   2.679   1_655 S
H349   C210    1.083   1_655 S
O363   C187    1.289   1_655 S
O366   C204    1.296   1_655 S
C373   O423    1.292   .     A
C373   C508    1.447   1_455 S
C373   O549    1.289   1_455 S
C374   O424    1.292   .     A
C374   C445    1.447   .     S
C374   O488    1.289   .     S
C375   C377    1.389   .     A
C375   C404    1.429   .     A
C375   Cl431   1.768   .     S
C376   Cl432   1.768   .     S
C376   C378    1.389   .     A
C376   C403    1.429   .     A
C377   H407    1.084   .     S
C377   C959    1.388   1_554 S
C378   H408    1.084   .     S
C378   C960    1.388   .     S
C379   C384    1.408   .     A
C379   Cl433   1.764   .     S
C380   C383    1.408   .     A
C380   Cl434   1.764   .     S
C380   C10     1.385   1_565 S
C381   H415    1.084   .     S
C381   C7      1.385   1_565 S
C381   C445    1.399   .     S
C382   H416    1.084   .     S
C382   C508    1.399   1_455 S
C383   C505    1.399   1_455 S
C383   C498    1.447   1_455 S
C384   C435    1.447   .     S
C384   C444    1.399   .     S
C385   C387    1.417   .     A
C385   H417    1.082   .     S
C385   N422    1.367   .     A
C386   H418    1.082   .     S
C386   C388    1.417   .     A
C386   N421    1.367   .     A
C387   H419    1.082   .     S
C387   N421    1.367   .     A
C388   H420    1.082   .     S
C388   N422    1.367   .     A
C389   C391    1.465   .     S
C389   O429    1.295   .     A
C389   O489    1.296   .     S
C390   C392    1.465   .     S
C390   O430    1.295   .     A
C390   O552    1.296   1_455 S
C391   C395    1.399   .     A
C391   C397    1.397   .     A
C392   C396    1.399   .     A
C392   C398    1.397   .     A
C393   C401    1.404   .     A
C393   H413    1.084   .     S
C393   C395    1.393   .     A
C394   H414    1.084   .     S
C394   C396    1.393   .     A
C394   C402    1.404   .     A
C395   H474    1.083   .     S
C396   H535    1.083   1_455 S
C397   H410    1.077   .     S
C397   C399    1.402   .     A
C398   H409    1.077   .     S
C398   C400    1.402   .     A
C399   C401    1.415   .     A
C399   C403    1.426   .     A
C400   C402    1.415   .     A
C400   C404    1.426   .     A
C401   C935    1.388   .     S
C402   C936    1.388   1_554 S
C403   C962    1.431   .     S
C404   C961    1.431   1_554 S
Cu405  O427    1.952   .     S
Cu405  O430    1.938   .     S
Cu405  O426    1.962   .     S
Cu405  N421    2.013   .     S
Cu405  O423    1.960   .     S
Cu405  Cu530   2.679   1_455 S
Cu406  O429    1.938   .     S
Cu406  O428    1.952   .     S
Cu406  O425    1.962   .     S
Cu406  N422    2.013   .     S
Cu406  O424    1.960   .     S
Cu406  Cu467   2.679   .     S
H411   C458    1.083   .     S
H412   C519    1.083   1_455 S
O425   C435    1.289   .     S
O426   C498    1.289   1_455 S
O427   C513    1.296   1_455 S
O428   C452    1.296   .     S
C435   O485    1.292   .     A
C436   O486    1.292   .     A
C436   C507    1.447   .     S
C436   O550    1.289   .     S
C437   C439    1.389   .     A
C437   C466    1.429   .     A
C437   Cl493   1.768   .     S
C438   Cl494   1.768   .     S
C438   C440    1.389   .     A
C438   C465    1.429   .     A
C439   H469    1.084   .     S
C439   C1021   1.388   1_554 S
C440   H470    1.084   .     S
C440   C1022   1.388   .     S
C441   C446    1.408   .     A
C441   Cl495   1.764   .     S
C442   C445    1.408   .     A
C442   Cl496   1.764   .     S
C442   C72     1.385   1_565 S
C443   H477    1.084   .     S
C443   C69     1.385   1_565 S
C443   C507    1.399   .     S
C444   H478    1.084   .     S
C446   C497    1.447   .     S
C446   C506    1.399   .     S
C447   C449    1.417   .     A
C447   H479    1.082   .     S
C447   N484    1.367   .     A
C448   H480    1.082   .     S
C448   C450    1.417   .     A
C448   N483    1.367   .     A
C449   H481    1.082   .     S
C449   N483    1.367   .     A
C450   H482    1.082   .     S
C450   N484    1.367   .     A
C451   C453    1.465   .     S
C451   O491    1.295   .     A
C451   O551    1.296   .     S
C452   C454    1.465   .     S
C452   O492    1.295   .     A
C453   C457    1.399   .     A
C453   C459    1.397   .     A
C454   C458    1.399   .     A
C454   C460    1.397   .     A
C455   C463    1.404   .     A
C455   H475    1.084   .     S
C455   C457    1.393   .     A
C456   H476    1.084   .     S
C456   C458    1.393   .     A
C456   C464    1.404   .     A
C457   H536    1.083   .     S
C459   H472    1.077   .     S
C459   C461    1.402   .     A
C460   H471    1.077   .     S
C460   C462    1.402   .     A
C461   C463    1.415   .     A
C461   C465    1.426   .     A
C462   C464    1.415   .     A
C462   C466    1.426   .     A
C463   C997    1.388   .     S
C464   C998    1.388   1_554 S
C465   C1024   1.431   .     S
C466   C1023   1.431   1_554 S
Cu467  O489    1.952   .     S
Cu467  O492    1.938   .     S
Cu467  O488    1.962   .     S
Cu467  N483    2.013   .     S
Cu467  O485    1.960   .     S
Cu468  O491    1.938   .     S
Cu468  O490    1.952   .     S
Cu468  O487    1.962   .     S
Cu468  N484    2.013   .     S
Cu468  O486    1.960   .     S
Cu468  Cu529   2.679   .     S
H473   C520    1.083   .     S
O487   C497    1.289   .     S
O490   C514    1.296   .     S
C497   O547    1.292   .     A
C498   O548    1.292   .     A
C498   C383    1.447   1_655 S
C498   O426    1.289   1_655 S
C499   C501    1.389   .     A
C499   C528    1.429   .     A
C499   Cl555   1.768   .     S
C500   Cl556   1.768   .     S
C500   C502    1.389   .     A
C500   C527    1.429   .     A
C501   H531    1.084   .     S
C501   C1083   1.388   1_554 S
C502   H532    1.084   .     S
C502   C1084   1.388   .     S
C503   C508    1.408   .     A
C503   Cl557   1.764   .     S
C504   C507    1.408   .     A
C504   Cl558   1.764   .     S
C504   C134    1.385   1_565 S
C505   H539    1.084   .     S
C505   C131    1.385   1_565 S
C505   C383    1.399   1_655 S
C506   H540    1.084   .     S
C508   C373    1.447   1_655 S
C508   C382    1.399   1_655 S
C509   C511    1.417   .     A
C509   H541    1.082   .     S
C509   N546    1.367   .     A
C510   H542    1.082   .     S
C510   C512    1.417   .     A
C510   N545    1.367   .     A
C511   H543    1.082   .     S
C511   N545    1.367   .     A
C512   H544    1.082   .     S
C512   N546    1.367   .     A
C513   C515    1.465   .     S
C513   O553    1.295   .     A
C513   O427    1.296   1_655 S
C514   C516    1.465   .     S
C514   O554    1.295   .     A
C515   C519    1.399   .     A
C515   C521    1.397   .     A
C516   C520    1.399   .     A
C516   C522    1.397   .     A
C517   C525    1.404   .     A
C517   H537    1.084   .     S
C517   C519    1.393   .     A
C518   H538    1.084   .     S
C518   C520    1.393   .     A
C518   C526    1.404   .     A
C519   H412    1.083   1_655 S
C521   H534    1.077   .     S
C521   C523    1.402   .     A
C522   H533    1.077   .     S
C522   C524    1.402   .     A
C523   C525    1.415   .     A
C523   C527    1.426   .     A
C524   C526    1.415   .     A
C524   C528    1.426   .     A
C525   C1059   1.388   .     S
C526   C1060   1.388   1_554 S
C527   C1086   1.431   .     S
C528   C1085   1.431   1_554 S
Cu529  O551    1.952   .     S
Cu529  O554    1.938   .     S
Cu529  O550    1.962   .     S
Cu529  N545    2.013   .     S
Cu529  O547    1.960   .     S
Cu530  O553    1.938   .     S
Cu530  O552    1.952   .     S
Cu530  O549    1.962   .     S
Cu530  N546    2.013   .     S
Cu530  O548    1.960   .     S
Cu530  Cu405   2.679   1_655 S
H535   C396    1.083   1_655 S
O549   C373    1.289   1_655 S
O552   C390    1.296   1_655 S
C559   O609    1.292   .     A
C559   C694    1.447   1_455 S
C559   O735    1.289   1_455 S
C560   O610    1.292   .     A
C560   C631    1.447   .     S
C560   O674    1.289   .     S
C561   C563    1.389   .     A
C561   C590    1.429   .     A
C561   Cl617   1.768   .     S
C562   Cl618   1.768   .     S
C562   C564    1.389   .     A
C562   C589    1.429   .     A
C563   H593    1.084   .     S
C564   H594    1.084   .     S
C564   C30     1.388   1_556 S
C565   C570    1.408   .     A
C565   Cl619   1.764   .     S
C565   C939    1.385   1_545 S
C566   C569    1.408   .     A
C566   Cl620   1.764   .     S
C566   C754    1.385   .     S
C567   H601    1.084   .     S
C567   C751    1.385   .     S
C567   C631    1.399   .     S
C568   H602    1.084   .     S
C568   C938    1.385   1_545 S
C568   C694    1.399   1_455 S
C569   C691    1.399   1_455 S
C569   C684    1.447   1_455 S
C570   C621    1.447   .     S
C570   C630    1.399   .     S
C571   C573    1.417   .     A
C571   H603    1.082   .     S
C571   N608    1.367   .     A
C572   H604    1.082   .     S
C572   C574    1.417   .     A
C572   N607    1.367   .     A
C573   H605    1.082   .     S
C573   N607    1.367   .     A
C574   H606    1.082   .     S
C574   N608    1.367   .     A
C575   C577    1.465   .     S
C575   O615    1.295   .     A
C575   O675    1.296   .     S
C576   C578    1.465   .     S
C576   O616    1.295   .     A
C576   O738    1.296   1_455 S
C577   C581    1.399   .     A
C577   C583    1.397   .     A
C578   C582    1.399   .     A
C578   C584    1.397   .     A
C579   C587    1.404   .     A
C579   H599    1.084   .     S
C579   C581    1.393   .     A
C580   H600    1.084   .     S
C580   C582    1.393   .     A
C580   C588    1.404   .     A
C581   H660    1.083   .     S
C582   H721    1.083   1_455 S
C583   H596    1.077   .     S
C583   C585    1.402   .     A
C584   H595    1.077   .     S
C584   C586    1.402   .     A
C585   C587    1.415   .     A
C585   C589    1.426   .     A
C586   C588    1.415   .     A
C586   C590    1.426   .     A
C587   C5      1.388   1_556 S
C589   C32     1.431   1_556 S
Cu591  O613    1.952   .     S
Cu591  O616    1.938   .     S
Cu591  O612    1.962   .     S
Cu591  N607    2.013   .     S
Cu591  O609    1.960   .     S
Cu591  Cu716   2.679   1_455 S
Cu592  O615    1.938   .     S
Cu592  O614    1.952   .     S
Cu592  O611    1.962   .     S
Cu592  N608    2.013   .     S
Cu592  O610    1.960   .     S
Cu592  Cu653   2.679   .     S
H597   C644    1.083   .     S
H598   C705    1.083   1_455 S
O611   C621    1.289   .     S
O612   C684    1.289   1_455 S
O613   C699    1.296   1_455 S
O614   C638    1.296   .     S
C621   O671    1.292   .     A
C622   O672    1.292   .     A
C622   C693    1.447   .     S
C622   O736    1.289   .     S
C623   C625    1.389   .     A
C623   C652    1.429   .     A
C623   Cl679   1.768   .     S
C624   Cl680   1.768   .     S
C624   C626    1.389   .     A
C624   C651    1.429   .     A
C625   H655    1.084   .     S
C626   H656    1.084   .     S
C626   C92     1.388   1_556 S
C627   C632    1.408   .     A
C627   Cl681   1.764   .     S
C627   C1001   1.385   1_545 S
C628   C631    1.408   .     A
C628   Cl682   1.764   .     S
C628   C816    1.385   .     S
C629   H663    1.084   .     S
C629   C813    1.385   .     S
C629   C693    1.399   .     S
C630   H664    1.084   .     S
C630   C1000   1.385   1_545 S
C632   C683    1.447   .     S
C632   C692    1.399   .     S
C633   C635    1.417   .     A
C633   H665    1.082   .     S
C633   N670    1.367   .     A
C634   H666    1.082   .     S
C634   C636    1.417   .     A
C634   N669    1.367   .     A
C635   H667    1.082   .     S
C635   N669    1.367   .     A
C636   H668    1.082   .     S
C636   N670    1.367   .     A
C637   C639    1.465   .     S
C637   O677    1.295   .     A
C637   O737    1.296   .     S
C638   C640    1.465   .     S
C638   O678    1.295   .     A
C639   C643    1.399   .     A
C639   C645    1.397   .     A
C640   C644    1.399   .     A
C640   C646    1.397   .     A
C641   C649    1.404   .     A
C641   H661    1.084   .     S
C641   C643    1.393   .     A
C642   H662    1.084   .     S
C642   C644    1.393   .     A
C642   C650    1.404   .     A
C643   H722    1.083   .     S
C645   H658    1.077   .     S
C645   C647    1.402   .     A
C646   H657    1.077   .     S
C646   C648    1.402   .     A
C647   C649    1.415   .     A
C647   C651    1.426   .     A
C648   C650    1.415   .     A
C648   C652    1.426   .     A
C649   C67     1.388   1_556 S
C651   C94     1.431   1_556 S
Cu653  O675    1.952   .     S
Cu653  O678    1.938   .     S
Cu653  O674    1.962   .     S
Cu653  N669    2.013   .     S
Cu653  O671    1.960   .     S
Cu654  O677    1.938   .     S
Cu654  O676    1.952   .     S
Cu654  O673    1.962   .     S
Cu654  N670    2.013   .     S
Cu654  O672    1.960   .     S
Cu654  Cu715   2.679   .     S
H659   C706    1.083   .     S
O673   C683    1.289   .     S
O676   C700    1.296   .     S
C683   O733    1.292   .     A
C684   O734    1.292   .     A
C684   C569    1.447   1_655 S
C684   O612    1.289   1_655 S
C685   C687    1.389   .     A
C685   C714    1.429   .     A
C685   Cl741   1.768   .     S
C686   Cl742   1.768   .     S
C686   C688    1.389   .     A
C686   C713    1.429   .     A
C687   H717    1.084   .     S
C688   H718    1.084   .     S
C688   C154    1.388   1_556 S
C689   C694    1.408   .     A
C689   Cl743   1.764   .     S
C689   C1063   1.385   1_545 S
C690   C693    1.408   .     A
C690   Cl744   1.764   .     S
C690   C878    1.385   .     S
C691   H725    1.084   .     S
C691   C875    1.385   .     S
C691   C569    1.399   1_655 S
C692   H726    1.084   .     S
C692   C1062   1.385   1_545 S
C694   C559    1.447   1_655 S
C694   C568    1.399   1_655 S
C695   C697    1.417   .     A
C695   H727    1.082   .     S
C695   N732    1.367   .     A
C696   H728    1.082   .     S
C696   C698    1.417   .     A
C696   N731    1.367   .     A
C697   H729    1.082   .     S
C697   N731    1.367   .     A
C698   H730    1.082   .     S
C698   N732    1.367   .     A
C699   C701    1.465   .     S
C699   O739    1.295   .     A
C699   O613    1.296   1_655 S
C700   C702    1.465   .     S
C700   O740    1.295   .     A
C701   C705    1.399   .     A
C701   C707    1.397   .     A
C702   C706    1.399   .     A
C702   C708    1.397   .     A
C703   C711    1.404   .     A
C703   H723    1.084   .     S
C703   C705    1.393   .     A
C704   H724    1.084   .     S
C704   C706    1.393   .     A
C704   C712    1.404   .     A
C705   H598    1.083   1_655 S
C707   H720    1.077   .     S
C707   C709    1.402   .     A
C708   H719    1.077   .     S
C708   C710    1.402   .     A
C709   C711    1.415   .     A
C709   C713    1.426   .     A
C710   C712    1.415   .     A
C710   C714    1.426   .     A
C711   C129    1.388   1_556 S
C713   C156    1.431   1_556 S
Cu715  O737    1.952   .     S
Cu715  O740    1.938   .     S
Cu715  O736    1.962   .     S
Cu715  N731    2.013   .     S
Cu715  O733    1.960   .     S
Cu716  O739    1.938   .     S
Cu716  O738    1.952   .     S
Cu716  O735    1.962   .     S
Cu716  N732    2.013   .     S
Cu716  O734    1.960   .     S
Cu716  Cu591   2.679   1_655 S
H721   C582    1.083   1_655 S
O735   C559    1.289   1_655 S
O738   C576    1.296   1_655 S
C745   O795    1.292   .     A
C745   C880    1.447   1_455 S
C745   O921    1.289   1_455 S
C746   O796    1.292   .     A
C746   C817    1.447   .     S
C746   O860    1.289   .     S
C747   C749    1.389   .     A
C747   C776    1.429   .     A
C747   Cl803   1.768   .     S
C748   Cl804   1.768   .     S
C748   C750    1.389   .     A
C748   C775    1.429   .     A
C749   H779    1.084   .     S
C750   H780    1.084   .     S
C750   C216    1.388   1_556 S
C751   C756    1.408   .     A
C751   Cl805   1.764   .     S
C752   C755    1.408   .     A
C752   Cl806   1.764   .     S
C752   C940    1.385   .     S
C753   H787    1.084   .     S
C753   C937    1.385   .     S
C753   C817    1.399   .     S
C754   H788    1.084   .     S
C754   C880    1.399   1_455 S
C755   C877    1.399   1_455 S
C755   C870    1.447   1_455 S
C756   C807    1.447   .     S
C756   C816    1.399   .     S
C757   C759    1.417   .     A
C757   H789    1.082   .     S
C757   N794    1.367   .     A
C758   H790    1.082   .     S
C758   C760    1.417   .     A
C758   N793    1.367   .     A
C759   H791    1.082   .     S
C759   N793    1.367   .     A
C760   H792    1.082   .     S
C760   N794    1.367   .     A
C761   C763    1.465   .     S
C761   O801    1.295   .     A
C761   O861    1.296   .     S
C762   C764    1.465   .     S
C762   O802    1.295   .     A
C762   O924    1.296   1_455 S
C763   C767    1.399   .     A
C763   C769    1.397   .     A
C764   C768    1.399   .     A
C764   C770    1.397   .     A
C765   C773    1.404   .     A
C765   H785    1.084   .     S
C765   C767    1.393   .     A
C766   H786    1.084   .     S
C766   C768    1.393   .     A
C766   C774    1.404   .     A
C767   H846    1.083   .     S
C768   H907    1.083   1_455 S
C769   H782    1.077   .     S
C769   C771    1.402   .     A
C770   H781    1.077   .     S
C770   C772    1.402   .     A
C771   C773    1.415   .     A
C771   C775    1.426   .     A
C772   C774    1.415   .     A
C772   C776    1.426   .     A
C773   C191    1.388   1_556 S
C775   C218    1.431   1_556 S
Cu777  O799    1.952   .     S
Cu777  O802    1.938   .     S
Cu777  O798    1.962   .     S
Cu777  N793    2.013   .     S
Cu777  O795    1.960   .     S
Cu777  Cu902   2.679   1_455 S
Cu778  O801    1.938   .     S
Cu778  O800    1.952   .     S
Cu778  O797    1.962   .     S
Cu778  N794    2.013   .     S
Cu778  O796    1.960   .     S
Cu778  Cu839   2.679   .     S
H783   C830    1.083   .     S
H784   C891    1.083   1_455 S
O797   C807    1.289   .     S
O798   C870    1.289   1_455 S
O799   C885    1.296   1_455 S
O800   C824    1.296   .     S
C807   O857    1.292   .     A
C808   O858    1.292   .     A
C808   C879    1.447   .     S
C808   O922    1.289   .     S
C809   C811    1.389   .     A
C809   C838    1.429   .     A
C809   Cl865   1.768   .     S
C810   Cl866   1.768   .     S
C810   C812    1.389   .     A
C810   C837    1.429   .     A
C811   H841    1.084   .     S
C812   H842    1.084   .     S
C812   C278    1.388   1_556 S
C813   C818    1.408   .     A
C813   Cl867   1.764   .     S
C814   C817    1.408   .     A
C814   Cl868   1.764   .     S
C814   C1002   1.385   .     S
C815   H849    1.084   .     S
C815   C999    1.385   .     S
C815   C879    1.399   .     S
C816   H850    1.084   .     S
C818   C869    1.447   .     S
C818   C878    1.399   .     S
C819   C821    1.417   .     A
C819   H851    1.082   .     S
C819   N856    1.367   .     A
C820   H852    1.082   .     S
C820   C822    1.417   .     A
C820   N855    1.367   .     A
C821   H853    1.082   .     S
C821   N855    1.367   .     A
C822   H854    1.082   .     S
C822   N856    1.367   .     A
C823   C825    1.465   .     S
C823   O863    1.295   .     A
C823   O923    1.296   .     S
C824   C826    1.465   .     S
C824   O864    1.295   .     A
C825   C829    1.399   .     A
C825   C831    1.397   .     A
C826   C830    1.399   .     A
C826   C832    1.397   .     A
C827   C835    1.404   .     A
C827   H847    1.084   .     S
C827   C829    1.393   .     A
C828   H848    1.084   .     S
C828   C830    1.393   .     A
C828   C836    1.404   .     A
C829   H908    1.083   .     S
C831   H844    1.077   .     S
C831   C833    1.402   .     A
C832   H843    1.077   .     S
C832   C834    1.402   .     A
C833   C835    1.415   .     A
C833   C837    1.426   .     A
C834   C836    1.415   .     A
C834   C838    1.426   .     A
C835   C253    1.388   1_556 S
C837   C280    1.431   1_556 S
Cu839  O861    1.952   .     S
Cu839  O864    1.938   .     S
Cu839  O860    1.962   .     S
Cu839  N855    2.013   .     S
Cu839  O857    1.960   .     S
Cu840  O863    1.938   .     S
Cu840  O862    1.952   .     S
Cu840  O859    1.962   .     S
Cu840  N856    2.013   .     S
Cu840  O858    1.960   .     S
Cu840  Cu901   2.679   .     S
H845   C892    1.083   .     S
O859   C869    1.289   .     S
O862   C886    1.296   .     S
C869   O919    1.292   .     A
C870   O920    1.292   .     A
C870   C755    1.447   1_655 S
C870   O798    1.289   1_655 S
C871   C873    1.389   .     A
C871   C900    1.429   .     A
C871   Cl927   1.768   .     S
C872   Cl928   1.768   .     S
C872   C874    1.389   .     A
C872   C899    1.429   .     A
C873   H903    1.084   .     S
C874   H904    1.084   .     S
C874   C340    1.388   1_556 S
C875   C880    1.408   .     A
C875   Cl929   1.764   .     S
C876   C879    1.408   .     A
C876   Cl930   1.764   .     S
C876   C1064   1.385   .     S
C877   H911    1.084   .     S
C877   C1061   1.385   .     S
C877   C755    1.399   1_655 S
C878   H912    1.084   .     S
C880   C745    1.447   1_655 S
C880   C754    1.399   1_655 S
C881   C883    1.417   .     A
C881   H913    1.082   .     S
C881   N918    1.367   .     A
C882   H914    1.082   .     S
C882   C884    1.417   .     A
C882   N917    1.367   .     A
C883   H915    1.082   .     S
C883   N917    1.367   .     A
C884   H916    1.082   .     S
C884   N918    1.367   .     A
C885   C887    1.465   .     S
C885   O925    1.295   .     A
C885   O799    1.296   1_655 S
C886   C888    1.465   .     S
C886   O926    1.295   .     A
C887   C891    1.399   .     A
C887   C893    1.397   .     A
C888   C892    1.399   .     A
C888   C894    1.397   .     A
C889   C897    1.404   .     A
C889   H909    1.084   .     S
C889   C891    1.393   .     A
C890   H910    1.084   .     S
C890   C892    1.393   .     A
C890   C898    1.404   .     A
C891   H784    1.083   1_655 S
C893   H906    1.077   .     S
C893   C895    1.402   .     A
C894   H905    1.077   .     S
C894   C896    1.402   .     A
C895   C897    1.415   .     A
C895   C899    1.426   .     A
C896   C898    1.415   .     A
C896   C900    1.426   .     A
C897   C315    1.388   1_556 S
C899   C342    1.431   1_556 S
Cu901  O923    1.952   .     S
Cu901  O926    1.938   .     S
Cu901  O922    1.962   .     S
Cu901  N917    2.013   .     S
Cu901  O919    1.960   .     S
Cu902  O925    1.938   .     S
Cu902  O924    1.952   .     S
Cu902  O921    1.962   .     S
Cu902  N918    2.013   .     S
Cu902  O920    1.960   .     S
Cu902  Cu777   2.679   1_655 S
H907   C768    1.083   1_655 S
O921   C745    1.289   1_655 S
O924   C762    1.296   1_655 S
C931   O981    1.292   .     A
C931   C1066   1.447   1_455 S
C931   O1107   1.289   1_455 S
C932   O982    1.292   .     A
C932   C1003   1.447   .     S
C932   O1046   1.289   .     S
C933   C935    1.389   .     A
C933   C962    1.429   .     A
C933   Cl989   1.768   .     S
C934   Cl990   1.768   .     S
C934   C936    1.389   .     A
C934   C961    1.429   .     A
C935   H965    1.084   .     S
C936   H966    1.084   .     S
C936   C402    1.388   1_556 S
C937   C942    1.408   .     A
C937   Cl991   1.764   .     S
C938   C941    1.408   .     A
C938   Cl992   1.764   .     S
C938   C568    1.385   1_565 S
C939   H973    1.084   .     S
C939   C565    1.385   1_565 S
C939   C1003   1.399   .     S
C940   H974    1.084   .     S
C940   C1066   1.399   1_455 S
C941   C1063   1.399   1_455 S
C941   C1056   1.447   1_455 S
C942   C993    1.447   .     S
C942   C1002   1.399   .     S
C943   C945    1.417   .     A
C943   H975    1.082   .     S
C943   N980    1.367   .     A
C944   H976    1.082   .     S
C944   C946    1.417   .     A
C944   N979    1.367   .     A
C945   H977    1.082   .     S
C945   N979    1.367   .     A
C946   H978    1.082   .     S
C946   N980    1.367   .     A
C947   C949    1.465   .     S
C947   O987    1.295   .     A
C947   O1047   1.296   .     S
C948   C950    1.465   .     S
C948   O988    1.295   .     A
C948   O1110   1.296   1_455 S
C949   C953    1.399   .     A
C949   C955    1.397   .     A
C950   C954    1.399   .     A
C950   C956    1.397   .     A
C951   C959    1.404   .     A
C951   H971    1.084   .     S
C951   C953    1.393   .     A
C952   H972    1.084   .     S
C952   C954    1.393   .     A
C952   C960    1.404   .     A
C953   H1032   1.083   .     S
C954   H1093   1.083   1_455 S
C955   H968    1.077   .     S
C955   C957    1.402   .     A
C956   H967    1.077   .     S
C956   C958    1.402   .     A
C957   C959    1.415   .     A
C957   C961    1.426   .     A
C958   C960    1.415   .     A
C958   C962    1.426   .     A
C959   C377    1.388   1_556 S
C961   C404    1.431   1_556 S
Cu963  O985    1.952   .     S
Cu963  O988    1.938   .     S
Cu963  O984    1.962   .     S
Cu963  N979    2.013   .     S
Cu963  O981    1.960   .     S
Cu963  Cu1088  2.679   1_455 S
Cu964  O987    1.938   .     S
Cu964  O986    1.952   .     S
Cu964  O983    1.962   .     S
Cu964  N980    2.013   .     S
Cu964  O982    1.960   .     S
Cu964  Cu1025  2.679   .     S
H969   C1016   1.083   .     S
H970   C1077   1.083   1_455 S
O983   C993    1.289   .     S
O984   C1056   1.289   1_455 S
O985   C1071   1.296   1_455 S
O986   C1010   1.296   .     S
C993   O1043   1.292   .     A
C994   O1044   1.292   .     A
C994   C1065   1.447   .     S
C994   O1108   1.289   .     S
C995   C997    1.389   .     A
C995   C1024   1.429   .     A
C995   Cl1051  1.768   .     S
C996   Cl1052  1.768   .     S
C996   C998    1.389   .     A
C996   C1023   1.429   .     A
C997   H1027   1.084   .     S
C998   H1028   1.084   .     S
C998   C464    1.388   1_556 S
C999   C1004   1.408   .     A
C999   Cl1053  1.764   .     S
C1000  C1003   1.408   .     A
C1000  Cl1054  1.764   .     S
C1000  C630    1.385   1_565 S
C1001  H1035   1.084   .     S
C1001  C627    1.385   1_565 S
C1001  C1065   1.399   .     S
C1002  H1036   1.084   .     S
C1004  C1055   1.447   .     S
C1004  C1064   1.399   .     S
C1005  C1007   1.417   .     A
C1005  H1037   1.082   .     S
C1005  N1042   1.367   .     A
C1006  H1038   1.082   .     S
C1006  C1008   1.417   .     A
C1006  N1041   1.367   .     A
C1007  H1039   1.082   .     S
C1007  N1041   1.367   .     A
C1008  H1040   1.082   .     S
C1008  N1042   1.367   .     A
C1009  C1011   1.465   .     S
C1009  O1049   1.295   .     A
C1009  O1109   1.296   .     S
C1010  C1012   1.465   .     S
C1010  O1050   1.295   .     A
C1011  C1015   1.399   .     A
C1011  C1017   1.397   .     A
C1012  C1016   1.399   .     A
C1012  C1018   1.397   .     A
C1013  C1021   1.404   .     A
C1013  H1033   1.084   .     S
C1013  C1015   1.393   .     A
C1014  H1034   1.084   .     S
C1014  C1016   1.393   .     A
C1014  C1022   1.404   .     A
C1015  H1094   1.083   .     S
C1017  H1030   1.077   .     S
C1017  C1019   1.402   .     A
C1018  H1029   1.077   .     S
C1018  C1020   1.402   .     A
C1019  C1021   1.415   .     A
C1019  C1023   1.426   .     A
C1020  C1022   1.415   .     A
C1020  C1024   1.426   .     A
C1021  C439    1.388   1_556 S
C1023  C466    1.431   1_556 S
Cu1025 O1047   1.952   .     S
Cu1025 O1050   1.938   .     S
Cu1025 O1046   1.962   .     S
Cu1025 N1041   2.013   .     S
Cu1025 O1043   1.960   .     S
Cu1026 O1049   1.938   .     S
Cu1026 O1048   1.952   .     S
Cu1026 O1045   1.962   .     S
Cu1026 N1042   2.013   .     S
Cu1026 O1044   1.960   .     S
Cu1026 Cu1087  2.679   .     S
H1031  C1078   1.083   .     S
O1045  C1055   1.289   .     S
O1048  C1072   1.296   .     S
C1055  O1105   1.292   .     A
C1056  O1106   1.292   .     A
C1056  C941    1.447   1_655 S
C1056  O984    1.289   1_655 S
C1057  C1059   1.389   .     A
C1057  C1086   1.429   .     A
C1057  Cl1113  1.768   .     S
C1058  Cl1114  1.768   .     S
C1058  C1060   1.389   .     A
C1058  C1085   1.429   .     A
C1059  H1089   1.084   .     S
C1060  H1090   1.084   .     S
C1060  C526    1.388   1_556 S
C1061  C1066   1.408   .     A
C1061  Cl1115  1.764   .     S
C1062  C1065   1.408   .     A
C1062  Cl1116  1.764   .     S
C1062  C692    1.385   1_565 S
C1063  H1097   1.084   .     S
C1063  C689    1.385   1_565 S
C1063  C941    1.399   1_655 S
C1064  H1098   1.084   .     S
C1066  C931    1.447   1_655 S
C1066  C940    1.399   1_655 S
C1067  C1069   1.417   .     A
C1067  H1099   1.082   .     S
C1067  N1104   1.367   .     A
C1068  H1100   1.082   .     S
C1068  C1070   1.417   .     A
C1068  N1103   1.367   .     A
C1069  H1101   1.082   .     S
C1069  N1103   1.367   .     A
C1070  H1102   1.082   .     S
C1070  N1104   1.367   .     A
C1071  C1073   1.465   .     S
C1071  O1111   1.295   .     A
C1071  O985    1.296   1_655 S
C1072  C1074   1.465   .     S
C1072  O1112   1.295   .     A
C1073  C1077   1.399   .     A
C1073  C1079   1.397   .     A
C1074  C1078   1.399   .     A
C1074  C1080   1.397   .     A
C1075  C1083   1.404   .     A
C1075  H1095   1.084   .     S
C1075  C1077   1.393   .     A
C1076  H1096   1.084   .     S
C1076  C1078   1.393   .     A
C1076  C1084   1.404   .     A
C1077  H970    1.083   1_655 S
C1079  H1092   1.077   .     S
C1079  C1081   1.402   .     A
C1080  H1091   1.077   .     S
C1080  C1082   1.402   .     A
C1081  C1083   1.415   .     A
C1081  C1085   1.426   .     A
C1082  C1084   1.415   .     A
C1082  C1086   1.426   .     A
C1083  C501    1.388   1_556 S
C1085  C528    1.431   1_556 S
Cu1087 O1109   1.952   .     S
Cu1087 O1112   1.938   .     S
Cu1087 O1108   1.962   .     S
Cu1087 N1103   2.013   .     S
Cu1087 O1105   1.960   .     S
Cu1088 O1111   1.938   .     S
Cu1088 O1110   1.952   .     S
Cu1088 O1107   1.962   .     S
Cu1088 N1104   2.013   .     S
Cu1088 O1106   1.960   .     S
Cu1088 Cu963   2.679   1_655 S
H1093  C954    1.083   1_655 S
O1107  C931    1.289   1_655 S
O1110  C948    1.296   1_655 S
